MODEL 1
REMARK VINA RESULT:      -7.2      0.000      0.000
REMARK  Name = 
REMARK  9 active torsions:
REMARK  status: ('A' for Active; 'I' for Inactive)
REMARK    1  A    between atoms: C_1  and  C_2
REMARK    2  A    between atoms: C_2  and  C_3
REMARK    3  A    between atoms: C_3  and  O_4
REMARK    4  A    between atoms: O_4  and  N_5
REMARK    5  A    between atoms: C_6  and  O_7
REMARK    6  A    between atoms: O_7  and  C_8
REMARK    7  A    between atoms: C_8  and  C_9
REMARK    8  A    between atoms: C_9  and  C_10
REMARK    9  A    between atoms: C_9  and  C_11
REMARK                            x       y       z     vdW  Elec       q    Type
REMARK                         _______ _______ _______ _____ _____    ______ ____
ROOT
ATOM      1  N   UNL     1       5.574   4.674  17.668  0.00  0.00    +0.000 N 
ATOM      2  C   UNL     1       5.037   3.859  16.701  0.00  0.00    +0.000 A 
ATOM      3  N   UNL     1       3.849   3.349  16.775  0.00  0.00    +0.000 NA
ATOM      4  C   UNL     1       3.093   3.605  17.923  0.00  0.00    +0.000 A 
ATOM      5  C   UNL     1       1.826   3.034  18.022  0.00  0.00    +0.000 A 
ATOM      6  C   UNL     1       1.047   3.229  19.167  0.00  0.00    +0.000 A 
ATOM      7  C   UNL     1       1.532   4.008  20.216  0.00  0.00    +0.000 A 
ATOM      8  C   UNL     1       2.798   4.591  20.125  0.00  0.00    +0.000 A 
ATOM      9  C   UNL     1       3.575   4.381  18.981  0.00  0.00    +0.000 A 
ATOM     10  C   UNL     1       4.944   4.929  18.872  0.00  0.00    +0.000 A 
ATOM     11  O   UNL     1       5.429   5.539  19.823  0.00  0.00    +0.000 OA
ENDROOT
BRANCH   1  12
ATOM     12  O   UNL     1       6.961   4.955  17.617  0.00  0.00    +0.000 OA
BRANCH  12  13
ATOM     13  C   UNL     1       7.176   6.278  17.114  0.00  0.00    +0.000 C 
BRANCH  13  15
ATOM     14  C   UNL     1       7.996   8.589  17.803  0.00  0.00    +0.000 C 
ATOM     15  C   UNL     1       7.920   7.110  18.160  0.00  0.00    +0.000 C 
ENDBRANCH  13  15
ENDBRANCH  12  13
ENDBRANCH   1  12
BRANCH   2  16
ATOM     16  O   UNL     1       5.831   3.635  15.617  0.00  0.00    +0.000 OA
BRANCH  16  17
ATOM     17  C   UNL     1       5.487   4.332  14.398  0.00  0.00    +0.000 C 
BRANCH  17  18
ATOM     18  C   UNL     1       6.189   3.690  13.191  0.00  0.00    +0.000 C 
ATOM     19  C   UNL     1       5.173   3.319  12.110  0.00  0.00    +0.000 C 
ATOM     20  C   UNL     1       7.266   4.610  12.623  0.00  0.00    +0.000 C 
ENDBRANCH  17  18
ENDBRANCH  16  17
ENDBRANCH   2  16
TORSDOF 6
ENDMDL
MODEL 2
REMARK VINA RESULT:      -7.0      1.529      4.023
REMARK  Name = 
REMARK  9 active torsions:
REMARK  status: ('A' for Active; 'I' for Inactive)
REMARK    1  A    between atoms: C_1  and  C_2
REMARK    2  A    between atoms: C_2  and  C_3
REMARK    3  A    between atoms: C_3  and  O_4
REMARK    4  A    between atoms: O_4  and  N_5
REMARK    5  A    between atoms: C_6  and  O_7
REMARK    6  A    between atoms: O_7  and  C_8
REMARK    7  A    between atoms: C_8  and  C_9
REMARK    8  A    between atoms: C_9  and  C_10
REMARK    9  A    between atoms: C_9  and  C_11
REMARK                            x       y       z     vdW  Elec       q    Type
REMARK                         _______ _______ _______ _____ _____    ______ ____
ROOT
ATOM      1  N   UNL     1       4.453   3.872  17.439  0.00  0.00    +0.000 N 
ATOM      2  C   UNL     1       5.244   3.954  18.560  0.00  0.00    +0.000 A 
ATOM      3  N   UNL     1       4.833   3.651  19.750  0.00  0.00    +0.000 NA
ATOM      4  C   UNL     1       3.498   3.264  19.905  0.00  0.00    +0.000 A 
ATOM      5  C   UNL     1       3.041   2.966  21.187  0.00  0.00    +0.000 A 
ATOM      6  C   UNL     1       1.705   2.612  21.401  0.00  0.00    +0.000 A 
ATOM      7  C   UNL     1       0.822   2.545  20.324  0.00  0.00    +0.000 A 
ATOM      8  C   UNL     1       1.270   2.835  19.034  0.00  0.00    +0.000 A 
ATOM      9  C   UNL     1       2.606   3.200  18.833  0.00  0.00    +0.000 A 
ATOM     10  C   UNL     1       3.104   3.574  17.491  0.00  0.00    +0.000 A 
ATOM     11  O   UNL     1       2.322   3.614  16.544  0.00  0.00    +0.000 OA
ENDROOT
BRANCH   1  12
ATOM     12  O   UNL     1       4.915   4.475  16.244  0.00  0.00    +0.000 OA
BRANCH  12  13
ATOM     13  C   UNL     1       5.699   3.541  15.494  0.00  0.00    +0.000 C 
BRANCH  13  15
ATOM     14  C   UNL     1       6.209   3.590  12.999  0.00  0.00    +0.000 C 
ATOM     15  C   UNL     1       6.405   4.270  14.348  0.00  0.00    +0.000 C 
ENDBRANCH  13  15
ENDBRANCH  12  13
ENDBRANCH   1  12
BRANCH   2  16
ATOM     16  O   UNL     1       6.529   4.353  18.343  0.00  0.00    +0.000 OA
BRANCH  16  17
ATOM     17  C   UNL     1       6.930   5.616  18.922  0.00  0.00    +0.000 C 
BRANCH  17  18
ATOM     18  C   UNL     1       7.366   6.600  17.826  0.00  0.00    +0.000 C 
ATOM     19  C   UNL     1       6.147   7.219  17.139  0.00  0.00    +0.000 C 
ATOM     20  C   UNL     1       8.275   7.689  18.388  0.00  0.00    +0.000 C 
ENDBRANCH  17  18
ENDBRANCH  16  17
ENDBRANCH   2  16
TORSDOF 6
ENDMDL
MODEL 3
REMARK VINA RESULT:      -6.9      0.924      1.211
REMARK  Name = 
REMARK  9 active torsions:
REMARK  status: ('A' for Active; 'I' for Inactive)
REMARK    1  A    between atoms: C_1  and  C_2
REMARK    2  A    between atoms: C_2  and  C_3
REMARK    3  A    between atoms: C_3  and  O_4
REMARK    4  A    between atoms: O_4  and  N_5
REMARK    5  A    between atoms: C_6  and  O_7
REMARK    6  A    between atoms: O_7  and  C_8
REMARK    7  A    between atoms: C_8  and  C_9
REMARK    8  A    between atoms: C_9  and  C_10
REMARK    9  A    between atoms: C_9  and  C_11
REMARK                            x       y       z     vdW  Elec       q    Type
REMARK                         _______ _______ _______ _____ _____    ______ ____
ROOT
ATOM      1  N   UNL     1       5.896   4.882  17.431  0.00  0.00    +0.000 N 
ATOM      2  C   UNL     1       5.233   4.449  16.306  0.00  0.00    +0.000 A 
ATOM      3  N   UNL     1       4.137   3.762  16.343  0.00  0.00    +0.000 NA
ATOM      4  C   UNL     1       3.628   3.401  17.594  0.00  0.00    +0.000 A 
ATOM      5  C   UNL     1       2.466   2.634  17.638  0.00  0.00    +0.000 A 
ATOM      6  C   UNL     1       1.938   2.214  18.864  0.00  0.00    +0.000 A 
ATOM      7  C   UNL     1       2.571   2.572  20.054  0.00  0.00    +0.000 A 
ATOM      8  C   UNL     1       3.733   3.346  20.022  0.00  0.00    +0.000 A 
ATOM      9  C   UNL     1       4.259   3.751  18.790  0.00  0.00    +0.000 A 
ATOM     10  C   UNL     1       5.521   4.518  18.711  0.00  0.00    +0.000 A 
ATOM     11  O   UNL     1       6.146   4.763  19.740  0.00  0.00    +0.000 OA
ENDROOT
BRANCH   1  12
ATOM     12  O   UNL     1       7.210   5.388  17.284  0.00  0.00    +0.000 OA
BRANCH  12  13
ATOM     13  C   UNL     1       7.176   6.814  17.168  0.00  0.00    +0.000 C 
BRANCH  13  15
ATOM     14  C   UNL     1       8.276   8.930  18.064  0.00  0.00    +0.000 C 
ATOM     15  C   UNL     1       8.040   7.438  18.266  0.00  0.00    +0.000 C 
ENDBRANCH  13  15
ENDBRANCH  12  13
ENDBRANCH   1  12
BRANCH   2  16
ATOM     16  O   UNL     1       5.791   4.820  15.120  0.00  0.00    +0.000 OA
BRANCH  16  17
ATOM     17  C   UNL     1       6.322   3.765  14.287  0.00  0.00    +0.000 C 
BRANCH  17  18
ATOM     18  C   UNL     1       6.145   4.108  12.800  0.00  0.00    +0.000 C 
ATOM     19  C   UNL     1       7.452   4.638  12.209  0.00  0.00    +0.000 C 
ATOM     20  C   UNL     1       5.648   2.901  12.008  0.00  0.00    +0.000 C 
ENDBRANCH  17  18
ENDBRANCH  16  17
ENDBRANCH   2  16
TORSDOF 6
ENDMDL
MODEL 4
REMARK VINA RESULT:      -6.7      1.318      1.342
REMARK  Name = 
REMARK  9 active torsions:
REMARK  status: ('A' for Active; 'I' for Inactive)
REMARK    1  A    between atoms: C_1  and  C_2
REMARK    2  A    between atoms: C_2  and  C_3
REMARK    3  A    between atoms: C_3  and  O_4
REMARK    4  A    between atoms: O_4  and  N_5
REMARK    5  A    between atoms: C_6  and  O_7
REMARK    6  A    between atoms: O_7  and  C_8
REMARK    7  A    between atoms: C_8  and  C_9
REMARK    8  A    between atoms: C_9  and  C_10
REMARK    9  A    between atoms: C_9  and  C_11
REMARK                            x       y       z     vdW  Elec       q    Type
REMARK                         _______ _______ _______ _____ _____    ______ ____
ROOT
ATOM      1  N   UNL     1       6.287   5.349  17.460  0.00  0.00    +0.000 N 
ATOM      2  C   UNL     1       5.646   4.908  16.327  0.00  0.00    +0.000 A 
ATOM      3  N   UNL     1       4.632   4.103  16.347  0.00  0.00    +0.000 NA
ATOM      4  C   UNL     1       4.199   3.620  17.586  0.00  0.00    +0.000 A 
ATOM      5  C   UNL     1       3.129   2.729  17.610  0.00  0.00    +0.000 A 
ATOM      6  C   UNL     1       2.683   2.188  18.821  0.00  0.00    +0.000 A 
ATOM      7  C   UNL     1       3.304   2.548  20.016  0.00  0.00    +0.000 A 
ATOM      8  C   UNL     1       4.374   3.446  20.004  0.00  0.00    +0.000 A 
ATOM      9  C   UNL     1       4.820   3.973  18.786  0.00  0.00    +0.000 A 
ATOM     10  C   UNL     1       5.988   4.878  18.725  0.00  0.00    +0.000 A 
ATOM     11  O   UNL     1       6.610   5.134  19.753  0.00  0.00    +0.000 OA
ENDROOT
BRANCH   1  12
ATOM     12  O   UNL     1       7.533   6.005  17.316  0.00  0.00    +0.000 OA
BRANCH  12  13
ATOM     13  C   UNL     1       7.351   7.423  17.370  0.00  0.00    +0.000 C 
BRANCH  13  15
ATOM     14  C   UNL     1       8.515   9.522  18.225  0.00  0.00    +0.000 C 
ATOM     15  C   UNL     1       8.307   8.023  18.404  0.00  0.00    +0.000 C 
ENDBRANCH  13  15
ENDBRANCH  12  13
ENDBRANCH   1  12
BRANCH   2  16
ATOM     16  O   UNL     1       6.127   5.402  15.152  0.00  0.00    +0.000 OA
BRANCH  16  17
ATOM     17  C   UNL     1       5.633   4.797  13.936  0.00  0.00    +0.000 C 
BRANCH  17  18
ATOM     18  C   UNL     1       6.773   4.105  13.174  0.00  0.00    +0.000 C 
ATOM     19  C   UNL     1       6.217   3.207  12.068  0.00  0.00    +0.000 C 
ATOM     20  C   UNL     1       7.753   5.123  12.596  0.00  0.00    +0.000 C 
ENDBRANCH  17  18
ENDBRANCH  16  17
ENDBRANCH   2  16
TORSDOF 6
ENDMDL
MODEL 5
REMARK VINA RESULT:      -6.7      1.535      1.839
REMARK  Name = 
REMARK  9 active torsions:
REMARK  status: ('A' for Active; 'I' for Inactive)
REMARK    1  A    between atoms: C_1  and  C_2
REMARK    2  A    between atoms: C_2  and  C_3
REMARK    3  A    between atoms: C_3  and  O_4
REMARK    4  A    between atoms: O_4  and  N_5
REMARK    5  A    between atoms: C_6  and  O_7
REMARK    6  A    between atoms: O_7  and  C_8
REMARK    7  A    between atoms: C_8  and  C_9
REMARK    8  A    between atoms: C_9  and  C_10
REMARK    9  A    between atoms: C_9  and  C_11
REMARK                            x       y       z     vdW  Elec       q    Type
REMARK                         _______ _______ _______ _____ _____    ______ ____
ROOT
ATOM      1  N   UNL     1       4.226   5.421  17.182  0.00  0.00    +0.000 N 
ATOM      2  C   UNL     1       4.796   4.172  17.229  0.00  0.00    +0.000 A 
ATOM      3  N   UNL     1       4.338   3.204  17.956  0.00  0.00    +0.000 NA
ATOM      4  C   UNL     1       3.232   3.460  18.772  0.00  0.00    +0.000 A 
ATOM      5  C   UNL     1       2.753   2.431  19.579  0.00  0.00    +0.000 A 
ATOM      6  C   UNL     1       1.674   2.649  20.442  0.00  0.00    +0.000 A 
ATOM      7  C   UNL     1       1.061   3.900  20.490  0.00  0.00    +0.000 A 
ATOM      8  C   UNL     1       1.529   4.938  19.680  0.00  0.00    +0.000 A 
ATOM      9  C   UNL     1       2.616   4.713  18.829  0.00  0.00    +0.000 A 
ATOM     10  C   UNL     1       3.179   5.801  18.002  0.00  0.00    +0.000 A 
ATOM     11  O   UNL     1       2.717   6.936  18.098  0.00  0.00    +0.000 OA
ENDROOT
BRANCH   1  12
ATOM     12  O   UNL     1       4.954   6.470  16.570  0.00  0.00    +0.000 OA
BRANCH  12  13
ATOM     13  C   UNL     1       5.670   7.214  17.562  0.00  0.00    +0.000 C 
BRANCH  13  15
ATOM     14  C   UNL     1       7.777   6.243  18.615  0.00  0.00    +0.000 C 
ATOM     15  C   UNL     1       7.171   6.954  17.411  0.00  0.00    +0.000 C 
ENDBRANCH  13  15
ENDBRANCH  12  13
ENDBRANCH   1  12
BRANCH   2  16
ATOM     16  O   UNL     1       5.881   3.992  16.424  0.00  0.00    +0.000 OA
BRANCH  16  17
ATOM     17  C   UNL     1       5.662   3.297  15.175  0.00  0.00    +0.000 C 
BRANCH  17  18
ATOM     18  C   UNL     1       5.930   4.229  13.983  0.00  0.00    +0.000 C 
ATOM     19  C   UNL     1       7.215   5.028  14.202  0.00  0.00    +0.000 C 
ATOM     20  C   UNL     1       6.001   3.447  12.674  0.00  0.00    +0.000 C 
ENDBRANCH  17  18
ENDBRANCH  16  17
ENDBRANCH   2  16
TORSDOF 6
ENDMDL
MODEL 6
REMARK VINA RESULT:      -6.7      1.254      4.181
REMARK  Name = 
REMARK  9 active torsions:
REMARK  status: ('A' for Active; 'I' for Inactive)
REMARK    1  A    between atoms: C_1  and  C_2
REMARK    2  A    between atoms: C_2  and  C_3
REMARK    3  A    between atoms: C_3  and  O_4
REMARK    4  A    between atoms: O_4  and  N_5
REMARK    5  A    between atoms: C_6  and  O_7
REMARK    6  A    between atoms: O_7  and  C_8
REMARK    7  A    between atoms: C_8  and  C_9
REMARK    8  A    between atoms: C_9  and  C_10
REMARK    9  A    between atoms: C_9  and  C_11
REMARK                            x       y       z     vdW  Elec       q    Type
REMARK                         _______ _______ _______ _____ _____    ______ ____
ROOT
ATOM      1  N   UNL     1       4.293   4.144  17.049  0.00  0.00    +0.000 N 
ATOM      2  C   UNL     1       4.999   4.719  18.078  0.00  0.00    +0.000 A 
ATOM      3  N   UNL     1       4.583   4.744  19.304  0.00  0.00    +0.000 NA
ATOM      4  C   UNL     1       3.327   4.198  19.585  0.00  0.00    +0.000 A 
ATOM      5  C   UNL     1       2.862   4.250  20.896  0.00  0.00    +0.000 A 
ATOM      6  C   UNL     1       1.595   3.752  21.220  0.00  0.00    +0.000 A 
ATOM      7  C   UNL     1       0.793   3.188  20.229  0.00  0.00    +0.000 A 
ATOM      8  C   UNL     1       1.252   3.125  18.912  0.00  0.00    +0.000 A 
ATOM      9  C   UNL     1       2.516   3.637  18.596  0.00  0.00    +0.000 A 
ATOM     10  C   UNL     1       3.013   3.644  17.203  0.00  0.00    +0.000 A 
ATOM     11  O   UNL     1       2.285   3.240  16.298  0.00  0.00    +0.000 OA
ENDROOT
BRANCH   1  12
ATOM     12  O   UNL     1       4.707   4.404  15.720  0.00  0.00    +0.000 OA
BRANCH  12  13
ATOM     13  C   UNL     1       5.772   3.521  15.356  0.00  0.00    +0.000 C 
BRANCH  13  15
ATOM     14  C   UNL     1       6.017   3.555  12.820  0.00  0.00    +0.000 C 
ATOM     15  C   UNL     1       6.524   4.094  14.152  0.00  0.00    +0.000 C 
ENDBRANCH  13  15
ENDBRANCH  12  13
ENDBRANCH   1  12
BRANCH   2  16
ATOM     16  O   UNL     1       6.207   5.249  17.735  0.00  0.00    +0.000 OA
BRANCH  16  17
ATOM     17  C   UNL     1       6.244   6.666  17.453  0.00  0.00    +0.000 C 
BRANCH  17  18
ATOM     18  C   UNL     1       7.660   7.223  17.669  0.00  0.00    +0.000 C 
ATOM     19  C   UNL     1       7.641   8.752  17.690  0.00  0.00    +0.000 C 
ATOM     20  C   UNL     1       8.281   6.676  18.951  0.00  0.00    +0.000 C 
ENDBRANCH  17  18
ENDBRANCH  16  17
ENDBRANCH   2  16
TORSDOF 6
ENDMDL
MODEL 7
REMARK VINA RESULT:      -6.7      2.828      4.844
REMARK  Name = 
REMARK  9 active torsions:
REMARK  status: ('A' for Active; 'I' for Inactive)
REMARK    1  A    between atoms: C_1  and  C_2
REMARK    2  A    between atoms: C_2  and  C_3
REMARK    3  A    between atoms: C_3  and  O_4
REMARK    4  A    between atoms: O_4  and  N_5
REMARK    5  A    between atoms: C_6  and  O_7
REMARK    6  A    between atoms: O_7  and  C_8
REMARK    7  A    between atoms: C_8  and  C_9
REMARK    8  A    between atoms: C_9  and  C_10
REMARK    9  A    between atoms: C_9  and  C_11
REMARK                            x       y       z     vdW  Elec       q    Type
REMARK                         _______ _______ _______ _____ _____    ______ ____
ROOT
ATOM      1  N   UNL     1       3.683   5.261  18.918  0.00  0.00    +0.000 N 
ATOM      2  C   UNL     1       3.973   5.884  17.727  0.00  0.00    +0.000 A 
ATOM      3  N   UNL     1       3.545   7.065  17.416  0.00  0.00    +0.000 NA
ATOM      4  C   UNL     1       2.704   7.720  18.320  0.00  0.00    +0.000 A 
ATOM      5  C   UNL     1       2.215   8.978  17.976  0.00  0.00    +0.000 A 
ATOM      6  C   UNL     1       1.339   9.657  18.829  0.00  0.00    +0.000 A 
ATOM      7  C   UNL     1       0.957   9.080  20.040  0.00  0.00    +0.000 A 
ATOM      8  C   UNL     1       1.446   7.822  20.398  0.00  0.00    +0.000 A 
ATOM      9  C   UNL     1       2.313   7.146  19.532  0.00  0.00    +0.000 A 
ATOM     10  C   UNL     1       2.804   5.787  19.846  0.00  0.00    +0.000 A 
ATOM     11  O   UNL     1       2.406   5.219  20.861  0.00  0.00    +0.000 OA
ENDROOT
BRANCH   1  12
ATOM     12  O   UNL     1       3.975   3.882  19.044  0.00  0.00    +0.000 OA
BRANCH  12  13
ATOM     13  C   UNL     1       3.122   3.119  18.184  0.00  0.00    +0.000 C 
BRANCH  13  15
ATOM     14  C   UNL     1       0.788   2.616  19.071  0.00  0.00    +0.000 C 
ATOM     15  C   UNL     1       2.249   2.185  19.025  0.00  0.00    +0.000 C 
ENDBRANCH  13  15
ENDBRANCH  12  13
ENDBRANCH   1  12
BRANCH   2  16
ATOM     16  O   UNL     1       4.783   5.186  16.883  0.00  0.00    +0.000 OA
BRANCH  16  17
ATOM     17  C   UNL     1       5.679   5.955  16.048  0.00  0.00    +0.000 C 
BRANCH  17  18
ATOM     18  C   UNL     1       7.113   5.897  16.596  0.00  0.00    +0.000 C 
ATOM     19  C   UNL     1       7.387   7.086  17.518  0.00  0.00    +0.000 C 
ATOM     20  C   UNL     1       7.375   4.581  17.325  0.00  0.00    +0.000 C 
ENDBRANCH  17  18
ENDBRANCH  16  17
ENDBRANCH   2  16
TORSDOF 6
ENDMDL
MODEL 8
REMARK VINA RESULT:      -6.6      3.009      6.637
REMARK  Name = 
REMARK  9 active torsions:
REMARK  status: ('A' for Active; 'I' for Inactive)
REMARK    1  A    between atoms: C_1  and  C_2
REMARK    2  A    between atoms: C_2  and  C_3
REMARK    3  A    between atoms: C_3  and  O_4
REMARK    4  A    between atoms: O_4  and  N_5
REMARK    5  A    between atoms: C_6  and  O_7
REMARK    6  A    between atoms: O_7  and  C_8
REMARK    7  A    between atoms: C_8  and  C_9
REMARK    8  A    between atoms: C_9  and  C_10
REMARK    9  A    between atoms: C_9  and  C_11
REMARK                            x       y       z     vdW  Elec       q    Type
REMARK                         _______ _______ _______ _____ _____    ______ ____
ROOT
ATOM      1  N   UNL     1       3.087   5.235  19.218  0.00  0.00    +0.000 N 
ATOM      2  C   UNL     1       3.100   6.535  18.771  0.00  0.00    +0.000 A 
ATOM      3  N   UNL     1       3.702   6.912  17.688  0.00  0.00    +0.000 NA
ATOM      4  C   UNL     1       4.415   5.954  16.963  0.00  0.00    +0.000 A 
ATOM      5  C   UNL     1       5.090   6.361  15.814  0.00  0.00    +0.000 A 
ATOM      6  C   UNL     1       5.849   5.447  15.076  0.00  0.00    +0.000 A 
ATOM      7  C   UNL     1       5.926   4.116  15.481  0.00  0.00    +0.000 A 
ATOM      8  C   UNL     1       5.249   3.695  16.628  0.00  0.00    +0.000 A 
ATOM      9  C   UNL     1       4.501   4.619  17.366  0.00  0.00    +0.000 A 
ATOM     10  C   UNL     1       3.820   4.227  18.619  0.00  0.00    +0.000 A 
ATOM     11  O   UNL     1       3.952   3.082  19.047  0.00  0.00    +0.000 OA
ENDROOT
BRANCH   1  12
ATOM     12  O   UNL     1       2.634   4.981  20.535  0.00  0.00    +0.000 OA
BRANCH  12  13
ATOM     13  C   UNL     1       1.229   4.710  20.527  0.00  0.00    +0.000 C 
BRANCH  13  15
ATOM     14  C   UNL     1       1.709   2.553  21.795  0.00  0.00    +0.000 C 
ATOM     15  C   UNL     1       0.998   3.199  20.612  0.00  0.00    +0.000 C 
ENDBRANCH  13  15
ENDBRANCH  12  13
ENDBRANCH   1  12
BRANCH   2  16
ATOM     16  O   UNL     1       2.401   7.422  19.532  0.00  0.00    +0.000 OA
BRANCH  16  17
ATOM     17  C   UNL     1       1.849   8.574  18.854  0.00  0.00    +0.000 C 
BRANCH  17  18
ATOM     18  C   UNL     1       1.053   9.449  19.835  0.00  0.00    +0.000 C 
ATOM     19  C   UNL     1      -0.212   9.992  19.170  0.00  0.00    +0.000 C 
ATOM     20  C   UNL     1       0.703   8.679  21.106  0.00  0.00    +0.000 C 
ENDBRANCH  17  18
ENDBRANCH  16  17
ENDBRANCH   2  16
TORSDOF 6
ENDMDL
MODEL 9
REMARK VINA RESULT:      -6.6      1.419      1.672
REMARK  Name = 
REMARK  9 active torsions:
REMARK  status: ('A' for Active; 'I' for Inactive)
REMARK    1  A    between atoms: C_1  and  C_2
REMARK    2  A    between atoms: C_2  and  C_3
REMARK    3  A    between atoms: C_3  and  O_4
REMARK    4  A    between atoms: O_4  and  N_5
REMARK    5  A    between atoms: C_6  and  O_7
REMARK    6  A    between atoms: O_7  and  C_8
REMARK    7  A    between atoms: C_8  and  C_9
REMARK    8  A    between atoms: C_9  and  C_10
REMARK    9  A    between atoms: C_9  and  C_11
REMARK                            x       y       z     vdW  Elec       q    Type
REMARK                         _______ _______ _______ _____ _____    ______ ____
ROOT
ATOM      1  N   UNL     1       4.956   5.970  16.477  0.00  0.00    +0.000 N 
ATOM      2  C   UNL     1       5.254   4.717  15.999  0.00  0.00    +0.000 A 
ATOM      3  N   UNL     1       4.572   3.657  16.297  0.00  0.00    +0.000 NA
ATOM      4  C   UNL     1       3.505   3.791  17.191  0.00  0.00    +0.000 A 
ATOM      5  C   UNL     1       2.788   2.649  17.539  0.00  0.00    +0.000 A 
ATOM      6  C   UNL     1       1.737   2.724  18.460  0.00  0.00    +0.000 A 
ATOM      7  C   UNL     1       1.393   3.951  19.027  0.00  0.00    +0.000 A 
ATOM      8  C   UNL     1       2.102   5.103  18.680  0.00  0.00    +0.000 A 
ATOM      9  C   UNL     1       3.159   5.016  17.768  0.00  0.00    +0.000 A 
ATOM     10  C   UNL     1       3.973   6.201  17.421  0.00  0.00    +0.000 A 
ATOM     11  O   UNL     1       3.750   7.272  17.981  0.00  0.00    +0.000 OA
ENDROOT
BRANCH   1  12
ATOM     12  O   UNL     1       5.912   7.001  16.306  0.00  0.00    +0.000 OA
BRANCH  12  13
ATOM     13  C   UNL     1       6.863   6.970  17.376  0.00  0.00    +0.000 C 
BRANCH  13  15
ATOM     14  C   UNL     1       8.585   8.388  18.606  0.00  0.00    +0.000 C 
ATOM     15  C   UNL     1       7.549   8.334  17.490  0.00  0.00    +0.000 C 
ENDBRANCH  13  15
ENDBRANCH  12  13
ENDBRANCH   1  12
BRANCH   2  16
ATOM     16  O   UNL     1       6.315   4.652  15.146  0.00  0.00    +0.000 OA
BRANCH  16  17
ATOM     17  C   UNL     1       6.325   3.564  14.195  0.00  0.00    +0.000 C 
BRANCH  17  18
ATOM     18  C   UNL     1       6.032   4.081  12.778  0.00  0.00    +0.000 C 
ATOM     19  C   UNL     1       7.332   4.422  12.048  0.00  0.00    +0.000 C 
ATOM     20  C   UNL     1       5.216   3.070  11.977  0.00  0.00    +0.000 C 
ENDBRANCH  17  18
ENDBRANCH  16  17
ENDBRANCH   2  16
TORSDOF 6
ENDMDL
