MODEL 1
REMARK VINA RESULT:      -8.2      0.000      0.000
REMARK  Name = 
REMARK  2 active torsions:
REMARK  status: ('A' for Active; 'I' for Inactive)
REMARK    1  A    between atoms: C_2  and  C_5
REMARK    2  A    between atoms: N_3  and  O_4
REMARK                            x       y       z     vdW  Elec       q    Type
REMARK                         _______ _______ _______ _____ _____    ______ ____
ROOT
ATOM      1  C   UNL     1       3.397   3.880  17.814  0.00  0.00    +0.000 C 
ATOM      2  C   UNL     1       4.547   4.465  16.979  0.00  0.00    +0.000 A 
ATOM      3  C   UNL     1       5.507   3.636  16.369  0.00  0.00    +0.000 A 
ATOM      4  C   UNL     1       6.568   4.179  15.645  0.00  0.00    +0.000 A 
ATOM      5  C   UNL     1       6.663   5.556  15.477  0.00  0.00    +0.000 A 
ATOM      6  C   UNL     1       5.691   6.388  16.026  0.00  0.00    +0.000 A 
ATOM      7  C   UNL     1       4.634   5.856  16.781  0.00  0.00    +0.000 A 
ATOM      8  C   UNL     1       3.570   6.775  17.325  0.00  0.00    +0.000 C 
ATOM      9  C   UNL     1       2.917   6.261  18.584  0.00  0.00    +0.000 A 
ATOM     10  C   UNL     1       2.366   7.177  19.496  0.00  0.00    +0.000 A 
ATOM     11  C   UNL     1       1.721   6.728  20.645  0.00  0.00    +0.000 A 
ATOM     12  C   UNL     1       1.585   5.364  20.875  0.00  0.00    +0.000 A 
ATOM     13  C   UNL     1       2.104   4.444  19.962  0.00  0.00    +0.000 A 
ATOM     14  C   UNL     1       2.808   4.875  18.822  0.00  0.00    +0.000 A 
ENDROOT
BRANCH   1  16
ATOM     15  O   UNL     1       3.322   1.469  18.197  0.00  0.00    +0.000 OA
ATOM     16  C   UNL     1       3.816   2.562  18.485  0.00  0.00    +0.000 C 
ATOM     17  N   UNL     1       4.823   2.663  19.419  0.00  0.00    +0.000 N 
ATOM     18  H   UNL     1       5.066   3.535  19.880  0.00  0.00    +0.000 HD
BRANCH  17  19
ATOM     19  O   UNL     1       5.220   1.459  20.042  0.00  0.00    +0.000 OA
ATOM     20  H   UNL     1       4.386   1.158  20.464  0.00  0.00    +0.000 HD
ENDBRANCH  17  19
ENDBRANCH   1  16
TORSDOF 2
ENDMDL
MODEL 2
REMARK VINA RESULT:      -7.7      0.896      1.084
REMARK  Name = 
REMARK  2 active torsions:
REMARK  status: ('A' for Active; 'I' for Inactive)
REMARK    1  A    between atoms: C_2  and  C_5
REMARK    2  A    between atoms: N_3  and  O_4
REMARK                            x       y       z     vdW  Elec       q    Type
REMARK                         _______ _______ _______ _____ _____    ______ ____
ROOT
ATOM      1  C   UNL     1       3.751   4.144  17.989  0.00  0.00    +0.000 C 
ATOM      2  C   UNL     1       4.971   4.856  17.382  0.00  0.00    +0.000 A 
ATOM      3  C   UNL     1       6.070   4.134  16.882  0.00  0.00    +0.000 A 
ATOM      4  C   UNL     1       7.188   4.792  16.368  0.00  0.00    +0.000 A 
ATOM      5  C   UNL     1       7.206   6.180  16.299  0.00  0.00    +0.000 A 
ATOM      6  C   UNL     1       6.104   6.910  16.736  0.00  0.00    +0.000 A 
ATOM      7  C   UNL     1       4.985   6.261  17.282  0.00  0.00    +0.000 A 
ATOM      8  C   UNL     1       3.787   7.071  17.705  0.00  0.00    +0.000 C 
ATOM      9  C   UNL     1       2.987   6.431  18.813  0.00  0.00    +0.000 A 
ATOM     10  C   UNL     1       2.238   7.244  19.679  0.00  0.00    +0.000 A 
ATOM     11  C   UNL     1       1.459   6.677  20.684  0.00  0.00    +0.000 A 
ATOM     12  C   UNL     1       1.389   5.295  20.808  0.00  0.00    +0.000 A 
ATOM     13  C   UNL     1       2.107   4.475  19.935  0.00  0.00    +0.000 A 
ATOM     14  C   UNL     1       2.944   5.027  18.948  0.00  0.00    +0.000 A 
ENDROOT
BRANCH   1  16
ATOM     15  O   UNL     1       4.780   2.737  19.699  0.00  0.00    +0.000 OA
ATOM     16  C   UNL     1       4.157   2.811  18.638  0.00  0.00    +0.000 C 
ATOM     17  N   UNL     1       3.746   1.676  17.975  0.00  0.00    +0.000 N 
ATOM     18  H   UNL     1       3.482   1.672  16.993  0.00  0.00    +0.000 HD
BRANCH  17  19
ATOM     19  O   UNL     1       4.110   0.443  18.561  0.00  0.00    +0.000 OA
ATOM     20  H   UNL     1       4.547  -0.020  17.813  0.00  0.00    +0.000 HD
ENDBRANCH  17  19
ENDBRANCH   1  16
TORSDOF 2
ENDMDL
MODEL 3
REMARK VINA RESULT:      -7.7      2.766      5.123
REMARK  Name = 
REMARK  2 active torsions:
REMARK  status: ('A' for Active; 'I' for Inactive)
REMARK    1  A    between atoms: C_2  and  C_5
REMARK    2  A    between atoms: N_3  and  O_4
REMARK                            x       y       z     vdW  Elec       q    Type
REMARK                         _______ _______ _______ _____ _____    ______ ____
ROOT
ATOM      1  C   UNL     1       3.019   5.739  17.700  0.00  0.00    +0.000 C 
ATOM      2  C   UNL     1       2.547   4.353  18.170  0.00  0.00    +0.000 A 
ATOM      3  C   UNL     1       1.340   4.187  18.873  0.00  0.00    +0.000 A 
ATOM      4  C   UNL     1       0.940   2.930  19.327  0.00  0.00    +0.000 A 
ATOM      5  C   UNL     1       1.714   1.810  19.045  0.00  0.00    +0.000 A 
ATOM      6  C   UNL     1       2.884   1.947  18.302  0.00  0.00    +0.000 A 
ATOM      7  C   UNL     1       3.312   3.211  17.864  0.00  0.00    +0.000 A 
ATOM      8  C   UNL     1       4.557   3.325  17.022  0.00  0.00    +0.000 C 
ATOM      9  C   UNL     1       5.260   4.652  17.164  0.00  0.00    +0.000 A 
ATOM     10  C   UNL     1       6.645   4.724  16.936  0.00  0.00    +0.000 A 
ATOM     11  C   UNL     1       7.312   5.944  17.021  0.00  0.00    +0.000 A 
ATOM     12  C   UNL     1       6.599   7.105  17.294  0.00  0.00    +0.000 A 
ATOM     13  C   UNL     1       5.219   7.050  17.495  0.00  0.00    +0.000 A 
ATOM     14  C   UNL     1       4.533   5.821  17.469  0.00  0.00    +0.000 A 
ENDROOT
BRANCH   1  16
ATOM     15  O   UNL     1       1.980   7.878  18.256  0.00  0.00    +0.000 OA
ATOM     16  C   UNL     1       2.520   6.842  18.648  0.00  0.00    +0.000 C 
ATOM     17  N   UNL     1       2.679   6.588  19.992  0.00  0.00    +0.000 N 
ATOM     18  H   UNL     1       3.340   5.906  20.354  0.00  0.00    +0.000 HD
BRANCH  17  19
ATOM     19  O   UNL     1       2.223   7.592  20.876  0.00  0.00    +0.000 OA
ATOM     20  H   UNL     1       1.381   7.209  21.208  0.00  0.00    +0.000 HD
ENDBRANCH  17  19
ENDBRANCH   1  16
TORSDOF 2
ENDMDL
MODEL 4
REMARK VINA RESULT:      -7.5      0.889      4.384
REMARK  Name = 
REMARK  2 active torsions:
REMARK  status: ('A' for Active; 'I' for Inactive)
REMARK    1  A    between atoms: C_2  and  C_5
REMARK    2  A    between atoms: N_3  and  O_4
REMARK                            x       y       z     vdW  Elec       q    Type
REMARK                         _______ _______ _______ _____ _____    ______ ____
ROOT
ATOM      1  C   UNL     1       4.733   4.537  18.657  0.00  0.00    +0.000 C 
ATOM      2  C   UNL     1       3.611   5.467  19.147  0.00  0.00    +0.000 A 
ATOM      3  C   UNL     1       2.819   5.138  20.262  0.00  0.00    +0.000 A 
ATOM      4  C   UNL     1       1.779   5.971  20.675  0.00  0.00    +0.000 A 
ATOM      5  C   UNL     1       1.545   7.171  20.014  0.00  0.00    +0.000 A 
ATOM      6  C   UNL     1       2.356   7.541  18.944  0.00  0.00    +0.000 A 
ATOM      7  C   UNL     1       3.387   6.697  18.500  0.00  0.00    +0.000 A 
ATOM      8  C   UNL     1       4.279   7.142  17.369  0.00  0.00    +0.000 C 
ATOM      9  C   UNL     1       4.859   5.999  16.574  0.00  0.00    +0.000 A 
ATOM     10  C   UNL     1       5.208   6.205  15.229  0.00  0.00    +0.000 A 
ATOM     11  C   UNL     1       5.782   5.178  14.483  0.00  0.00    +0.000 A 
ATOM     12  C   UNL     1       6.050   3.954  15.083  0.00  0.00    +0.000 A 
ATOM     13  C   UNL     1       5.733   3.746  16.426  0.00  0.00    +0.000 A 
ATOM     14  C   UNL     1       5.101   4.750  17.184  0.00  0.00    +0.000 A 
ENDROOT
BRANCH   1  16
ATOM     15  O   UNL     1       3.445   2.471  18.464  0.00  0.00    +0.000 OA
ATOM     16  C   UNL     1       4.403   3.067  18.961  0.00  0.00    +0.000 C 
ATOM     17  N   UNL     1       5.277   2.424  19.809  0.00  0.00    +0.000 N 
ATOM     18  H   UNL     1       5.900   2.917  20.443  0.00  0.00    +0.000 HD
BRANCH  17  19
ATOM     19  O   UNL     1       4.987   1.070  20.096  0.00  0.00    +0.000 OA
ATOM     20  H   UNL     1       5.031   0.656  19.206  0.00  0.00    +0.000 HD
ENDBRANCH  17  19
ENDBRANCH   1  16
TORSDOF 2
ENDMDL
MODEL 5
REMARK VINA RESULT:      -7.4      2.875      3.858
REMARK  Name = 
REMARK  2 active torsions:
REMARK  status: ('A' for Active; 'I' for Inactive)
REMARK    1  A    between atoms: C_2  and  C_5
REMARK    2  A    between atoms: N_3  and  O_4
REMARK                            x       y       z     vdW  Elec       q    Type
REMARK                         _______ _______ _______ _____ _____    ______ ____
ROOT
ATOM      1  C   UNL     1       3.346   5.631  18.900  0.00  0.00    +0.000 C 
ATOM      2  C   UNL     1       4.138   5.594  17.582  0.00  0.00    +0.000 A 
ATOM      3  C   UNL     1       4.578   6.775  16.956  0.00  0.00    +0.000 A 
ATOM      4  C   UNL     1       5.263   6.731  15.742  0.00  0.00    +0.000 A 
ATOM      5  C   UNL     1       5.564   5.507  15.156  0.00  0.00    +0.000 A 
ATOM      6  C   UNL     1       5.186   4.326  15.790  0.00  0.00    +0.000 A 
ATOM      7  C   UNL     1       4.470   4.357  16.998  0.00  0.00    +0.000 A 
ATOM      8  C   UNL     1       4.114   3.064  17.686  0.00  0.00    +0.000 C 
ATOM      9  C   UNL     1       2.868   3.156  18.532  0.00  0.00    +0.000 A 
ATOM     10  C   UNL     1       2.104   1.999  18.758  0.00  0.00    +0.000 A 
ATOM     11  C   UNL     1       0.972   2.047  19.567  0.00  0.00    +0.000 A 
ATOM     12  C   UNL     1       0.616   3.237  20.189  0.00  0.00    +0.000 A 
ATOM     13  C   UNL     1       1.383   4.387  19.995  0.00  0.00    +0.000 A 
ATOM     14  C   UNL     1       2.499   4.375  19.137  0.00  0.00    +0.000 A 
ENDROOT
BRANCH   1  16
ATOM     15  O   UNL     1       2.009   7.481  18.031  0.00  0.00    +0.000 OA
ATOM     16  C   UNL     1       2.512   6.918  19.006  0.00  0.00    +0.000 C 
ATOM     17  N   UNL     1       2.318   7.398  20.282  0.00  0.00    +0.000 N 
ATOM     18  H   UNL     1       2.912   7.145  21.066  0.00  0.00    +0.000 HD
BRANCH  17  19
ATOM     19  O   UNL     1       1.550   8.579  20.395  0.00  0.00    +0.000 OA
ATOM     20  H   UNL     1       1.260   8.548  21.333  0.00  0.00    +0.000 HD
ENDBRANCH  17  19
ENDBRANCH   1  16
TORSDOF 2
ENDMDL
MODEL 6
REMARK VINA RESULT:      -7.2      2.950      5.556
REMARK  Name = 
REMARK  2 active torsions:
REMARK  status: ('A' for Active; 'I' for Inactive)
REMARK    1  A    between atoms: C_2  and  C_5
REMARK    2  A    between atoms: N_3  and  O_4
REMARK                            x       y       z     vdW  Elec       q    Type
REMARK                         _______ _______ _______ _____ _____    ______ ____
ROOT
ATOM      1  C   UNL     1       2.621   5.678  17.886  0.00  0.00    +0.000 C 
ATOM      2  C   UNL     1       2.247   4.498  18.798  0.00  0.00    +0.000 A 
ATOM      3  C   UNL     1       1.293   4.635  19.822  0.00  0.00    +0.000 A 
ATOM      4  C   UNL     1       0.988   3.568  20.668  0.00  0.00    +0.000 A 
ATOM      5  C   UNL     1       1.596   2.332  20.474  0.00  0.00    +0.000 A 
ATOM      6  C   UNL     1       2.501   2.162  19.430  0.00  0.00    +0.000 A 
ATOM      7  C   UNL     1       2.837   3.237  18.590  0.00  0.00    +0.000 A 
ATOM      8  C   UNL     1       3.784   3.014  17.439  0.00  0.00    +0.000 C 
ATOM      9  C   UNL     1       4.557   4.249  17.047  0.00  0.00    +0.000 A 
ATOM     10  C   UNL     1       5.815   4.109  16.439  0.00  0.00    +0.000 A 
ATOM     11  C   UNL     1       6.531   5.232  16.030  0.00  0.00    +0.000 A 
ATOM     12  C   UNL     1       5.982   6.498  16.188  0.00  0.00    +0.000 A 
ATOM     13  C   UNL     1       4.720   6.648  16.766  0.00  0.00    +0.000 A 
ATOM     14  C   UNL     1       4.003   5.533  17.237  0.00  0.00    +0.000 A 
ENDROOT
BRANCH   1  16
ATOM     15  O   UNL     1       2.878   7.204  19.776  0.00  0.00    +0.000 OA
ATOM     16  C   UNL     1       2.471   7.017  18.627  0.00  0.00    +0.000 C 
ATOM     17  N   UNL     1       1.879   8.032  17.909  0.00  0.00    +0.000 N 
ATOM     18  H   UNL     1       1.297   7.867  17.092  0.00  0.00    +0.000 HD
BRANCH  17  19
ATOM     19  O   UNL     1       1.737   9.269  18.577  0.00  0.00    +0.000 OA
ATOM     20  H   UNL     1       0.768   9.310  18.732  0.00  0.00    +0.000 HD
ENDBRANCH  17  19
ENDBRANCH   1  16
TORSDOF 2
ENDMDL
MODEL 7
REMARK VINA RESULT:      -7.0      3.026      5.424
REMARK  Name = 
REMARK  2 active torsions:
REMARK  status: ('A' for Active; 'I' for Inactive)
REMARK    1  A    between atoms: C_2  and  C_5
REMARK    2  A    between atoms: N_3  and  O_4
REMARK                            x       y       z     vdW  Elec       q    Type
REMARK                         _______ _______ _______ _____ _____    ______ ____
ROOT
ATOM      1  C   UNL     1       3.072   5.656  18.252  0.00  0.00    +0.000 C 
ATOM      2  C   UNL     1       2.723   4.587  19.300  0.00  0.00    +0.000 A 
ATOM      3  C   UNL     1       1.497   4.606  19.990  0.00  0.00    +0.000 A 
ATOM      4  C   UNL     1       1.206   3.653  20.965  0.00  0.00    +0.000 A 
ATOM      5  C   UNL     1       2.114   2.635  21.235  0.00  0.00    +0.000 A 
ATOM      6  C   UNL     1       3.308   2.566  20.523  0.00  0.00    +0.000 A 
ATOM      7  C   UNL     1       3.626   3.537  19.559  0.00  0.00    +0.000 A 
ATOM      8  C   UNL     1       4.904   3.414  18.769  0.00  0.00    +0.000 C 
ATOM      9  C   UNL     1       5.449   4.738  18.295  0.00  0.00    +0.000 A 
ATOM     10  C   UNL     1       6.829   4.874  18.072  0.00  0.00    +0.000 A 
ATOM     11  C   UNL     1       7.353   6.072  17.595  0.00  0.00    +0.000 A 
ATOM     12  C   UNL     1       6.503   7.130  17.299  0.00  0.00    +0.000 A 
ATOM     13  C   UNL     1       5.126   6.998  17.490  0.00  0.00    +0.000 A 
ATOM     14  C   UNL     1       4.580   5.816  18.023  0.00  0.00    +0.000 A 
ENDROOT
BRANCH   1  16
ATOM     15  O   UNL     1       1.878   7.723  17.734  0.00  0.00    +0.000 OA
ATOM     16  C   UNL     1       2.396   6.996  18.585  0.00  0.00    +0.000 C 
ATOM     17  N   UNL     1       2.363   7.331  19.920  0.00  0.00    +0.000 N 
ATOM     18  H   UNL     1       2.990   6.926  20.610  0.00  0.00    +0.000 HD
BRANCH  17  19
ATOM     19  O   UNL     1       1.742   8.559  20.242  0.00  0.00    +0.000 OA
ATOM     20  H   UNL     1       0.963   8.267  20.763  0.00  0.00    +0.000 HD
ENDBRANCH  17  19
ENDBRANCH   1  16
TORSDOF 2
ENDMDL
MODEL 8
REMARK VINA RESULT:      -6.9      2.950      3.745
REMARK  Name = 
REMARK  2 active torsions:
REMARK  status: ('A' for Active; 'I' for Inactive)
REMARK    1  A    between atoms: C_2  and  C_5
REMARK    2  A    between atoms: N_3  and  O_4
REMARK                            x       y       z     vdW  Elec       q    Type
REMARK                         _______ _______ _______ _____ _____    ______ ____
ROOT
ATOM      1  C   UNL     1       6.248   5.145  17.450  0.00  0.00    +0.000 C 
ATOM      2  C   UNL     1       6.327   4.791  15.956  0.00  0.00    +0.000 A 
ATOM      3  C   UNL     1       7.422   5.185  15.165  0.00  0.00    +0.000 A 
ATOM      4  C   UNL     1       7.466   4.891  13.802  0.00  0.00    +0.000 A 
ATOM      5  C   UNL     1       6.442   4.156  13.216  0.00  0.00    +0.000 A 
ATOM      6  C   UNL     1       5.378   3.709  13.994  0.00  0.00    +0.000 A 
ATOM      7  C   UNL     1       5.308   4.023  15.361  0.00  0.00    +0.000 A 
ATOM      8  C   UNL     1       4.169   3.487  16.191  0.00  0.00    +0.000 C 
ATOM      9  C   UNL     1       3.826   4.357  17.375  0.00  0.00    +0.000 A 
ATOM     10  C   UNL     1       2.517   4.338  17.886  0.00  0.00    +0.000 A 
ATOM     11  C   UNL     1       2.183   5.100  19.002  0.00  0.00    +0.000 A 
ATOM     12  C   UNL     1       3.159   5.854  19.642  0.00  0.00    +0.000 A 
ATOM     13  C   UNL     1       4.469   5.859  19.161  0.00  0.00    +0.000 A 
ATOM     14  C   UNL     1       4.817   5.141  18.002  0.00  0.00    +0.000 A 
ENDROOT
BRANCH   1  16
ATOM     15  O   UNL     1       6.697   7.530  17.185  0.00  0.00    +0.000 OA
ATOM     16  C   UNL     1       6.975   6.467  17.743  0.00  0.00    +0.000 C 
ATOM     17  N   UNL     1       7.949   6.407  18.714  0.00  0.00    +0.000 N 
ATOM     18  H   UNL     1       8.396   5.540  19.000  0.00  0.00    +0.000 HD
BRANCH  17  19
ATOM     19  O   UNL     1       8.625   7.616  18.996  0.00  0.00    +0.000 OA
ATOM     20  H   UNL     1       7.923   8.286  18.841  0.00  0.00    +0.000 HD
ENDBRANCH  17  19
ENDBRANCH   1  16
TORSDOF 2
ENDMDL
MODEL 9
REMARK VINA RESULT:      -6.9      1.160      1.359
REMARK  Name = 
REMARK  2 active torsions:
REMARK  status: ('A' for Active; 'I' for Inactive)
REMARK    1  A    between atoms: C_2  and  C_5
REMARK    2  A    between atoms: N_3  and  O_4
REMARK                            x       y       z     vdW  Elec       q    Type
REMARK                         _______ _______ _______ _____ _____    ______ ____
ROOT
ATOM      1  C   UNL     1       2.739   4.485  18.050  0.00  0.00    +0.000 C 
ATOM      2  C   UNL     1       3.961   4.844  17.189  0.00  0.00    +0.000 A 
ATOM      3  C   UNL     1       4.775   3.849  16.617  0.00  0.00    +0.000 A 
ATOM      4  C   UNL     1       5.903   4.186  15.869  0.00  0.00    +0.000 A 
ATOM      5  C   UNL     1       6.210   5.522  15.638  0.00  0.00    +0.000 A 
ATOM      6  C   UNL     1       5.385   6.520  16.149  0.00  0.00    +0.000 A 
ATOM      7  C   UNL     1       4.263   6.194  16.928  0.00  0.00    +0.000 A 
ATOM      8  C   UNL     1       3.360   7.292  17.430  0.00  0.00    +0.000 C 
ATOM      9  C   UNL     1       2.644   6.944  18.711  0.00  0.00    +0.000 A 
ATOM     10  C   UNL     1       2.249   7.975  19.580  0.00  0.00    +0.000 A 
ATOM     11  C   UNL     1       1.551   7.684  20.749  0.00  0.00    +0.000 A 
ATOM     12  C   UNL     1       1.205   6.371  21.040  0.00  0.00    +0.000 A 
ATOM     13  C   UNL     1       1.567   5.341  20.170  0.00  0.00    +0.000 A 
ATOM     14  C   UNL     1       2.321   5.604  19.012  0.00  0.00    +0.000 A 
ENDROOT
BRANCH   1  16
ATOM     15  O   UNL     1       3.810   2.981  19.649  0.00  0.00    +0.000 OA
ATOM     16  C   UNL     1       2.952   3.149  18.780  0.00  0.00    +0.000 C 
ATOM     17  N   UNL     1       2.087   2.136  18.431  0.00  0.00    +0.000 N 
ATOM     18  H   UNL     1       1.562   2.129  17.561  0.00  0.00    +0.000 HD
BRANCH  17  19
ATOM     19  O   UNL     1       2.269   0.902  19.095  0.00  0.00    +0.000 OA
ATOM     20  H   UNL     1       3.247   0.838  19.148  0.00  0.00    +0.000 HD
ENDBRANCH  17  19
ENDBRANCH   1  16
TORSDOF 2
ENDMDL
