MODEL 1
REMARK VINA RESULT:      -7.1      0.000      0.000
REMARK  Name = 
REMARK  2 active torsions:
REMARK  status: ('A' for Active; 'I' for Inactive)
REMARK    1  A    between atoms: C_4  and  C_5
REMARK    2  A    between atoms: C_7  and  C_8
REMARK                            x       y       z     vdW  Elec       q    Type
REMARK                         _______ _______ _______ _____ _____    ______ ____
ROOT
ATOM      1  C   UNL     1       6.078   4.494  15.934  0.00  0.00    +0.000 A 
ATOM      2  N   UNL     1       4.836   4.289  16.352  0.00  0.00    +0.000 NA
ATOM      3  C   UNL     1       4.759   4.394  17.734  0.00  0.00    +0.000 A 
ATOM      4  C   UNL     1       5.970   4.614  18.363  0.00  0.00    +0.000 A 
ATOM      5  S   UNL     1       7.220   4.753  17.210  0.00  0.00    +0.000 S 
ENDROOT
BRANCH   1   9
ATOM      6  C   UNL     1       7.433   4.475  11.981  0.00  0.00    +0.000 A 
ATOM      7  C   UNL     1       7.976   5.303  12.934  0.00  0.00    +0.000 A 
ATOM      8  N   UNL     1       7.562   5.331  14.213  0.00  0.00    +0.000 NA
ATOM      9  C   UNL     1       6.550   4.495  14.535  0.00  0.00    +0.000 A 
ATOM     10  N   UNL     1       5.944   3.652  13.674  0.00  0.00    +0.000 NA
ATOM     11  C   UNL     1       6.410   3.662  12.411  0.00  0.00    +0.000 A 
ENDBRANCH   1   9
BRANCH   3  12
ATOM     12  C   UNL     1       3.501   4.237  18.448  0.00  0.00    +0.000 A 
ATOM     13  C   UNL     1       2.380   3.698  17.813  0.00  0.00    +0.000 A 
ATOM     14  C   UNL     1       1.198   3.514  18.531  0.00  0.00    +0.000 A 
ATOM     15  C   UNL     1       1.170   3.888  19.864  0.00  0.00    +0.000 A 
ATOM     16  N   UNL     1       2.221   4.437  20.510  0.00  0.00    +0.000 NA
ATOM     17  C   UNL     1       3.355   4.602  19.785  0.00  0.00    +0.000 A 
ENDBRANCH   3  12
TORSDOF 2
ENDMDL
MODEL 2
REMARK VINA RESULT:      -7.1      0.058      1.147
REMARK  Name = 
REMARK  2 active torsions:
REMARK  status: ('A' for Active; 'I' for Inactive)
REMARK    1  A    between atoms: C_4  and  C_5
REMARK    2  A    between atoms: C_7  and  C_8
REMARK                            x       y       z     vdW  Elec       q    Type
REMARK                         _______ _______ _______ _____ _____    ______ ____
ROOT
ATOM      1  C   UNL     1       6.082   4.477  15.926  0.00  0.00    +0.000 A 
ATOM      2  N   UNL     1       4.837   4.288  16.344  0.00  0.00    +0.000 NA
ATOM      3  C   UNL     1       4.762   4.397  17.725  0.00  0.00    +0.000 A 
ATOM      4  C   UNL     1       5.975   4.604  18.355  0.00  0.00    +0.000 A 
ATOM      5  S   UNL     1       7.227   4.726  17.201  0.00  0.00    +0.000 S 
ENDROOT
BRANCH   1   9
ATOM      6  C   UNL     1       7.400   4.478  11.960  0.00  0.00    +0.000 A 
ATOM      7  C   UNL     1       6.402   3.640  12.397  0.00  0.00    +0.000 A 
ATOM      8  N   UNL     1       5.957   3.617  13.665  0.00  0.00    +0.000 NA
ATOM      9  C   UNL     1       6.555   4.469  14.527  0.00  0.00    +0.000 A 
ATOM     10  N   UNL     1       7.546   5.324  14.202  0.00  0.00    +0.000 NA
ATOM     11  C   UNL     1       7.941   5.308  12.914  0.00  0.00    +0.000 A 
ENDBRANCH   1   9
BRANCH   3  12
ATOM     12  C   UNL     1       3.502   4.257  18.440  0.00  0.00    +0.000 A 
ATOM     13  C   UNL     1       2.403   3.638  17.840  0.00  0.00    +0.000 A 
ATOM     14  C   UNL     1       1.220   3.474  18.560  0.00  0.00    +0.000 A 
ATOM     15  C   UNL     1       1.168   3.947  19.861  0.00  0.00    +0.000 A 
ATOM     16  N   UNL     1       2.196   4.574  20.471  0.00  0.00    +0.000 NA
ATOM     17  C   UNL     1       3.332   4.718  19.744  0.00  0.00    +0.000 A 
ENDBRANCH   3  12
TORSDOF 2
ENDMDL
MODEL 3
REMARK VINA RESULT:      -7.1      0.812      1.222
REMARK  Name = 
REMARK  2 active torsions:
REMARK  status: ('A' for Active; 'I' for Inactive)
REMARK    1  A    between atoms: C_4  and  C_5
REMARK    2  A    between atoms: C_7  and  C_8
REMARK                            x       y       z     vdW  Elec       q    Type
REMARK                         _______ _______ _______ _____ _____    ______ ____
ROOT
ATOM      1  C   UNL     1       6.018   4.380  15.896  0.00  0.00    +0.000 A 
ATOM      2  N   UNL     1       4.804   4.011  16.282  0.00  0.00    +0.000 NA
ATOM      3  C   UNL     1       4.678   4.106  17.660  0.00  0.00    +0.000 A 
ATOM      4  C   UNL     1       5.830   4.488  18.320  0.00  0.00    +0.000 A 
ATOM      5  S   UNL     1       7.081   4.791  17.199  0.00  0.00    +0.000 S 
ENDROOT
BRANCH   1   9
ATOM      6  C   UNL     1       7.465   4.536  11.978  0.00  0.00    +0.000 A 
ATOM      7  C   UNL     1       7.970   5.336  12.974  0.00  0.00    +0.000 A 
ATOM      8  N   UNL     1       7.526   5.309  14.243  0.00  0.00    +0.000 NA
ATOM      9  C   UNL     1       6.523   4.443  14.509  0.00  0.00    +0.000 A 
ATOM     10  N   UNL     1       5.952   3.623  13.603  0.00  0.00    +0.000 NA
ATOM     11  C   UNL     1       6.447   3.690  12.352  0.00  0.00    +0.000 A 
ENDBRANCH   1   9
BRANCH   3  12
ATOM     12  C   UNL     1       3.433   3.783  18.342  0.00  0.00    +0.000 A 
ATOM     13  C   UNL     1       3.300   3.975  19.719  0.00  0.00    +0.000 A 
ATOM     14  C   UNL     1       2.083   3.702  20.343  0.00  0.00    +0.000 A 
ATOM     15  C   UNL     1       1.035   3.232  19.569  0.00  0.00    +0.000 A 
ATOM     16  N   UNL     1       1.126   3.008  18.242  0.00  0.00    +0.000 NA
ATOM     17  C   UNL     1       2.323   3.283  17.664  0.00  0.00    +0.000 A 
ENDBRANCH   3  12
TORSDOF 2
ENDMDL
MODEL 4
REMARK VINA RESULT:      -7.0      0.829      1.653
REMARK  Name = 
REMARK  2 active torsions:
REMARK  status: ('A' for Active; 'I' for Inactive)
REMARK    1  A    between atoms: C_4  and  C_5
REMARK    2  A    between atoms: C_7  and  C_8
REMARK                            x       y       z     vdW  Elec       q    Type
REMARK                         _______ _______ _______ _____ _____    ______ ____
ROOT
ATOM      1  C   UNL     1       5.995   4.364  15.957  0.00  0.00    +0.000 A 
ATOM      2  N   UNL     1       4.777   4.010  16.344  0.00  0.00    +0.000 NA
ATOM      3  C   UNL     1       4.649   4.117  17.721  0.00  0.00    +0.000 A 
ATOM      4  C   UNL     1       5.805   4.493  18.380  0.00  0.00    +0.000 A 
ATOM      5  S   UNL     1       7.060   4.775  17.259  0.00  0.00    +0.000 S 
ENDROOT
BRANCH   1   9
ATOM      6  C   UNL     1       7.412   4.520  12.028  0.00  0.00    +0.000 A 
ATOM      7  C   UNL     1       6.410   3.661  12.408  0.00  0.00    +0.000 A 
ATOM      8  N   UNL     1       5.933   3.588  13.663  0.00  0.00    +0.000 NA
ATOM      9  C   UNL     1       6.503   4.411  14.570  0.00  0.00    +0.000 A 
ATOM     10  N   UNL     1       7.497   5.283  14.303  0.00  0.00    +0.000 NA
ATOM     11  C   UNL     1       7.924   5.316  13.026  0.00  0.00    +0.000 A 
ENDBRANCH   1   9
BRANCH   3  12
ATOM     12  C   UNL     1       3.401   3.812  18.403  0.00  0.00    +0.000 A 
ATOM     13  C   UNL     1       3.012   4.526  19.540  0.00  0.00    +0.000 A 
ATOM     14  C   UNL     1       1.789   4.247  20.149  0.00  0.00    +0.000 A 
ATOM     15  C   UNL     1       0.994   3.250  19.609  0.00  0.00    +0.000 A 
ATOM     16  N   UNL     1       1.341   2.518  18.530  0.00  0.00    +0.000 NA
ATOM     17  C   UNL     1       2.536   2.813  17.959  0.00  0.00    +0.000 A 
ENDBRANCH   3  12
TORSDOF 2
ENDMDL
MODEL 5
REMARK VINA RESULT:      -6.7      1.271      1.790
REMARK  Name = 
REMARK  2 active torsions:
REMARK  status: ('A' for Active; 'I' for Inactive)
REMARK    1  A    between atoms: C_4  and  C_5
REMARK    2  A    between atoms: C_7  and  C_8
REMARK                            x       y       z     vdW  Elec       q    Type
REMARK                         _______ _______ _______ _____ _____    ______ ____
ROOT
ATOM      1  C   UNL     1       6.262   4.919  16.249  0.00  0.00    +0.000 A 
ATOM      2  N   UNL     1       5.308   4.318  16.949  0.00  0.00    +0.000 NA
ATOM      3  C   UNL     1       5.268   4.809  18.245  0.00  0.00    +0.000 A 
ATOM      4  C   UNL     1       6.245   5.741  18.540  0.00  0.00    +0.000 A 
ATOM      5  S   UNL     1       7.197   6.056  17.159  0.00  0.00    +0.000 S 
ENDROOT
BRANCH   1   9
ATOM      6  C   UNL     1       7.178   4.293  12.219  0.00  0.00    +0.000 A 
ATOM      7  C   UNL     1       6.184   3.592  12.859  0.00  0.00    +0.000 A 
ATOM      8  N   UNL     1       5.866   3.771  14.153  0.00  0.00    +0.000 NA
ATOM      9  C   UNL     1       6.592   4.689  14.827  0.00  0.00    +0.000 A 
ATOM     10  N   UNL     1       7.592   5.423  14.297  0.00  0.00    +0.000 NA
ATOM     11  C   UNL     1       7.856   5.205  12.994  0.00  0.00    +0.000 A 
ENDBRANCH   1   9
BRANCH   3  12
ATOM     12  C   UNL     1       4.294   4.335  19.217  0.00  0.00    +0.000 A 
ATOM     13  C   UNL     1       3.344   5.203  19.761  0.00  0.00    +0.000 A 
ATOM     14  C   UNL     1       2.390   4.716  20.655  0.00  0.00    +0.000 A 
ATOM     15  C   UNL     1       2.424   3.372  20.989  0.00  0.00    +0.000 A 
ATOM     16  N   UNL     1       3.338   2.504  20.508  0.00  0.00    +0.000 NA
ATOM     17  C   UNL     1       4.252   3.008  19.641  0.00  0.00    +0.000 A 
ENDBRANCH   3  12
TORSDOF 2
ENDMDL
MODEL 6
REMARK VINA RESULT:      -6.7      1.178      6.598
REMARK  Name = 
REMARK  2 active torsions:
REMARK  status: ('A' for Active; 'I' for Inactive)
REMARK    1  A    between atoms: C_4  and  C_5
REMARK    2  A    between atoms: C_7  and  C_8
REMARK                            x       y       z     vdW  Elec       q    Type
REMARK                         _______ _______ _______ _____ _____    ______ ____
ROOT
ATOM      1  C   UNL     1       4.316   4.176  17.890  0.00  0.00    +0.000 A 
ATOM      2  N   UNL     1       4.506   4.070  16.581  0.00  0.00    +0.000 NA
ATOM      3  C   UNL     1       5.789   4.472  16.237  0.00  0.00    +0.000 A 
ATOM      4  C   UNL     1       6.546   4.947  17.291  0.00  0.00    +0.000 A 
ATOM      5  S   UNL     1       5.666   4.837  18.749  0.00  0.00    +0.000 S 
ENDROOT
BRANCH   1   9
ATOM      6  C   UNL     1       0.843   3.180  19.990  0.00  0.00    +0.000 A 
ATOM      7  C   UNL     1       1.804   4.006  20.520  0.00  0.00    +0.000 A 
ATOM      8  N   UNL     1       2.931   4.345  19.869  0.00  0.00    +0.000 NA
ATOM      9  C   UNL     1       3.094   3.816  18.637  0.00  0.00    +0.000 A 
ATOM     10  N   UNL     1       2.217   2.989  18.031  0.00  0.00    +0.000 NA
ATOM     11  C   UNL     1       1.104   2.695  18.729  0.00  0.00    +0.000 A 
ENDBRANCH   1   9
BRANCH   3  12
ATOM     12  C   UNL     1       6.265   4.430  14.863  0.00  0.00    +0.000 A 
ATOM     13  C   UNL     1       5.677   3.577  13.927  0.00  0.00    +0.000 A 
ATOM     14  C   UNL     1       6.120   3.587  12.603  0.00  0.00    +0.000 A 
ATOM     15  C   UNL     1       7.150   4.446  12.259  0.00  0.00    +0.000 A 
ATOM     16  N   UNL     1       7.764   5.268  13.136  0.00  0.00    +0.000 NA
ATOM     17  C   UNL     1       7.311   5.235  14.414  0.00  0.00    +0.000 A 
ENDBRANCH   3  12
TORSDOF 2
ENDMDL
MODEL 7
REMARK VINA RESULT:      -6.7      1.215      6.668
REMARK  Name = 
REMARK  2 active torsions:
REMARK  status: ('A' for Active; 'I' for Inactive)
REMARK    1  A    between atoms: C_4  and  C_5
REMARK    2  A    between atoms: C_7  and  C_8
REMARK                            x       y       z     vdW  Elec       q    Type
REMARK                         _______ _______ _______ _____ _____    ______ ____
ROOT
ATOM      1  C   UNL     1       4.353   4.127  17.839  0.00  0.00    +0.000 A 
ATOM      2  N   UNL     1       4.547   4.008  16.531  0.00  0.00    +0.000 NA
ATOM      3  C   UNL     1       5.808   4.465  16.179  0.00  0.00    +0.000 A 
ATOM      4  C   UNL     1       6.543   4.994  17.223  0.00  0.00    +0.000 A 
ATOM      5  S   UNL     1       5.671   4.866  18.684  0.00  0.00    +0.000 S 
ENDROOT
BRANCH   1   9
ATOM      6  C   UNL     1       0.963   2.952  19.980  0.00  0.00    +0.000 A 
ATOM      7  C   UNL     1       1.022   2.875  18.610  0.00  0.00    +0.000 A 
ATOM      8  N   UNL     1       2.098   3.244  17.893  0.00  0.00    +0.000 NA
ATOM      9  C   UNL     1       3.151   3.721  18.594  0.00  0.00    +0.000 A 
ATOM     10  N   UNL     1       3.190   3.846  19.937  0.00  0.00    +0.000 NA
ATOM     11  C   UNL     1       2.086   3.450  20.598  0.00  0.00    +0.000 A 
ENDBRANCH   1   9
BRANCH   3  12
ATOM     12  C   UNL     1       6.285   4.423  14.804  0.00  0.00    +0.000 A 
ATOM     13  C   UNL     1       5.698   3.567  13.869  0.00  0.00    +0.000 A 
ATOM     14  C   UNL     1       6.141   3.577  12.546  0.00  0.00    +0.000 A 
ATOM     15  C   UNL     1       7.169   4.438  12.200  0.00  0.00    +0.000 A 
ATOM     16  N   UNL     1       7.782   5.262  13.076  0.00  0.00    +0.000 NA
ATOM     17  C   UNL     1       7.329   5.228  14.355  0.00  0.00    +0.000 A 
ENDBRANCH   3  12
TORSDOF 2
ENDMDL
MODEL 8
REMARK VINA RESULT:      -6.6      1.163      1.219
REMARK  Name = 
REMARK  2 active torsions:
REMARK  status: ('A' for Active; 'I' for Inactive)
REMARK    1  A    between atoms: C_4  and  C_5
REMARK    2  A    between atoms: C_7  and  C_8
REMARK                            x       y       z     vdW  Elec       q    Type
REMARK                         _______ _______ _______ _____ _____    ______ ____
ROOT
ATOM      1  C   UNL     1       5.252   4.909  15.756  0.00  0.00    +0.000 A 
ATOM      2  N   UNL     1       4.562   4.046  16.491  0.00  0.00    +0.000 NA
ATOM      3  C   UNL     1       4.026   4.670  17.607  0.00  0.00    +0.000 A 
ATOM      4  C   UNL     1       4.373   6.001  17.746  0.00  0.00    +0.000 A 
ATOM      5  S   UNL     1       5.337   6.501  16.430  0.00  0.00    +0.000 S 
ENDROOT
BRANCH   1   9
ATOM      6  C   UNL     1       7.220   4.094  12.161  0.00  0.00    +0.000 A 
ATOM      7  C   UNL     1       7.718   4.989  13.078  0.00  0.00    +0.000 A 
ATOM      8  N   UNL     1       7.108   5.271  14.243  0.00  0.00    +0.000 NA
ATOM      9  C   UNL     1       5.943   4.629  14.481  0.00  0.00    +0.000 A 
ATOM     10  N   UNL     1       5.366   3.742  13.645  0.00  0.00    +0.000 NA
ATOM     11  C   UNL     1       6.030   3.494  12.499  0.00  0.00    +0.000 A 
ENDBRANCH   1   9
BRANCH   3  12
ATOM     12  C   UNL     1       3.202   3.953  18.568  0.00  0.00    +0.000 A 
ATOM     13  C   UNL     1       1.816   3.877  18.408  0.00  0.00    +0.000 A 
ATOM     14  C   UNL     1       1.051   3.144  19.316  0.00  0.00    +0.000 A 
ATOM     15  C   UNL     1       1.698   2.517  20.368  0.00  0.00    +0.000 A 
ATOM     16  N   UNL     1       3.029   2.584  20.576  0.00  0.00    +0.000 NA
ATOM     17  C   UNL     1       3.745   3.305  19.676  0.00  0.00    +0.000 A 
ENDBRANCH   3  12
TORSDOF 2
ENDMDL
MODEL 9
REMARK VINA RESULT:      -6.6      1.757      6.817
REMARK  Name = 
REMARK  2 active torsions:
REMARK  status: ('A' for Active; 'I' for Inactive)
REMARK    1  A    between atoms: C_4  and  C_5
REMARK    2  A    between atoms: C_7  and  C_8
REMARK                            x       y       z     vdW  Elec       q    Type
REMARK                         _______ _______ _______ _____ _____    ______ ____
ROOT
ATOM      1  C   UNL     1       3.454   4.802  18.446  0.00  0.00    +0.000 A 
ATOM      2  N   UNL     1       4.217   4.301  17.483  0.00  0.00    +0.000 NA
ATOM      3  C   UNL     1       4.765   5.316  16.713  0.00  0.00    +0.000 A 
ATOM      4  C   UNL     1       4.355   6.589  17.061  0.00  0.00    +0.000 A 
ATOM      5  S   UNL     1       3.313   6.527  18.411  0.00  0.00    +0.000 S 
ENDROOT
BRANCH   1   9
ATOM      6  C   UNL     1       1.399   2.675  21.399  0.00  0.00    +0.000 A 
ATOM      7  C   UNL     1       2.766   2.618  21.277  0.00  0.00    +0.000 A 
ATOM      8  N   UNL     1       3.455   3.290  20.339  0.00  0.00    +0.000 NA
ATOM      9  C   UNL     1       2.727   4.041  19.483  0.00  0.00    +0.000 A 
ATOM     10  N   UNL     1       1.384   4.158  19.511  0.00  0.00    +0.000 NA
ATOM     11  C   UNL     1       0.752   3.468  20.480  0.00  0.00    +0.000 A 
ENDBRANCH   1   9
BRANCH   3  12
ATOM     12  C   UNL     1       5.664   5.039  15.603  0.00  0.00    +0.000 A 
ATOM     13  C   UNL     1       5.291   4.164  14.580  0.00  0.00    +0.000 A 
ATOM     14  C   UNL     1       6.150   3.950  13.502  0.00  0.00    +0.000 A 
ATOM     15  C   UNL     1       7.368   4.610  13.487  0.00  0.00    +0.000 A 
ATOM     16  N   UNL     1       7.780   5.443  14.466  0.00  0.00    +0.000 NA
ATOM     17  C   UNL     1       6.922   5.631  15.500  0.00  0.00    +0.000 A 
ENDBRANCH   3  12
TORSDOF 2
ENDMDL
