MODEL 1
REMARK VINA RESULT:     -10.2      0.000      0.000
REMARK  Name = 
REMARK  6 active torsions:
REMARK  status: ('A' for Active; 'I' for Inactive)
REMARK    1  A    between atoms: C_8  and  O_9
REMARK    2  A    between atoms: O_9  and  C_10
REMARK    3  A    between atoms: C_10  and  C_11
REMARK    4  A    between atoms: N_14  and  C_15
REMARK    5  A    between atoms: C_15  and  C_16
REMARK    6  A    between atoms: C_16  and  C_17
REMARK                            x       y       z     vdW  Elec       q    Type
REMARK                         _______ _______ _______ _____ _____    ______ ____
ROOT
ATOM      1  C   UNL     1       0.229   9.609  19.633  0.00  0.00    +0.000 C 
ATOM      2  C   UNL     1       1.412   9.602  18.668  0.00  0.00    +0.000 C 
ATOM      3  C   UNL     1       1.945   8.170  18.533  0.00  0.00    +0.000 C 
ATOM      4  N   UNL     1       2.333   7.568  19.825  0.00  0.00    +0.000 NA
ATOM      5  C   UNL     1       1.243   7.654  20.816  0.00  0.00    +0.000 C 
ATOM      6  C   UNL     1       0.730   9.077  20.981  0.00  0.00    +0.000 C 
ENDROOT
BRANCH   1   7
ATOM      7  C   UNL     1      -0.417  10.974  19.836  0.00  0.00    +0.000 C 
BRANCH   7   8
ATOM      8  O   UNL     1      -0.780  11.584  18.597  0.00  0.00    +0.000 OA
BRANCH   8  16
ATOM      9  O   UNL     1      -3.279  10.120  14.048  0.00  0.00    +0.000 OA
ATOM     10  C   UNL     1      -3.342  10.554  15.191  0.00  0.00    +0.000 A 
ATOM     11  N   UNL     1      -4.502  10.916  15.834  0.00  0.00    +0.000 N 
ATOM     12  C   UNL     1      -4.166  11.357  17.083  0.00  0.00    +0.000 A 
ATOM     13  C   UNL     1      -4.971  11.824  18.096  0.00  0.00    +0.000 A 
ATOM     14  C   UNL     1      -4.331  12.204  19.276  0.00  0.00    +0.000 A 
ATOM     15  C   UNL     1      -2.926  12.111  19.399  0.00  0.00    +0.000 A 
ATOM     16  C   UNL     1      -2.129  11.630  18.349  0.00  0.00    +0.000 A 
ATOM     17  C   UNL     1      -2.791  11.258  17.188  0.00  0.00    +0.000 A 
ATOM     18  O   UNL     1      -2.240  10.753  16.013  0.00  0.00    +0.000 OA
ATOM     19  H   UNL     1      -5.414  10.852  15.416  0.00  0.00    +0.000 HD
ENDBRANCH   8  16
ENDBRANCH   7   8
ENDBRANCH   1   7
BRANCH   4  20
ATOM     20  C   UNL     1       2.704   6.147  19.673  0.00  0.00    +0.000 C 
BRANCH  20  21
ATOM     21  C   UNL     1       2.819   5.686  18.212  0.00  0.00    +0.000 C 
BRANCH  21  22
ATOM     22  C   UNL     1       4.263   5.348  17.788  0.00  0.00    +0.000 C 
ATOM     23  C   UNL     1       5.112   6.652  17.753  0.00  0.00    +0.000 C 
ATOM     24  C   UNL     1       6.565   6.395  17.312  0.00  0.00    +0.000 C 
ATOM     25  C   UNL     1       6.537   5.612  16.052  0.00  0.00    +0.000 A 
ATOM     26  N   UNL     1       7.494   5.615  15.076  0.00  0.00    +0.000 N 
ATOM     27  C   UNL     1       7.065   4.857  14.003  0.00  0.00    +0.000 A 
ATOM     28  C   UNL     1       7.671   4.613  12.763  0.00  0.00    +0.000 A 
ATOM     29  C   UNL     1       6.969   3.821  11.847  0.00  0.00    +0.000 A 
ATOM     30  C   UNL     1       5.724   3.297  12.170  0.00  0.00    +0.000 A 
ATOM     31  F   UNL     1       5.068   2.556  11.265  0.00  0.00    +0.000 F 
ATOM     32  C   UNL     1       5.131   3.530  13.408  0.00  0.00    +0.000 A 
ATOM     33  C   UNL     1       5.816   4.328  14.342  0.00  0.00    +0.000 A 
ATOM     34  C   UNL     1       5.507   4.796  15.645  0.00  0.00    +0.000 A 
ATOM     35  C   UNL     1       4.269   4.587  16.435  0.00  0.00    +0.000 C 
ATOM     36  H   UNL     1       8.360   6.134  15.101  0.00  0.00    +0.000 HD
ENDBRANCH  21  22
ENDBRANCH  20  21
ENDBRANCH   4  20
TORSDOF 6
ENDMDL
MODEL 2
REMARK VINA RESULT:      -9.9      1.394      2.161
REMARK  Name = 
REMARK  6 active torsions:
REMARK  status: ('A' for Active; 'I' for Inactive)
REMARK    1  A    between atoms: C_8  and  O_9
REMARK    2  A    between atoms: O_9  and  C_10
REMARK    3  A    between atoms: C_10  and  C_11
REMARK    4  A    between atoms: N_14  and  C_15
REMARK    5  A    between atoms: C_15  and  C_16
REMARK    6  A    between atoms: C_16  and  C_17
REMARK                            x       y       z     vdW  Elec       q    Type
REMARK                         _______ _______ _______ _____ _____    ______ ____
ROOT
ATOM      1  C   UNL     1       0.993  10.234  19.112  0.00  0.00    +0.000 C 
ATOM      2  C   UNL     1       0.437   9.220  20.109  0.00  0.00    +0.000 C 
ATOM      3  C   UNL     1       1.498   8.147  20.383  0.00  0.00    +0.000 C 
ATOM      4  N   UNL     1       1.963   7.461  19.159  0.00  0.00    +0.000 NA
ATOM      5  C   UNL     1       2.410   8.423  18.133  0.00  0.00    +0.000 C 
ATOM      6  C   UNL     1       1.351   9.472  17.830  0.00  0.00    +0.000 C 
ENDROOT
BRANCH   1   7
ATOM      7  C   UNL     1       0.045  11.378  18.773  0.00  0.00    +0.000 C 
BRANCH   7   8
ATOM      8  O   UNL     1      -1.286  11.122  19.225  0.00  0.00    +0.000 OA
BRANCH   8  16
ATOM      9  O   UNL     1      -6.315  13.047  19.514  0.00  0.00    +0.000 OA
ATOM     10  C   UNL     1      -5.436  12.491  18.869  0.00  0.00    +0.000 A 
ATOM     11  N   UNL     1      -5.568  12.052  17.573  0.00  0.00    +0.000 N 
ATOM     12  C   UNL     1      -4.383  11.480  17.204  0.00  0.00    +0.000 A 
ATOM     13  C   UNL     1      -4.022  10.900  16.010  0.00  0.00    +0.000 A 
ATOM     14  C   UNL     1      -2.722  10.399  15.928  0.00  0.00    +0.000 A 
ATOM     15  C   UNL     1      -1.840  10.492  17.030  0.00  0.00    +0.000 A 
ATOM     16  C   UNL     1      -2.235  11.091  18.236  0.00  0.00    +0.000 A 
ATOM     17  C   UNL     1      -3.533  11.581  18.289  0.00  0.00    +0.000 A 
ATOM     18  O   UNL     1      -4.164  12.215  19.356  0.00  0.00    +0.000 OA
ATOM     19  H   UNL     1      -6.410  12.151  17.034  0.00  0.00    +0.000 HD
ENDBRANCH   8  16
ENDBRANCH   7   8
ENDBRANCH   1   7
BRANCH   4  20
ATOM     20  C   UNL     1       3.082   6.540  19.445  0.00  0.00    +0.000 C 
BRANCH  20  21
ATOM     21  C   UNL     1       3.151   5.333  18.498  0.00  0.00    +0.000 C 
BRANCH  21  22
ATOM     22  C   UNL     1       4.573   5.053  17.967  0.00  0.00    +0.000 C 
ATOM     23  C   UNL     1       5.391   6.376  17.954  0.00  0.00    +0.000 C 
ATOM     24  C   UNL     1       6.819   6.179  17.410  0.00  0.00    +0.000 C 
ATOM     25  C   UNL     1       6.726   5.468  16.111  0.00  0.00    +0.000 A 
ATOM     26  N   UNL     1       7.619   5.548  15.079  0.00  0.00    +0.000 N 
ATOM     27  C   UNL     1       7.139   4.841  13.993  0.00  0.00    +0.000 A 
ATOM     28  C   UNL     1       7.670   4.682  12.706  0.00  0.00    +0.000 A 
ATOM     29  C   UNL     1       6.927   3.927  11.791  0.00  0.00    +0.000 A 
ATOM     30  C   UNL     1       5.716   3.356  12.160  0.00  0.00    +0.000 A 
ATOM     31  F   UNL     1       5.019   2.652  11.256  0.00  0.00    +0.000 F 
ATOM     32  C   UNL     1       5.198   3.505  13.444  0.00  0.00    +0.000 A 
ATOM     33  C   UNL     1       5.925   4.265  14.378  0.00  0.00    +0.000 A 
ATOM     34  C   UNL     1       5.689   4.652  15.722  0.00  0.00    +0.000 A 
ATOM     35  C   UNL     1       4.508   4.370  16.575  0.00  0.00    +0.000 C 
ATOM     36  H   UNL     1       8.475   6.085  15.081  0.00  0.00    +0.000 HD
ENDBRANCH  21  22
ENDBRANCH  20  21
ENDBRANCH   4  20
TORSDOF 6
ENDMDL
MODEL 3
REMARK VINA RESULT:      -9.9      3.879     10.074
REMARK  Name = 
REMARK  6 active torsions:
REMARK  status: ('A' for Active; 'I' for Inactive)
REMARK    1  A    between atoms: C_8  and  O_9
REMARK    2  A    between atoms: O_9  and  C_10
REMARK    3  A    between atoms: C_10  and  C_11
REMARK    4  A    between atoms: N_14  and  C_15
REMARK    5  A    between atoms: C_15  and  C_16
REMARK    6  A    between atoms: C_16  and  C_17
REMARK                            x       y       z     vdW  Elec       q    Type
REMARK                         _______ _______ _______ _____ _____    ______ ____
ROOT
ATOM      1  C   UNL     1       2.262   5.030  18.587  0.00  0.00    +0.000 C 
ATOM      2  C   UNL     1       2.328   4.750  20.086  0.00  0.00    +0.000 C 
ATOM      3  C   UNL     1       1.463   5.775  20.830  0.00  0.00    +0.000 C 
ATOM      4  N   UNL     1       1.849   7.175  20.552  0.00  0.00    +0.000 NA
ATOM      5  C   UNL     1       1.896   7.449  19.103  0.00  0.00    +0.000 C 
ATOM      6  C   UNL     1       2.779   6.456  18.361  0.00  0.00    +0.000 C 
ENDROOT
BRANCH   1   7
ATOM      7  C   UNL     1       3.058   4.060  17.723  0.00  0.00    +0.000 C 
BRANCH   7   8
ATOM      8  O   UNL     1       4.247   3.612  18.377  0.00  0.00    +0.000 OA
BRANCH   8  16
ATOM      9  O   UNL     1       6.610   4.272  13.576  0.00  0.00    +0.000 OA
ATOM     10  C   UNL     1       6.579   4.512  14.775  0.00  0.00    +0.000 A 
ATOM     11  N   UNL     1       7.482   5.303  15.444  0.00  0.00    +0.000 N 
ATOM     12  C   UNL     1       7.122   5.324  16.763  0.00  0.00    +0.000 A 
ATOM     13  C   UNL     1       7.710   5.971  17.824  0.00  0.00    +0.000 A 
ATOM     14  C   UNL     1       7.104   5.806  19.070  0.00  0.00    +0.000 A 
ATOM     15  C   UNL     1       5.948   5.004  19.210  0.00  0.00    +0.000 A 
ATOM     16  C   UNL     1       5.368   4.355  18.109  0.00  0.00    +0.000 A 
ATOM     17  C   UNL     1       5.991   4.539  16.883  0.00  0.00    +0.000 A 
ATOM     18  O   UNL     1       5.620   4.013  15.648  0.00  0.00    +0.000 OA
ATOM     19  H   UNL     1       8.258   5.761  15.000  0.00  0.00    +0.000 HD
ENDBRANCH   8  16
ENDBRANCH   7   8
ENDBRANCH   1   7
BRANCH   4  20
ATOM     20  C   UNL     1       0.908   8.130  21.170  0.00  0.00    +0.000 C 
BRANCH  20  21
ATOM     21  C   UNL     1       1.513   9.517  21.434  0.00  0.00    +0.000 C 
BRANCH  21  22
ATOM     22  C   UNL     1       0.654  10.674  20.884  0.00  0.00    +0.000 C 
ATOM     23  C   UNL     1      -0.466  11.021  21.906  0.00  0.00    +0.000 C 
ATOM     24  C   UNL     1      -1.382  12.156  21.411  0.00  0.00    +0.000 C 
ATOM     25  C   UNL     1      -1.845  11.816  20.043  0.00  0.00    +0.000 A 
ATOM     26  N   UNL     1      -3.012  12.222  19.459  0.00  0.00    +0.000 N 
ATOM     27  C   UNL     1      -3.153  11.611  18.227  0.00  0.00    +0.000 A 
ATOM     28  C   UNL     1      -4.198  11.673  17.297  0.00  0.00    +0.000 A 
ATOM     29  C   UNL     1      -4.073  10.903  16.135  0.00  0.00    +0.000 A 
ATOM     30  C   UNL     1      -2.948  10.118  15.922  0.00  0.00    +0.000 A 
ATOM     31  F   UNL     1      -2.865   9.377  14.806  0.00  0.00    +0.000 F 
ATOM     32  C   UNL     1      -1.905  10.069  16.842  0.00  0.00    +0.000 A 
ATOM     33  C   UNL     1      -2.012  10.831  18.020  0.00  0.00    +0.000 A 
ATOM     34  C   UNL     1      -1.188  10.987  19.164  0.00  0.00    +0.000 A 
ATOM     35  C   UNL     1       0.099  10.318  19.478  0.00  0.00    +0.000 C 
ATOM     36  H   UNL     1      -3.700  12.832  19.879  0.00  0.00    +0.000 HD
ENDBRANCH  21  22
ENDBRANCH  20  21
ENDBRANCH   4  20
TORSDOF 6
ENDMDL
MODEL 4
REMARK VINA RESULT:      -9.6      1.085      1.575
REMARK  Name = 
REMARK  6 active torsions:
REMARK  status: ('A' for Active; 'I' for Inactive)
REMARK    1  A    between atoms: C_8  and  O_9
REMARK    2  A    between atoms: O_9  and  C_10
REMARK    3  A    between atoms: C_10  and  C_11
REMARK    4  A    between atoms: N_14  and  C_15
REMARK    5  A    between atoms: C_15  and  C_16
REMARK    6  A    between atoms: C_16  and  C_17
REMARK                            x       y       z     vdW  Elec       q    Type
REMARK                         _______ _______ _______ _____ _____    ______ ____
ROOT
ATOM      1  C   UNL     1       0.511   9.093  20.488  0.00  0.00    +0.000 C 
ATOM      2  C   UNL     1       1.294   9.723  19.338  0.00  0.00    +0.000 C 
ATOM      3  C   UNL     1       1.725   8.624  18.359  0.00  0.00    +0.000 C 
ATOM      4  N   UNL     1       2.521   7.554  18.997  0.00  0.00    +0.000 NA
ATOM      5  C   UNL     1       1.835   6.996  20.178  0.00  0.00    +0.000 C 
ATOM      6  C   UNL     1       1.433   8.076  21.171  0.00  0.00    +0.000 C 
ENDROOT
BRANCH   1   7
ATOM      7  C   UNL     1      -0.005  10.084  21.523  0.00  0.00    +0.000 C 
BRANCH   7   8
ATOM      8  O   UNL     1      -0.098  11.409  20.997  0.00  0.00    +0.000 OA
BRANCH   8  16
ATOM      9  O   UNL     1      -2.538  11.094  16.198  0.00  0.00    +0.000 OA
ATOM     10  C   UNL     1      -2.575  11.413  17.379  0.00  0.00    +0.000 A 
ATOM     11  N   UNL     1      -3.653  11.992  18.005  0.00  0.00    +0.000 N 
ATOM     12  C   UNL     1      -3.312  12.206  19.311  0.00  0.00    +0.000 A 
ATOM     13  C   UNL     1      -4.049  12.758  20.333  0.00  0.00    +0.000 A 
ATOM     14  C   UNL     1      -3.424  12.842  21.578  0.00  0.00    +0.000 A 
ATOM     15  C   UNL     1      -2.099  12.382  21.754  0.00  0.00    +0.000 A 
ATOM     16  C   UNL     1      -1.371  11.821  20.694  0.00  0.00    +0.000 A 
ATOM     17  C   UNL     1      -2.017  11.749  19.468  0.00  0.00    +0.000 A 
ATOM     18  O   UNL     1      -1.522  11.241  18.269  0.00  0.00    +0.000 OA
ATOM     19  H   UNL     1      -4.519  12.205  17.541  0.00  0.00    +0.000 HD
ENDBRANCH   8  16
ENDBRANCH   7   8
ENDBRANCH   1   7
BRANCH   4  20
ATOM     20  C   UNL     1       2.795   6.448  18.059  0.00  0.00    +0.000 C 
BRANCH  20  21
ATOM     21  C   UNL     1       3.557   5.272  18.688  0.00  0.00    +0.000 C 
BRANCH  21  22
ATOM     22  C   UNL     1       4.932   5.016  18.037  0.00  0.00    +0.000 C 
ATOM     23  C   UNL     1       5.715   6.356  17.935  0.00  0.00    +0.000 C 
ATOM     24  C   UNL     1       7.094   6.182  17.270  0.00  0.00    +0.000 C 
ATOM     25  C   UNL     1       6.905   5.450  15.993  0.00  0.00    +0.000 A 
ATOM     26  N   UNL     1       7.701   5.535  14.886  0.00  0.00    +0.000 N 
ATOM     27  C   UNL     1       7.144   4.801  13.856  0.00  0.00    +0.000 A 
ATOM     28  C   UNL     1       7.563   4.634  12.530  0.00  0.00    +0.000 A 
ATOM     29  C   UNL     1       6.762   3.849  11.693  0.00  0.00    +0.000 A 
ATOM     30  C   UNL     1       5.601   3.257  12.176  0.00  0.00    +0.000 A 
ATOM     31  F   UNL     1       4.844   2.524  11.345  0.00  0.00    +0.000 F 
ATOM     32  C   UNL     1       5.194   3.414  13.497  0.00  0.00    +0.000 A 
ATOM     33  C   UNL     1       5.982   4.204  14.354  0.00  0.00    +0.000 A 
ATOM     34  C   UNL     1       5.857   4.606  15.709  0.00  0.00    +0.000 A 
ATOM     35  C   UNL     1       4.762   4.310  16.665  0.00  0.00    +0.000 C 
ATOM     36  H   UNL     1       8.541   6.091  14.806  0.00  0.00    +0.000 HD
ENDBRANCH  21  22
ENDBRANCH  20  21
ENDBRANCH   4  20
TORSDOF 6
ENDMDL
MODEL 5
REMARK VINA RESULT:      -9.6      3.888     10.130
REMARK  Name = 
REMARK  6 active torsions:
REMARK  status: ('A' for Active; 'I' for Inactive)
REMARK    1  A    between atoms: C_8  and  O_9
REMARK    2  A    between atoms: O_9  and  C_10
REMARK    3  A    between atoms: C_10  and  C_11
REMARK    4  A    between atoms: N_14  and  C_15
REMARK    5  A    between atoms: C_15  and  C_16
REMARK    6  A    between atoms: C_16  and  C_17
REMARK                            x       y       z     vdW  Elec       q    Type
REMARK                         _______ _______ _______ _____ _____    ______ ____
ROOT
ATOM      1  C   UNL     1       2.398   4.480  18.603  0.00  0.00    +0.000 C 
ATOM      2  C   UNL     1       2.044   4.064  20.029  0.00  0.00    +0.000 C 
ATOM      3  C   UNL     1       1.154   5.140  20.663  0.00  0.00    +0.000 C 
ATOM      4  N   UNL     1       1.771   6.483  20.659  0.00  0.00    +0.000 NA
ATOM      5  C   UNL     1       2.220   6.872  19.309  0.00  0.00    +0.000 C 
ATOM      6  C   UNL     1       3.131   5.824  18.684  0.00  0.00    +0.000 C 
ENDROOT
BRANCH   1   7
ATOM      7  C   UNL     1       3.259   3.479  17.844  0.00  0.00    +0.000 C 
BRANCH   7   8
ATOM      8  O   UNL     1       4.649   3.643  18.129  0.00  0.00    +0.000 OA
BRANCH   8  16
ATOM      9  O   UNL     1       8.147   7.737  18.416  0.00  0.00    +0.000 OA
ATOM     10  C   UNL     1       7.587   6.876  17.751  0.00  0.00    +0.000 A 
ATOM     11  N   UNL     1       7.783   6.668  16.407  0.00  0.00    +0.000 N 
ATOM     12  C   UNL     1       6.979   5.631  16.024  0.00  0.00    +0.000 A 
ATOM     13  C   UNL     1       6.820   5.053  14.786  0.00  0.00    +0.000 A 
ATOM     14  C   UNL     1       5.917   3.992  14.704  0.00  0.00    +0.000 A 
ATOM     15  C   UNL     1       5.208   3.555  15.848  0.00  0.00    +0.000 A 
ATOM     16  C   UNL     1       5.392   4.163  17.099  0.00  0.00    +0.000 A 
ATOM     17  C   UNL     1       6.296   5.214  17.152  0.00  0.00    +0.000 A 
ATOM     18  O   UNL     1       6.657   5.977  18.259  0.00  0.00    +0.000 OA
ATOM     19  H   UNL     1       8.414   7.211  15.845  0.00  0.00    +0.000 HD
ENDBRANCH   8  16
ENDBRANCH   7   8
ENDBRANCH   1   7
BRANCH   4  20
ATOM     20  C   UNL     1       0.832   7.513  21.145  0.00  0.00    +0.000 C 
BRANCH  20  21
ATOM     21  C   UNL     1       1.513   8.816  21.591  0.00  0.00    +0.000 C 
BRANCH  21  22
ATOM     22  C   UNL     1       0.807  10.085  21.070  0.00  0.00    +0.000 C 
ATOM     23  C   UNL     1      -0.249  10.556  22.111  0.00  0.00    +0.000 C 
ATOM     24  C   UNL     1      -1.015  11.808  21.646  0.00  0.00    +0.000 C 
ATOM     25  C   UNL     1      -1.531  11.556  20.277  0.00  0.00    +0.000 A 
ATOM     26  N   UNL     1      -2.640  12.121  19.714  0.00  0.00    +0.000 N 
ATOM     27  C   UNL     1      -2.870  11.556  18.474  0.00  0.00    +0.000 A 
ATOM     28  C   UNL     1      -3.907  11.770  17.556  0.00  0.00    +0.000 A 
ATOM     29  C   UNL     1      -3.895  11.011  16.380  0.00  0.00    +0.000 A 
ATOM     30  C   UNL     1      -2.882  10.091  16.141  0.00  0.00    +0.000 A 
ATOM     31  F   UNL     1      -2.907   9.366  15.012  0.00  0.00    +0.000 F 
ATOM     32  C   UNL     1      -1.846   9.890  17.048  0.00  0.00    +0.000 A 
ATOM     33  C   UNL     1      -1.842  10.638  18.240  0.00  0.00    +0.000 A 
ATOM     34  C   UNL     1      -0.995  10.666  19.377  0.00  0.00    +0.000 A 
ATOM     35  C   UNL     1       0.197   9.829  19.665  0.00  0.00    +0.000 C 
ATOM     36  H   UNL     1      -3.239  12.807  20.151  0.00  0.00    +0.000 HD
ENDBRANCH  21  22
ENDBRANCH  20  21
ENDBRANCH   4  20
TORSDOF 6
ENDMDL
MODEL 6
REMARK VINA RESULT:      -9.5      1.355      2.139
REMARK  Name = 
REMARK  6 active torsions:
REMARK  status: ('A' for Active; 'I' for Inactive)
REMARK    1  A    between atoms: C_8  and  O_9
REMARK    2  A    between atoms: O_9  and  C_10
REMARK    3  A    between atoms: C_10  and  C_11
REMARK    4  A    between atoms: N_14  and  C_15
REMARK    5  A    between atoms: C_15  and  C_16
REMARK    6  A    between atoms: C_16  and  C_17
REMARK                            x       y       z     vdW  Elec       q    Type
REMARK                         _______ _______ _______ _____ _____    ______ ____
ROOT
ATOM      1  C   UNL     1       0.119   9.598  19.864  0.00  0.00    +0.000 C 
ATOM      2  C   UNL     1       1.342   9.718  18.958  0.00  0.00    +0.000 C 
ATOM      3  C   UNL     1       1.926   8.321  18.710  0.00  0.00    +0.000 C 
ATOM      4  N   UNL     1       2.277   7.607  19.955  0.00  0.00    +0.000 NA
ATOM      5  C   UNL     1       1.143   7.566  20.898  0.00  0.00    +0.000 C 
ATOM      6  C   UNL     1       0.579   8.951  21.176  0.00  0.00    +0.000 C 
ENDROOT
BRANCH   1   7
ATOM      7  C   UNL     1      -0.579  10.918  20.167  0.00  0.00    +0.000 C 
BRANCH   7   8
ATOM      8  O   UNL     1      -0.824  11.678  18.983  0.00  0.00    +0.000 OA
BRANCH   8  16
ATOM      9  O   UNL     1      -5.570  13.276  20.983  0.00  0.00    +0.000 OA
ATOM     10  C   UNL     1      -4.935  12.721  20.097  0.00  0.00    +0.000 A 
ATOM     11  N   UNL     1      -5.484  12.147  18.975  0.00  0.00    +0.000 N 
ATOM     12  C   UNL     1      -4.463  11.624  18.232  0.00  0.00    +0.000 A 
ATOM     13  C   UNL     1      -4.504  10.954  17.032  0.00  0.00    +0.000 A 
ATOM     14  C   UNL     1      -3.279  10.538  16.508  0.00  0.00    +0.000 A 
ATOM     15  C   UNL     1      -2.072  10.798  17.196  0.00  0.00    +0.000 A 
ATOM     16  C   UNL     1      -2.060  11.486  18.420  0.00  0.00    +0.000 A 
ATOM     17  C   UNL     1      -3.292  11.889  18.916  0.00  0.00    +0.000 A 
ATOM     18  O   UNL     1      -3.553  12.581  20.096  0.00  0.00    +0.000 OA
ATOM     19  H   UNL     1      -6.470  12.136  18.780  0.00  0.00    +0.000 HD
ENDBRANCH   8  16
ENDBRANCH   7   8
ENDBRANCH   1   7
BRANCH   4  20
ATOM     20  C   UNL     1       2.700   6.218  19.684  0.00  0.00    +0.000 C 
BRANCH  20  21
ATOM     21  C   UNL     1       2.829   5.887  18.189  0.00  0.00    +0.000 C 
BRANCH  21  22
ATOM     22  C   UNL     1       4.263   5.503  17.770  0.00  0.00    +0.000 C 
ATOM     23  C   UNL     1       5.144   6.784  17.700  0.00  0.00    +0.000 C 
ATOM     24  C   UNL     1       6.589   6.480  17.261  0.00  0.00    +0.000 C 
ATOM     25  C   UNL     1       6.536   5.668  16.020  0.00  0.00    +0.000 A 
ATOM     26  N   UNL     1       7.489   5.623  15.041  0.00  0.00    +0.000 N 
ATOM     27  C   UNL     1       7.038   4.849  13.989  0.00  0.00    +0.000 A 
ATOM     28  C   UNL     1       7.632   4.560  12.753  0.00  0.00    +0.000 A 
ATOM     29  C   UNL     1       6.908   3.764  11.859  0.00  0.00    +0.000 A 
ATOM     30  C   UNL     1       5.651   3.279  12.199  0.00  0.00    +0.000 A 
ATOM     31  F   UNL     1       4.974   2.533  11.314  0.00  0.00    +0.000 F 
ATOM     32  C   UNL     1       5.069   3.557  13.433  0.00  0.00    +0.000 A 
ATOM     33  C   UNL     1       5.778   4.361  14.344  0.00  0.00    +0.000 A 
ATOM     34  C   UNL     1       5.485   4.868  15.637  0.00  0.00    +0.000 A 
ATOM     35  C   UNL     1       4.245   4.709  16.436  0.00  0.00    +0.000 C 
ATOM     36  H   UNL     1       8.369   6.121  15.051  0.00  0.00    +0.000 HD
ENDBRANCH  21  22
ENDBRANCH  20  21
ENDBRANCH   4  20
TORSDOF 6
ENDMDL
MODEL 7
REMARK VINA RESULT:      -9.4      3.927     10.167
REMARK  Name = 
REMARK  6 active torsions:
REMARK  status: ('A' for Active; 'I' for Inactive)
REMARK    1  A    between atoms: C_8  and  O_9
REMARK    2  A    between atoms: O_9  and  C_10
REMARK    3  A    between atoms: C_10  and  C_11
REMARK    4  A    between atoms: N_14  and  C_15
REMARK    5  A    between atoms: C_15  and  C_16
REMARK    6  A    between atoms: C_16  and  C_17
REMARK                            x       y       z     vdW  Elec       q    Type
REMARK                         _______ _______ _______ _____ _____    ______ ____
ROOT
ATOM      1  C   UNL     1       2.708   5.030  18.571  0.00  0.00    +0.000 C 
ATOM      2  C   UNL     1       2.385   6.357  17.887  0.00  0.00    +0.000 C 
ATOM      3  C   UNL     1       2.549   7.499  18.898  0.00  0.00    +0.000 C 
ATOM      4  N   UNL     1       1.718   7.330  20.108  0.00  0.00    +0.000 NA
ATOM      5  C   UNL     1       1.930   6.011  20.735  0.00  0.00    +0.000 C 
ATOM      6  C   UNL     1       1.737   4.870  19.747  0.00  0.00    +0.000 C 
ENDROOT
BRANCH   1   7
ATOM      7  C   UNL     1       2.612   3.809  17.665  0.00  0.00    +0.000 C 
BRANCH   7   8
ATOM      8  O   UNL     1       3.874   3.156  17.511  0.00  0.00    +0.000 OA
BRANCH   8  16
ATOM      9  O   UNL     1       7.719   5.468  20.502  0.00  0.00    +0.000 OA
ATOM     10  C   UNL     1       7.215   5.271  19.404  0.00  0.00    +0.000 A 
ATOM     11  N   UNL     1       7.678   5.793  18.220  0.00  0.00    +0.000 N 
ATOM     12  C   UNL     1       6.853   5.357  17.221  0.00  0.00    +0.000 A 
ATOM     13  C   UNL     1       6.902   5.607  15.870  0.00  0.00    +0.000 A 
ATOM     14  C   UNL     1       5.910   5.012  15.089  0.00  0.00    +0.000 A 
ATOM     15  C   UNL     1       4.914   4.202  15.680  0.00  0.00    +0.000 A 
ATOM     16  C   UNL     1       4.889   3.963  17.063  0.00  0.00    +0.000 A 
ATOM     17  C   UNL     1       5.887   4.566  17.815  0.00  0.00    +0.000 A 
ATOM     18  O   UNL     1       6.087   4.489  19.191  0.00  0.00    +0.000 OA
ATOM     19  H   UNL     1       8.485   6.389  18.151  0.00  0.00    +0.000 HD
ENDBRANCH   8  16
ENDBRANCH   7   8
ENDBRANCH   1   7
BRANCH   4  20
ATOM     20  C   UNL     1       2.009   8.370  21.115  0.00  0.00    +0.000 C 
BRANCH  20  21
ATOM     21  C   UNL     1       0.759   8.924  21.817  0.00  0.00    +0.000 C 
BRANCH  21  22
ATOM     22  C   UNL     1       0.183  10.182  21.136  0.00  0.00    +0.000 C 
ATOM     23  C   UNL     1      -0.937  10.788  22.029  0.00  0.00    +0.000 C 
ATOM     24  C   UNL     1      -1.579  12.039  21.399  0.00  0.00    +0.000 C 
ATOM     25  C   UNL     1      -1.976  11.706  20.009  0.00  0.00    +0.000 A 
ATOM     26  N   UNL     1      -2.992  12.282  19.298  0.00  0.00    +0.000 N 
ATOM     27  C   UNL     1      -3.136  11.633  18.086  0.00  0.00    +0.000 A 
ATOM     28  C   UNL     1      -4.066  11.828  17.056  0.00  0.00    +0.000 A 
ATOM     29  C   UNL     1      -3.987  10.979  15.946  0.00  0.00    +0.000 A 
ATOM     30  C   UNL     1      -3.013   9.991  15.878  0.00  0.00    +0.000 A 
ATOM     31  F   UNL     1      -2.974   9.181  14.808  0.00  0.00    +0.000 F 
ATOM     32  C   UNL     1      -2.082   9.809  16.896  0.00  0.00    +0.000 A 
ATOM     33  C   UNL     1      -2.147  10.647  18.024  0.00  0.00    +0.000 A 
ATOM     34  C   UNL     1      -1.411  10.720  19.234  0.00  0.00    +0.000 A 
ATOM     35  C   UNL     1      -0.304   9.848  19.700  0.00  0.00    +0.000 C 
ATOM     36  H   UNL     1      -3.588  13.031  19.622  0.00  0.00    +0.000 HD
ENDBRANCH  21  22
ENDBRANCH  20  21
ENDBRANCH   4  20
TORSDOF 6
ENDMDL
MODEL 8
REMARK VINA RESULT:      -9.3      1.340      2.125
REMARK  Name = 
REMARK  6 active torsions:
REMARK  status: ('A' for Active; 'I' for Inactive)
REMARK    1  A    between atoms: C_8  and  O_9
REMARK    2  A    between atoms: O_9  and  C_10
REMARK    3  A    between atoms: C_10  and  C_11
REMARK    4  A    between atoms: N_14  and  C_15
REMARK    5  A    between atoms: C_15  and  C_16
REMARK    6  A    between atoms: C_16  and  C_17
REMARK                            x       y       z     vdW  Elec       q    Type
REMARK                         _______ _______ _______ _____ _____    ______ ____
ROOT
ATOM      1  C   UNL     1       1.950   7.832  19.797  0.00  0.00    +0.000 C 
ATOM      2  C   UNL     1       1.364   6.682  20.614  0.00  0.00    +0.000 C 
ATOM      3  C   UNL     1       2.110   5.387  20.269  0.00  0.00    +0.000 C 
ATOM      4  N   UNL     1       2.077   5.062  18.828  0.00  0.00    +0.000 NA
ATOM      5  C   UNL     1       2.540   6.195  18.003  0.00  0.00    +0.000 C 
ATOM      6  C   UNL     1       1.782   7.477  18.315  0.00  0.00    +0.000 C 
ENDROOT
BRANCH   1   7
ATOM      7  C   UNL     1       1.315   9.191  20.067  0.00  0.00    +0.000 C 
BRANCH   7   8
ATOM      8  O   UNL     1       0.811   9.793  18.874  0.00  0.00    +0.000 OA
BRANCH   8  16
ATOM      9  O   UNL     1      -3.287  10.633  15.471  0.00  0.00    +0.000 OA
ATOM     10  C   UNL     1      -2.738  10.875  16.538  0.00  0.00    +0.000 A 
ATOM     11  N   UNL     1      -3.206  11.757  17.482  0.00  0.00    +0.000 N 
ATOM     12  C   UNL     1      -2.321  11.761  18.524  0.00  0.00    +0.000 A 
ATOM     13  C   UNL     1      -2.350  12.476  19.699  0.00  0.00    +0.000 A 
ATOM     14  C   UNL     1      -1.293  12.263  20.585  0.00  0.00    +0.000 A 
ATOM     15  C   UNL     1      -0.254  11.359  20.267  0.00  0.00    +0.000 A 
ATOM     16  C   UNL     1      -0.250  10.642  19.060  0.00  0.00    +0.000 A 
ATOM     17  C   UNL     1      -1.314  10.872  18.199  0.00  0.00    +0.000 A 
ATOM     18  O   UNL     1      -1.547  10.294  16.953  0.00  0.00    +0.000 OA
ATOM     19  H   UNL     1      -4.054  12.287  17.379  0.00  0.00    +0.000 HD
ENDBRANCH   8  16
ENDBRANCH   7   8
ENDBRANCH   1   7
BRANCH   4  20
ATOM     20  C   UNL     1       2.922   3.892  18.516  0.00  0.00    +0.000 C 
BRANCH  20  21
ATOM     21  C   UNL     1       4.184   3.785  19.385  0.00  0.00    +0.000 C 
BRANCH  21  22
ATOM     22  C   UNL     1       5.492   3.990  18.593  0.00  0.00    +0.000 C 
ATOM     23  C   UNL     1       5.916   5.485  18.671  0.00  0.00    +0.000 C 
ATOM     24  C   UNL     1       7.206   5.771  17.878  0.00  0.00    +0.000 C 
ATOM     25  C   UNL     1       7.043   5.220  16.510  0.00  0.00    +0.000 A 
ATOM     26  N   UNL     1       7.656   5.673  15.377  0.00  0.00    +0.000 N 
ATOM     27  C   UNL     1       7.169   4.989  14.279  0.00  0.00    +0.000 A 
ATOM     28  C   UNL     1       7.453   5.139  12.915  0.00  0.00    +0.000 A 
ATOM     29  C   UNL     1       6.765   4.314  12.018  0.00  0.00    +0.000 A 
ATOM     30  C   UNL     1       5.845   3.380  12.477  0.00  0.00    +0.000 A 
ATOM     31  F   UNL     1       5.189   2.615  11.592  0.00  0.00    +0.000 F 
ATOM     32  C   UNL     1       5.575   3.224  13.834  0.00  0.00    +0.000 A 
ATOM     33  C   UNL     1       6.251   4.047  14.752  0.00  0.00    +0.000 A 
ATOM     34  C   UNL     1       6.199   4.191  16.163  0.00  0.00    +0.000 A 
ATOM     35  C   UNL     1       5.329   3.483  17.135  0.00  0.00    +0.000 C 
ATOM     36  H   UNL     1       8.325   6.430  15.331  0.00  0.00    +0.000 HD
ENDBRANCH  21  22
ENDBRANCH  20  21
ENDBRANCH   4  20
TORSDOF 6
ENDMDL
MODEL 9
REMARK VINA RESULT:      -9.3      5.320     11.622
REMARK  Name = 
REMARK  6 active torsions:
REMARK  status: ('A' for Active; 'I' for Inactive)
REMARK    1  A    between atoms: C_8  and  O_9
REMARK    2  A    between atoms: O_9  and  C_10
REMARK    3  A    between atoms: C_10  and  C_11
REMARK    4  A    between atoms: N_14  and  C_15
REMARK    5  A    between atoms: C_15  and  C_16
REMARK    6  A    between atoms: C_16  and  C_17
REMARK                            x       y       z     vdW  Elec       q    Type
REMARK                         _______ _______ _______ _____ _____    ______ ____
ROOT
ATOM      1  C   UNL     1       2.118   5.484  18.525  0.00  0.00    +0.000 C 
ATOM      2  C   UNL     1       2.163   5.378  20.048  0.00  0.00    +0.000 C 
ATOM      3  C   UNL     1       1.423   6.574  20.659  0.00  0.00    +0.000 C 
ATOM      4  N   UNL     1       1.962   7.878  20.221  0.00  0.00    +0.000 NA
ATOM      5  C   UNL     1       2.030   7.972  18.750  0.00  0.00    +0.000 C 
ATOM      6  C   UNL     1       2.791   6.806  18.136  0.00  0.00    +0.000 C 
ENDROOT
BRANCH   1   7
ATOM      7  C   UNL     1       2.795   4.336  17.787  0.00  0.00    +0.000 C 
BRANCH   7   8
ATOM      8  O   UNL     1       3.892   3.797  18.526  0.00  0.00    +0.000 OA
BRANCH   8  16
ATOM      9  O   UNL     1       6.409   3.805  13.757  0.00  0.00    +0.000 OA
ATOM     10  C   UNL     1       6.390   4.126  14.938  0.00  0.00    +0.000 A 
ATOM     11  N   UNL     1       7.383   4.827  15.579  0.00  0.00    +0.000 N 
ATOM     12  C   UNL     1       7.006   4.985  16.883  0.00  0.00    +0.000 A 
ATOM     13  C   UNL     1       7.660   5.614  17.917  0.00  0.00    +0.000 A 
ATOM     14  C   UNL     1       7.015   5.617  19.154  0.00  0.00    +0.000 A 
ATOM     15  C   UNL     1       5.756   4.993  19.314  0.00  0.00    +0.000 A 
ATOM     16  C   UNL     1       5.111   4.359  18.241  0.00  0.00    +0.000 A 
ATOM     17  C   UNL     1       5.775   4.373  17.023  0.00  0.00    +0.000 A 
ATOM     18  O   UNL     1       5.356   3.823  15.814  0.00  0.00    +0.000 OA
ATOM     19  H   UNL     1       8.223   5.143  15.127  0.00  0.00    +0.000 HD
ENDBRANCH   8  16
ENDBRANCH   7   8
ENDBRANCH   1   7
BRANCH   4  20
ATOM     20  C   UNL     1       1.138   9.000  20.715  0.00  0.00    +0.000 C 
BRANCH  20  21
ATOM     21  C   UNL     1       0.339   9.717  19.617  0.00  0.00    +0.000 C 
BRANCH  21  22
ATOM     22  C   UNL     1       0.036  11.194  19.946  0.00  0.00    +0.000 C 
ATOM     23  C   UNL     1       1.315  11.870  20.518  0.00  0.00    +0.000 C 
ATOM     24  C   UNL     1       1.081  13.345  20.894  0.00  0.00    +0.000 C 
ATOM     25  C   UNL     1      -0.125  13.419  21.756  0.00  0.00    +0.000 A 
ATOM     26  N   UNL     1      -0.386  14.370  22.703  0.00  0.00    +0.000 N 
ATOM     27  C   UNL     1      -1.545  14.043  23.382  0.00  0.00    +0.000 A 
ATOM     28  C   UNL     1      -2.175  14.677  24.460  0.00  0.00    +0.000 A 
ATOM     29  C   UNL     1      -3.336  14.083  24.969  0.00  0.00    +0.000 A 
ATOM     30  C   UNL     1      -3.837  12.914  24.411  0.00  0.00    +0.000 A 
ATOM     31  F   UNL     1      -4.942  12.359  24.932  0.00  0.00    +0.000 F 
ATOM     32  C   UNL     1      -3.216  12.294  23.331  0.00  0.00    +0.000 A 
ATOM     33  C   UNL     1      -2.045  12.870  22.808  0.00  0.00    +0.000 A 
ATOM     34  C   UNL     1      -1.150  12.502  21.770  0.00  0.00    +0.000 A 
ATOM     35  C   UNL     1      -1.182  11.298  20.903  0.00  0.00    +0.000 C 
ATOM     36  H   UNL     1       0.201  15.164  22.919  0.00  0.00    +0.000 HD
ENDBRANCH  21  22
ENDBRANCH  20  21
ENDBRANCH   4  20
TORSDOF 6
ENDMDL
