MODEL 1
REMARK VINA RESULT:      -7.3      0.000      0.000
REMARK  Name = 
REMARK  5 active torsions:
REMARK  status: ('A' for Active; 'I' for Inactive)
REMARK    1  A    between atoms: N_3  and  C_4
REMARK    2  A    between atoms: C_4  and  C_5
REMARK    3  A    between atoms: N_10  and  C_11
REMARK    4  A    between atoms: C_11  and  C_12
REMARK    5  A    between atoms: C_12  and  C_13
REMARK                            x       y       z     vdW  Elec       q    Type
REMARK                         _______ _______ _______ _____ _____    ______ ____
ROOT
ATOM      1  O   UNL     1       8.536   7.342  18.922  0.00  0.00    +0.000 OA
ATOM      2  C   UNL     1       8.101   8.054  18.023  0.00  0.00    +0.000 C 
ATOM      3  N   UNL     1       8.336   9.393  17.939  0.00  0.00    +0.000 N 
ATOM      4  N   UNL     1       7.317   7.592  16.996  0.00  0.00    +0.000 N 
ATOM      5  H   UNL     1       7.865   9.939  17.236  0.00  0.00    +0.000 HD
ATOM      6  H   UNL     1       7.293   8.132  16.147  0.00  0.00    +0.000 HD
ENDROOT
BRANCH   3   7
ATOM      7  C   UNL     1       9.078  10.083  18.968  0.00  0.00    +0.000 C 
BRANCH   7   8
ATOM      8  C   UNL     1       9.684  11.306  18.385  0.00  0.00    +0.000 A 
ATOM      9  C   UNL     1       9.020  12.511  18.009  0.00  0.00    +0.000 A 
ATOM     10  C   UNL     1       9.982  13.339  17.483  0.00  0.00    +0.000 A 
ATOM     11  O   UNL     1      11.195  12.731  17.509  0.00  0.00    +0.000 OA
ATOM     12  C   UNL     1      11.007  11.501  18.049  0.00  0.00    +0.000 A 
ENDBRANCH   7   8
ENDBRANCH   3   7
BRANCH   4  13
ATOM     13  C   UNL     1       7.148   6.163  16.916  0.00  0.00    +0.000 C 
BRANCH  13  14
ATOM     14  C   UNL     1       5.752   5.655  16.574  0.00  0.00    +0.000 C 
ATOM     15  C   UNL     1       5.289   5.572  15.128  0.00  0.00    +0.000 C 
ATOM     16  C   UNL     1       5.558   4.308  15.892  0.00  0.00    +0.000 C 
BRANCH  14  17
ATOM     17  C   UNL     1       4.769   6.070  17.665  0.00  0.00    +0.000 A 
ATOM     18  C   UNL     1       4.648   5.333  18.855  0.00  0.00    +0.000 A 
ATOM     19  C   UNL     1       3.560   5.516  19.710  0.00  0.00    +0.000 A 
ATOM     20  C   UNL     1       2.577   6.452  19.398  0.00  0.00    +0.000 A 
ATOM     21  C   UNL     1       2.709   7.241  18.259  0.00  0.00    +0.000 A 
ATOM     22  C   UNL     1       3.803   7.061  17.411  0.00  0.00    +0.000 A 
ENDBRANCH  14  17
ENDBRANCH  13  14
ENDBRANCH   4  13
TORSDOF 5
ENDMDL
MODEL 2
REMARK VINA RESULT:      -7.2      5.047      6.303
REMARK  Name = 
REMARK  5 active torsions:
REMARK  status: ('A' for Active; 'I' for Inactive)
REMARK    1  A    between atoms: N_3  and  C_4
REMARK    2  A    between atoms: C_4  and  C_5
REMARK    3  A    between atoms: N_10  and  C_11
REMARK    4  A    between atoms: C_11  and  C_12
REMARK    5  A    between atoms: C_12  and  C_13
REMARK                            x       y       z     vdW  Elec       q    Type
REMARK                         _______ _______ _______ _____ _____    ______ ____
ROOT
ATOM      1  O   UNL     1       5.441   5.460  17.907  0.00  0.00    +0.000 OA
ATOM      2  C   UNL     1       5.494   4.309  17.486  0.00  0.00    +0.000 C 
ATOM      3  N   UNL     1       6.258   3.926  16.425  0.00  0.00    +0.000 N 
ATOM      4  N   UNL     1       4.782   3.267  18.025  0.00  0.00    +0.000 N 
ATOM      5  H   UNL     1       6.177   2.989  16.065  0.00  0.00    +0.000 HD
ATOM      6  H   UNL     1       5.126   2.334  17.866  0.00  0.00    +0.000 HD
ENDROOT
BRANCH   3   7
ATOM      7  C   UNL     1       7.023   4.892  15.673  0.00  0.00    +0.000 C 
BRANCH   7   8
ATOM      8  C   UNL     1       6.928   4.562  14.230  0.00  0.00    +0.000 A 
ATOM      9  C   UNL     1       6.029   3.649  13.604  0.00  0.00    +0.000 A 
ATOM     10  C   UNL     1       6.340   3.648  12.266  0.00  0.00    +0.000 A 
ATOM     11  O   UNL     1       7.370   4.498  12.021  0.00  0.00    +0.000 OA
ATOM     12  C   UNL     1       7.724   5.042  13.211  0.00  0.00    +0.000 A 
ENDBRANCH   7   8
ENDBRANCH   3   7
BRANCH   4  13
ATOM     13  C   UNL     1       4.069   3.546  19.246  0.00  0.00    +0.000 C 
BRANCH  13  14
ATOM     14  C   UNL     1       2.554   3.671  19.143  0.00  0.00    +0.000 C 
ATOM     15  C   UNL     1       1.754   2.721  18.266  0.00  0.00    +0.000 C 
ATOM     16  C   UNL     1       1.641   2.621  19.760  0.00  0.00    +0.000 C 
BRANCH  14  17
ATOM     17  C   UNL     1       2.150   5.140  19.240  0.00  0.00    +0.000 A 
ATOM     18  C   UNL     1       2.243   5.996  18.130  0.00  0.00    +0.000 A 
ATOM     19  C   UNL     1       2.173   7.382  18.279  0.00  0.00    +0.000 A 
ATOM     20  C   UNL     1       1.994   7.940  19.543  0.00  0.00    +0.000 A 
ATOM     21  C   UNL     1       1.833   7.111  20.649  0.00  0.00    +0.000 A 
ATOM     22  C   UNL     1       1.895   5.725  20.494  0.00  0.00    +0.000 A 
ENDBRANCH  14  17
ENDBRANCH  13  14
ENDBRANCH   4  13
TORSDOF 5
ENDMDL
MODEL 3
REMARK VINA RESULT:      -7.1      0.630      1.428
REMARK  Name = 
REMARK  5 active torsions:
REMARK  status: ('A' for Active; 'I' for Inactive)
REMARK    1  A    between atoms: N_3  and  C_4
REMARK    2  A    between atoms: C_4  and  C_5
REMARK    3  A    between atoms: N_10  and  C_11
REMARK    4  A    between atoms: C_11  and  C_12
REMARK    5  A    between atoms: C_12  and  C_13
REMARK                            x       y       z     vdW  Elec       q    Type
REMARK                         _______ _______ _______ _____ _____    ______ ____
ROOT
ATOM      1  O   UNL     1       8.226   6.967  19.030  0.00  0.00    +0.000 OA
ATOM      2  C   UNL     1       7.936   7.618  18.032  0.00  0.00    +0.000 C 
ATOM      3  N   UNL     1       8.270   8.928  17.859  0.00  0.00    +0.000 N 
ATOM      4  N   UNL     1       7.230   7.111  16.969  0.00  0.00    +0.000 N 
ATOM      5  H   UNL     1       7.912   9.433  17.065  0.00  0.00    +0.000 HD
ATOM      6  H   UNL     1       7.330   7.570  16.080  0.00  0.00    +0.000 HD
ENDROOT
BRANCH   3   7
ATOM      7  C   UNL     1       8.949   9.664  18.899  0.00  0.00    +0.000 C 
BRANCH   7   8
ATOM      8  C   UNL     1       9.431  10.951  18.339  0.00  0.00    +0.000 A 
ATOM      9  C   UNL     1      10.781  11.384  18.192  0.00  0.00    +0.000 A 
ATOM     10  C   UNL     1      10.731  12.652  17.667  0.00  0.00    +0.000 A 
ATOM     11  O   UNL     1       9.443  13.034  17.478  0.00  0.00    +0.000 OA
ATOM     12  C   UNL     1       8.662  12.006  17.892  0.00  0.00    +0.000 A 
ENDBRANCH   7   8
ENDBRANCH   3   7
BRANCH   4  13
ATOM     13  C   UNL     1       6.971   5.693  16.994  0.00  0.00    +0.000 C 
BRANCH  13  14
ATOM     14  C   UNL     1       5.642   5.227  16.412  0.00  0.00    +0.000 C 
ATOM     15  C   UNL     1       5.395   5.267  14.912  0.00  0.00    +0.000 C 
ATOM     16  C   UNL     1       5.554   3.942  15.602  0.00  0.00    +0.000 C 
BRANCH  14  17
ATOM     17  C   UNL     1       4.510   5.562  17.379  0.00  0.00    +0.000 A 
ATOM     18  C   UNL     1       3.674   6.671  17.166  0.00  0.00    +0.000 A 
ATOM     19  C   UNL     1       2.850   7.160  18.181  0.00  0.00    +0.000 A 
ATOM     20  C   UNL     1       2.835   6.538  19.428  0.00  0.00    +0.000 A 
ATOM     21  C   UNL     1       3.604   5.398  19.642  0.00  0.00    +0.000 A 
ATOM     22  C   UNL     1       4.420   4.908  18.621  0.00  0.00    +0.000 A 
ENDBRANCH  14  17
ENDBRANCH  13  14
ENDBRANCH   4  13
TORSDOF 5
ENDMDL
MODEL 4
REMARK VINA RESULT:      -7.0      4.662      5.765
REMARK  Name = 
REMARK  5 active torsions:
REMARK  status: ('A' for Active; 'I' for Inactive)
REMARK    1  A    between atoms: N_3  and  C_4
REMARK    2  A    between atoms: C_4  and  C_5
REMARK    3  A    between atoms: N_10  and  C_11
REMARK    4  A    between atoms: C_11  and  C_12
REMARK    5  A    between atoms: C_12  and  C_13
REMARK                            x       y       z     vdW  Elec       q    Type
REMARK                         _______ _______ _______ _____ _____    ______ ____
ROOT
ATOM      1  O   UNL     1       5.211   5.296  19.659  0.00  0.00    +0.000 OA
ATOM      2  C   UNL     1       5.442   4.155  19.272  0.00  0.00    +0.000 C 
ATOM      3  N   UNL     1       6.470   3.834  18.437  0.00  0.00    +0.000 N 
ATOM      4  N   UNL     1       4.689   3.063  19.624  0.00  0.00    +0.000 N 
ATOM      5  H   UNL     1       6.543   2.897  18.073  0.00  0.00    +0.000 HD
ATOM      6  H   UNL     1       5.123   2.157  19.561  0.00  0.00    +0.000 HD
ENDROOT
BRANCH   3   7
ATOM      7  C   UNL     1       7.332   4.856  17.892  0.00  0.00    +0.000 C 
BRANCH   7   8
ATOM      8  C   UNL     1       6.756   5.338  16.612  0.00  0.00    +0.000 A 
ATOM      9  C   UNL     1       5.723   6.304  16.432  0.00  0.00    +0.000 A 
ATOM     10  C   UNL     1       5.501   6.393  15.080  0.00  0.00    +0.000 A 
ATOM     11  O   UNL     1       6.326   5.549  14.410  0.00  0.00    +0.000 OA
ATOM     12  C   UNL     1       7.077   4.909  15.341  0.00  0.00    +0.000 A 
ENDBRANCH   7   8
ENDBRANCH   3   7
BRANCH   4  13
ATOM     13  C   UNL     1       3.679   3.282  20.628  0.00  0.00    +0.000 C 
BRANCH  13  14
ATOM     14  C   UNL     1       2.246   3.447  20.135  0.00  0.00    +0.000 C 
ATOM     15  C   UNL     1       1.518   2.294  19.463  0.00  0.00    +0.000 C 
ATOM     16  C   UNL     1       1.094   2.738  20.833  0.00  0.00    +0.000 C 
BRANCH  14  17
ATOM     17  C   UNL     1       2.032   4.875  19.638  0.00  0.00    +0.000 A 
ATOM     18  C   UNL     1       2.197   5.206  18.282  0.00  0.00    +0.000 A 
ATOM     19  C   UNL     1       2.307   6.536  17.873  0.00  0.00    +0.000 A 
ATOM     20  C   UNL     1       2.239   7.564  18.812  0.00  0.00    +0.000 A 
ATOM     21  C   UNL     1       2.010   7.263  20.151  0.00  0.00    +0.000 A 
ATOM     22  C   UNL     1       1.892   5.932  20.555  0.00  0.00    +0.000 A 
ENDBRANCH  14  17
ENDBRANCH  13  14
ENDBRANCH   4  13
TORSDOF 5
ENDMDL
MODEL 5
REMARK VINA RESULT:      -7.0      4.554      6.326
REMARK  Name = 
REMARK  5 active torsions:
REMARK  status: ('A' for Active; 'I' for Inactive)
REMARK    1  A    between atoms: N_3  and  C_4
REMARK    2  A    between atoms: C_4  and  C_5
REMARK    3  A    between atoms: N_10  and  C_11
REMARK    4  A    between atoms: C_11  and  C_12
REMARK    5  A    between atoms: C_12  and  C_13
REMARK                            x       y       z     vdW  Elec       q    Type
REMARK                         _______ _______ _______ _____ _____    ______ ____
ROOT
ATOM      1  O   UNL     1       5.876   6.834  17.416  0.00  0.00    +0.000 OA
ATOM      2  C   UNL     1       5.700   5.621  17.377  0.00  0.00    +0.000 C 
ATOM      3  N   UNL     1       6.324   4.794  16.493  0.00  0.00    +0.000 N 
ATOM      4  N   UNL     1       4.845   4.947  18.213  0.00  0.00    +0.000 N 
ATOM      5  H   UNL     1       6.058   3.824  16.443  0.00  0.00    +0.000 HD
ATOM      6  H   UNL     1       5.007   3.965  18.355  0.00  0.00    +0.000 HD
ENDROOT
BRANCH   3   7
ATOM      7  C   UNL     1       7.207   5.321  15.478  0.00  0.00    +0.000 C 
BRANCH   7   8
ATOM      8  C   UNL     1       6.864   4.701  14.174  0.00  0.00    +0.000 A 
ATOM      9  C   UNL     1       5.783   3.817  13.889  0.00  0.00    +0.000 A 
ATOM     10  C   UNL     1       5.895   3.476  12.563  0.00  0.00    +0.000 A 
ATOM     11  O   UNL     1       6.971   4.089  12.008  0.00  0.00    +0.000 OA
ATOM     12  C   UNL     1       7.556   4.822  12.987  0.00  0.00    +0.000 A 
ENDBRANCH   7   8
ENDBRANCH   3   7
BRANCH   4  13
ATOM     13  C   UNL     1       4.261   5.717  19.283  0.00  0.00    +0.000 C 
BRANCH  13  14
ATOM     14  C   UNL     1       2.790   6.088  19.138  0.00  0.00    +0.000 C 
ATOM     15  C   UNL     1       2.283   7.446  19.597  0.00  0.00    +0.000 C 
ATOM     16  C   UNL     1       2.346   7.138  18.129  0.00  0.00    +0.000 C 
BRANCH  14  17
ATOM     17  C   UNL     1       1.923   4.847  19.331  0.00  0.00    +0.000 A 
ATOM     18  C   UNL     1       1.559   4.406  20.614  0.00  0.00    +0.000 A 
ATOM     19  C   UNL     1       1.038   3.126  20.817  0.00  0.00    +0.000 A 
ATOM     20  C   UNL     1       0.857   2.267  19.735  0.00  0.00    +0.000 A 
ATOM     21  C   UNL     1       1.148   2.705  18.447  0.00  0.00    +0.000 A 
ATOM     22  C   UNL     1       1.661   3.989  18.248  0.00  0.00    +0.000 A 
ENDBRANCH  14  17
ENDBRANCH  13  14
ENDBRANCH   4  13
TORSDOF 5
ENDMDL
MODEL 6
REMARK VINA RESULT:      -6.9      4.863      6.166
REMARK  Name = 
REMARK  5 active torsions:
REMARK  status: ('A' for Active; 'I' for Inactive)
REMARK    1  A    between atoms: N_3  and  C_4
REMARK    2  A    between atoms: C_4  and  C_5
REMARK    3  A    between atoms: N_10  and  C_11
REMARK    4  A    between atoms: C_11  and  C_12
REMARK    5  A    between atoms: C_12  and  C_13
REMARK                            x       y       z     vdW  Elec       q    Type
REMARK                         _______ _______ _______ _____ _____    ______ ____
ROOT
ATOM      1  O   UNL     1       5.559   6.002  18.118  0.00  0.00    +0.000 OA
ATOM      2  C   UNL     1       5.488   4.788  17.954  0.00  0.00    +0.000 C 
ATOM      3  N   UNL     1       6.276   4.096  17.085  0.00  0.00    +0.000 N 
ATOM      4  N   UNL     1       4.601   3.979  18.619  0.00  0.00    +0.000 N 
ATOM      5  H   UNL     1       6.098   3.118  16.920  0.00  0.00    +0.000 HD
ATOM      6  H   UNL     1       4.826   3.001  18.695  0.00  0.00    +0.000 HD
ENDROOT
BRANCH   3   7
ATOM      7  C   UNL     1       7.223   4.779  16.235  0.00  0.00    +0.000 C 
BRANCH   7   8
ATOM      8  C   UNL     1       6.888   4.493  14.817  0.00  0.00    +0.000 A 
ATOM      9  C   UNL     1       5.831   3.675  14.321  0.00  0.00    +0.000 A 
ATOM     10  C   UNL     1       5.942   3.680  12.952  0.00  0.00    +0.000 A 
ATOM     11  O   UNL     1       6.995   4.445  12.567  0.00  0.00    +0.000 OA
ATOM     12  C   UNL     1       7.566   4.929  13.697  0.00  0.00    +0.000 A 
ENDBRANCH   7   8
ENDBRANCH   3   7
BRANCH   4  13
ATOM     13  C   UNL     1       3.837   4.600  19.671  0.00  0.00    +0.000 C 
BRANCH  13  14
ATOM     14  C   UNL     1       2.399   4.984  19.341  0.00  0.00    +0.000 C 
ATOM     15  C   UNL     1       1.555   4.115  18.423  0.00  0.00    +0.000 C 
ATOM     16  C   UNL     1       1.232   4.176  19.888  0.00  0.00    +0.000 C 
BRANCH  14  17
ATOM     17  C   UNL     1       2.272   6.504  19.280  0.00  0.00    +0.000 A 
ATOM     18  C   UNL     1       1.828   7.243  20.390  0.00  0.00    +0.000 A 
ATOM     19  C   UNL     1       1.419   8.571  20.257  0.00  0.00    +0.000 A 
ATOM     20  C   UNL     1       1.459   9.191  19.010  0.00  0.00    +0.000 A 
ATOM     21  C   UNL     1       1.956   8.501  17.909  0.00  0.00    +0.000 A 
ATOM     22  C   UNL     1       2.373   7.176  18.049  0.00  0.00    +0.000 A 
ENDBRANCH  14  17
ENDBRANCH  13  14
ENDBRANCH   4  13
TORSDOF 5
ENDMDL
MODEL 7
REMARK VINA RESULT:      -6.9      4.311      7.071
REMARK  Name = 
REMARK  5 active torsions:
REMARK  status: ('A' for Active; 'I' for Inactive)
REMARK    1  A    between atoms: N_3  and  C_4
REMARK    2  A    between atoms: C_4  and  C_5
REMARK    3  A    between atoms: N_10  and  C_11
REMARK    4  A    between atoms: C_11  and  C_12
REMARK    5  A    between atoms: C_12  and  C_13
REMARK                            x       y       z     vdW  Elec       q    Type
REMARK                         _______ _______ _______ _____ _____    ______ ____
ROOT
ATOM      1  O   UNL     1       2.022   8.253  17.759  0.00  0.00    +0.000 OA
ATOM      2  C   UNL     1       2.190   7.727  18.854  0.00  0.00    +0.000 C 
ATOM      3  N   UNL     1       1.731   8.253  20.024  0.00  0.00    +0.000 N 
ATOM      4  N   UNL     1       2.868   6.548  19.038  0.00  0.00    +0.000 N 
ATOM      5  H   UNL     1       1.991   7.827  20.898  0.00  0.00    +0.000 HD
ATOM      6  H   UNL     1       2.671   6.020  19.872  0.00  0.00    +0.000 HD
ENDROOT
BRANCH   3   7
ATOM      7  C   UNL     1       1.058   9.531  20.050  0.00  0.00    +0.000 C 
BRANCH   7   8
ATOM      8  C   UNL     1       0.498   9.751  21.407  0.00  0.00    +0.000 A 
ATOM      9  C   UNL     1      -0.656  10.510  21.758  0.00  0.00    +0.000 A 
ATOM     10  C   UNL     1      -0.757  10.458  23.127  0.00  0.00    +0.000 A 
ATOM     11  O   UNL     1       0.255   9.718  23.647  0.00  0.00    +0.000 OA
ATOM     12  C   UNL     1       1.013   9.299  22.604  0.00  0.00    +0.000 A 
ENDBRANCH   7   8
ENDBRANCH   3   7
BRANCH   4  13
ATOM     13  C   UNL     1       3.251   5.839  17.842  0.00  0.00    +0.000 C 
BRANCH  13  14
ATOM     14  C   UNL     1       4.345   4.788  17.988  0.00  0.00    +0.000 C 
ATOM     15  C   UNL     1       4.121   3.548  18.838  0.00  0.00    +0.000 C 
ATOM     16  C   UNL     1       4.199   3.417  17.344  0.00  0.00    +0.000 C 
BRANCH  14  17
ATOM     17  C   UNL     1       5.714   5.462  17.971  0.00  0.00    +0.000 A 
ATOM     18  C   UNL     1       6.685   5.164  18.942  0.00  0.00    +0.000 A 
ATOM     19  C   UNL     1       7.803   5.980  19.120  0.00  0.00    +0.000 A 
ATOM     20  C   UNL     1       7.980   7.106  18.319  0.00  0.00    +0.000 A 
ATOM     21  C   UNL     1       7.066   7.385  17.307  0.00  0.00    +0.000 A 
ATOM     22  C   UNL     1       5.954   6.561  17.126  0.00  0.00    +0.000 A 
ENDBRANCH  14  17
ENDBRANCH  13  14
ENDBRANCH   4  13
TORSDOF 5
ENDMDL
MODEL 8
REMARK VINA RESULT:      -6.9      1.006      1.552
REMARK  Name = 
REMARK  5 active torsions:
REMARK  status: ('A' for Active; 'I' for Inactive)
REMARK    1  A    between atoms: N_3  and  C_4
REMARK    2  A    between atoms: C_4  and  C_5
REMARK    3  A    between atoms: N_10  and  C_11
REMARK    4  A    between atoms: C_11  and  C_12
REMARK    5  A    between atoms: C_12  and  C_13
REMARK                            x       y       z     vdW  Elec       q    Type
REMARK                         _______ _______ _______ _____ _____    ______ ____
ROOT
ATOM      1  O   UNL     1       8.539   7.373  18.932  0.00  0.00    +0.000 OA
ATOM      2  C   UNL     1       8.089   8.076  18.034  0.00  0.00    +0.000 C 
ATOM      3  N   UNL     1       8.327   9.414  17.929  0.00  0.00    +0.000 N 
ATOM      4  N   UNL     1       7.281   7.606  17.028  0.00  0.00    +0.000 N 
ATOM      5  H   UNL     1       7.844   9.954  17.230  0.00  0.00    +0.000 HD
ATOM      6  H   UNL     1       7.242   8.136  16.174  0.00  0.00    +0.000 HD
ENDROOT
BRANCH   3   7
ATOM      7  C   UNL     1       9.093  10.112  18.935  0.00  0.00    +0.000 C 
BRANCH   7   8
ATOM      8  C   UNL     1       9.726  11.303  18.315  0.00  0.00    +0.000 A 
ATOM      9  C   UNL     1      11.118  11.564  18.155  0.00  0.00    +0.000 A 
ATOM     10  C   UNL     1      11.220  12.801  17.567  0.00  0.00    +0.000 A 
ATOM     11  O   UNL     1       9.986  13.324  17.352  0.00  0.00    +0.000 OA
ATOM     12  C   UNL     1       9.088  12.418  17.812  0.00  0.00    +0.000 A 
ENDBRANCH   7   8
ENDBRANCH   3   7
BRANCH   4  13
ATOM     13  C   UNL     1       7.104   6.177  16.968  0.00  0.00    +0.000 C 
BRANCH  13  14
ATOM     14  C   UNL     1       5.779   5.672  16.411  0.00  0.00    +0.000 C 
ATOM     15  C   UNL     1       5.040   6.454  15.337  0.00  0.00    +0.000 C 
ATOM     16  C   UNL     1       5.682   5.143  14.988  0.00  0.00    +0.000 C 
BRANCH  14  17
ATOM     17  C   UNL     1       4.994   4.961  17.511  0.00  0.00    +0.000 A 
ATOM     18  C   UNL     1       4.466   3.674  17.312  0.00  0.00    +0.000 A 
ATOM     19  C   UNL     1       3.504   3.148  18.176  0.00  0.00    +0.000 A 
ATOM     20  C   UNL     1       3.061   3.894  19.266  0.00  0.00    +0.000 A 
ATOM     21  C   UNL     1       3.617   5.144  19.521  0.00  0.00    +0.000 A 
ATOM     22  C   UNL     1       4.586   5.663  18.659  0.00  0.00    +0.000 A 
ENDBRANCH  14  17
ENDBRANCH  13  14
ENDBRANCH   4  13
TORSDOF 5
ENDMDL
MODEL 9
REMARK VINA RESULT:      -6.9      4.780      8.069
REMARK  Name = 
REMARK  5 active torsions:
REMARK  status: ('A' for Active; 'I' for Inactive)
REMARK    1  A    between atoms: N_3  and  C_4
REMARK    2  A    between atoms: C_4  and  C_5
REMARK    3  A    between atoms: N_10  and  C_11
REMARK    4  A    between atoms: C_11  and  C_12
REMARK    5  A    between atoms: C_12  and  C_13
REMARK                            x       y       z     vdW  Elec       q    Type
REMARK                         _______ _______ _______ _____ _____    ______ ____
ROOT
ATOM      1  O   UNL     1       2.520   4.671  17.484  0.00  0.00    +0.000 OA
ATOM      2  C   UNL     1       3.250   5.495  18.025  0.00  0.00    +0.000 C 
ATOM      3  N   UNL     1       2.941   6.128  19.192  0.00  0.00    +0.000 N 
ATOM      4  N   UNL     1       4.463   5.888  17.518  0.00  0.00    +0.000 N 
ATOM      5  H   UNL     1       3.534   6.869  19.529  0.00  0.00    +0.000 HD
ATOM      6  H   UNL     1       5.133   6.279  18.160  0.00  0.00    +0.000 HD
ENDROOT
BRANCH   3   7
ATOM      7  C   UNL     1       1.672   5.907  19.843  0.00  0.00    +0.000 C 
BRANCH   7   8
ATOM      8  C   UNL     1       1.726   4.618  20.577  0.00  0.00    +0.000 A 
ATOM      9  C   UNL     1       0.907   3.469  20.377  0.00  0.00    +0.000 A 
ATOM     10  C   UNL     1       1.298   2.542  21.312  0.00  0.00    +0.000 A 
ATOM     11  O   UNL     1       2.304   3.038  22.076  0.00  0.00    +0.000 OA
ATOM     12  C   UNL     1       2.554   4.295  21.632  0.00  0.00    +0.000 A 
ENDBRANCH   7   8
ENDBRANCH   3   7
BRANCH   4  13
ATOM     13  C   UNL     1       4.943   5.157  16.373  0.00  0.00    +0.000 C 
BRANCH  13  14
ATOM     14  C   UNL     1       6.453   5.104  16.175  0.00  0.00    +0.000 C 
ATOM     15  C   UNL     1       7.364   6.093  16.883  0.00  0.00    +0.000 C 
ATOM     16  C   UNL     1       7.371   4.651  17.301  0.00  0.00    +0.000 C 
BRANCH  14  17
ATOM     17  C   UNL     1       6.772   4.662  14.749  0.00  0.00    +0.000 A 
ATOM     18  C   UNL     1       7.695   5.366  13.958  0.00  0.00    +0.000 A 
ATOM     19  C   UNL     1       7.765   5.164  12.578  0.00  0.00    +0.000 A 
ATOM     20  C   UNL     1       6.921   4.242  11.964  0.00  0.00    +0.000 A 
ATOM     21  C   UNL     1       6.044   3.486  12.735  0.00  0.00    +0.000 A 
ATOM     22  C   UNL     1       5.983   3.684  14.116  0.00  0.00    +0.000 A 
ENDBRANCH  14  17
ENDBRANCH  13  14
ENDBRANCH   4  13
TORSDOF 5
ENDMDL
