MODEL 1
REMARK VINA RESULT:      -8.7      0.000      0.000
REMARK  Name = 
REMARK  11 active torsions:
REMARK  status: ('A' for Active; 'I' for Inactive)
REMARK    1  A    between atoms: C_1  and  C_2
REMARK    2  A    between atoms: C_2  and  O_3
REMARK    3  A    between atoms: O_3  and  C_4
REMARK    4  A    between atoms: C_4  and  C_6
REMARK    5  A    between atoms: C_6  and  O_7
REMARK    6  A    between atoms: C_8  and  C_9
REMARK    7  A    between atoms: C_9  and  C_11
REMARK    8  A    between atoms: C_12  and  C_13
REMARK    9  A    between atoms: N_15  and  C_16
REMARK   10  A    between atoms: C_16  and  C_17
REMARK   11  A    between atoms: C_25  and  C_26
REMARK                            x       y       z     vdW  Elec       q    Type
REMARK                         _______ _______ _______ _____ _____    ______ ____
ROOT
ATOM      1  C   UNL     1       3.611   6.515  17.759  0.00  0.00    +0.000 A 
ATOM      2  C   UNL     1       3.654   7.866  17.485  0.00  0.00    +0.000 A 
ATOM      3  N   UNL     1       2.570   8.451  18.088  0.00  0.00    +0.000 N 
ATOM      4  C   UNL     1       1.880   7.503  18.801  0.00  0.00    +0.000 A 
ATOM      5  C   UNL     1       2.499   6.276  18.627  0.00  0.00    +0.000 A 
ENDROOT
BRANCH   5   6
ATOM      6  C   UNL     1       2.052   5.067  19.314  0.00  0.00    +0.000 A 
ATOM      7  C   UNL     1       2.213   4.909  20.696  0.00  0.00    +0.000 A 
ATOM      8  C   UNL     1       1.823   3.724  21.330  0.00  0.00    +0.000 A 
ATOM      9  C   UNL     1       1.251   2.692  20.589  0.00  0.00    +0.000 A 
ATOM     10  C   UNL     1       1.076   2.842  19.218  0.00  0.00    +0.000 A 
ATOM     11  C   UNL     1       1.482   4.014  18.586  0.00  0.00    +0.000 A 
ENDBRANCH   5   6
BRANCH   1  13
ATOM     12  C   UNL     1       5.867   5.895  17.012  0.00  0.00    +0.000 C 
ATOM     13  C   UNL     1       4.589   5.588  17.296  0.00  0.00    +0.000 C 
BRANCH  12  14
ATOM     14  C   UNL     1       6.765   4.825  16.489  0.00  0.00    +0.000 C 
ATOM     15  O   UNL     1       7.696   4.395  17.158  0.00  0.00    +0.000 OA
BRANCH  14  17
ATOM     16  C   UNL     1       7.063   4.752  14.014  0.00  0.00    +0.000 C 
ATOM     17  C   UNL     1       6.429   4.332  15.126  0.00  0.00    +0.000 C 
BRANCH  16  18
ATOM     18  C   UNL     1       6.675   4.126  12.709  0.00  0.00    +0.000 C 
ATOM     19  O   UNL     1       7.356   4.105  11.699  0.00  0.00    +0.000 OA
BRANCH  18  20
ATOM     20  O   UNL     1       5.388   3.695  12.837  0.00  0.00    +0.000 OA
BRANCH  20  22
ATOM     21  C   UNL     1       3.800   3.424  11.079  0.00  0.00    +0.000 C 
ATOM     22  C   UNL     1       4.956   2.775  11.823  0.00  0.00    +0.000 C 
ENDBRANCH  20  22
ENDBRANCH  18  20
ENDBRANCH  16  18
BRANCH  16  23
ATOM     23  O   UNL     1       8.092   5.674  14.026  0.00  0.00    +0.000 OA
ATOM     24  H   UNL     1       7.775   6.453  13.531  0.00  0.00    +0.000 HD
ENDBRANCH  16  23
ENDBRANCH  14  17
ENDBRANCH  12  14
ENDBRANCH   1  13
BRANCH   3  25
ATOM     25  C   UNL     1       2.222   9.867  18.043  0.00  0.00    +0.000 C 
BRANCH  25  26
ATOM     26  C   UNL     1       0.740  10.062  18.250  0.00  0.00    +0.000 A 
ATOM     27  C   UNL     1      -0.184   9.549  17.324  0.00  0.00    +0.000 A 
ATOM     28  C   UNL     1      -1.548   9.806  17.469  0.00  0.00    +0.000 A 
ATOM     29  C   UNL     1      -1.991  10.566  18.545  0.00  0.00    +0.000 A 
ATOM     30  F   UNL     1      -3.298  10.831  18.672  0.00  0.00    +0.000 F 
ATOM     31  C   UNL     1      -1.098  11.062  19.486  0.00  0.00    +0.000 A 
ATOM     32  C   UNL     1       0.268  10.813  19.339  0.00  0.00    +0.000 A 
ENDBRANCH  25  26
ENDBRANCH   3  25
TORSDOF 10
ENDMDL
MODEL 2
REMARK VINA RESULT:      -8.5      1.214      1.770
REMARK  Name = 
REMARK  11 active torsions:
REMARK  status: ('A' for Active; 'I' for Inactive)
REMARK    1  A    between atoms: C_1  and  C_2
REMARK    2  A    between atoms: C_2  and  O_3
REMARK    3  A    between atoms: O_3  and  C_4
REMARK    4  A    between atoms: C_4  and  C_6
REMARK    5  A    between atoms: C_6  and  O_7
REMARK    6  A    between atoms: C_8  and  C_9
REMARK    7  A    between atoms: C_9  and  C_11
REMARK    8  A    between atoms: C_12  and  C_13
REMARK    9  A    between atoms: N_15  and  C_16
REMARK   10  A    between atoms: C_16  and  C_17
REMARK   11  A    between atoms: C_25  and  C_26
REMARK                            x       y       z     vdW  Elec       q    Type
REMARK                         _______ _______ _______ _____ _____    ______ ____
ROOT
ATOM      1  C   UNL     1       3.595   6.268  17.516  0.00  0.00    +0.000 A 
ATOM      2  C   UNL     1       3.553   7.635  17.333  0.00  0.00    +0.000 A 
ATOM      3  N   UNL     1       2.422   8.106  17.948  0.00  0.00    +0.000 N 
ATOM      4  C   UNL     1       1.783   7.069  18.581  0.00  0.00    +0.000 A 
ATOM      5  C   UNL     1       2.485   5.899  18.339  0.00  0.00    +0.000 A 
ENDROOT
BRANCH   5   6
ATOM      6  C   UNL     1       2.106   4.620  18.934  0.00  0.00    +0.000 A 
ATOM      7  C   UNL     1       1.538   3.595  18.167  0.00  0.00    +0.000 A 
ATOM      8  C   UNL     1       1.137   2.394  18.763  0.00  0.00    +0.000 A 
ATOM      9  C   UNL     1       1.317   2.200  20.130  0.00  0.00    +0.000 A 
ATOM     10  C   UNL     1       1.891   3.206  20.901  0.00  0.00    +0.000 A 
ATOM     11  C   UNL     1       2.271   4.407  20.310  0.00  0.00    +0.000 A 
ENDBRANCH   5   6
BRANCH   1  13
ATOM     12  C   UNL     1       5.953   5.710  17.119  0.00  0.00    +0.000 C 
ATOM     13  C   UNL     1       4.641   5.439  17.015  0.00  0.00    +0.000 C 
BRANCH  12  14
ATOM     14  C   UNL     1       6.933   4.769  16.503  0.00  0.00    +0.000 C 
ATOM     15  O   UNL     1       7.930   4.402  17.113  0.00  0.00    +0.000 OA
BRANCH  14  17
ATOM     16  C   UNL     1       7.223   4.780  14.026  0.00  0.00    +0.000 C 
ATOM     17  C   UNL     1       6.594   4.321  15.125  0.00  0.00    +0.000 C 
BRANCH  16  18
ATOM     18  C   UNL     1       6.833   4.196  12.703  0.00  0.00    +0.000 C 
ATOM     19  O   UNL     1       7.360   4.442  11.632  0.00  0.00    +0.000 OA
BRANCH  18  20
ATOM     20  O   UNL     1       5.717   3.441  12.910  0.00  0.00    +0.000 OA
BRANCH  20  22
ATOM     21  C   UNL     1       4.049   3.204  11.222  0.00  0.00    +0.000 C 
ATOM     22  C   UNL     1       5.328   2.619  11.798  0.00  0.00    +0.000 C 
ENDBRANCH  20  22
ENDBRANCH  18  20
ENDBRANCH  16  18
BRANCH  16  23
ATOM     23  O   UNL     1       8.251   5.702  14.065  0.00  0.00    +0.000 OA
ATOM     24  H   UNL     1       7.857   6.568  13.846  0.00  0.00    +0.000 HD
ENDBRANCH  16  23
ENDBRANCH  14  17
ENDBRANCH  12  14
ENDBRANCH   1  13
BRANCH   3  25
ATOM     25  C   UNL     1       1.983   9.496  17.990  0.00  0.00    +0.000 C 
BRANCH  25  26
ATOM     26  C   UNL     1       1.194   9.772  19.247  0.00  0.00    +0.000 A 
ATOM     27  C   UNL     1       1.501   9.103  20.444  0.00  0.00    +0.000 A 
ATOM     28  C   UNL     1       0.715   9.294  21.582  0.00  0.00    +0.000 A 
ATOM     29  C   UNL     1      -0.371  10.160  21.528  0.00  0.00    +0.000 A 
ATOM     30  F   UNL     1      -1.137  10.325  22.613  0.00  0.00    +0.000 F 
ATOM     31  C   UNL     1      -0.677  10.849  20.362  0.00  0.00    +0.000 A 
ATOM     32  C   UNL     1       0.102  10.655  19.220  0.00  0.00    +0.000 A 
ENDBRANCH  25  26
ENDBRANCH   3  25
TORSDOF 10
ENDMDL
MODEL 3
REMARK VINA RESULT:      -8.4      0.823      1.391
REMARK  Name = 
REMARK  11 active torsions:
REMARK  status: ('A' for Active; 'I' for Inactive)
REMARK    1  A    between atoms: C_1  and  C_2
REMARK    2  A    between atoms: C_2  and  O_3
REMARK    3  A    between atoms: O_3  and  C_4
REMARK    4  A    between atoms: C_4  and  C_6
REMARK    5  A    between atoms: C_6  and  O_7
REMARK    6  A    between atoms: C_8  and  C_9
REMARK    7  A    between atoms: C_9  and  C_11
REMARK    8  A    between atoms: C_12  and  C_13
REMARK    9  A    between atoms: N_15  and  C_16
REMARK   10  A    between atoms: C_16  and  C_17
REMARK   11  A    between atoms: C_25  and  C_26
REMARK                            x       y       z     vdW  Elec       q    Type
REMARK                         _______ _______ _______ _____ _____    ______ ____
ROOT
ATOM      1  C   UNL     1       3.482   7.078  17.930  0.00  0.00    +0.000 A 
ATOM      2  C   UNL     1       3.377   8.443  17.761  0.00  0.00    +0.000 A 
ATOM      3  N   UNL     1       2.188   8.844  18.315  0.00  0.00    +0.000 N 
ATOM      4  C   UNL     1       1.571   7.765  18.896  0.00  0.00    +0.000 A 
ATOM      5  C   UNL     1       2.348   6.638  18.682  0.00  0.00    +0.000 A 
ENDROOT
BRANCH   5   6
ATOM      6  C   UNL     1       2.006   5.331  19.238  0.00  0.00    +0.000 A 
ATOM      7  C   UNL     1       1.592   4.272  18.420  0.00  0.00    +0.000 A 
ATOM      8  C   UNL     1       1.222   3.043  18.975  0.00  0.00    +0.000 A 
ATOM      9  C   UNL     1       1.279   2.854  20.354  0.00  0.00    +0.000 A 
ATOM     10  C   UNL     1       1.700   3.893  21.176  0.00  0.00    +0.000 A 
ATOM     11  C   UNL     1       2.050   5.122  20.624  0.00  0.00    +0.000 A 
ENDBRANCH   5   6
BRANCH   1  13
ATOM     12  C   UNL     1       5.568   5.828  18.277  0.00  0.00    +0.000 C 
ATOM     13  C   UNL     1       4.599   6.315  17.481  0.00  0.00    +0.000 C 
BRANCH  12  14
ATOM     14  C   UNL     1       6.703   5.086  17.656  0.00  0.00    +0.000 C 
ATOM     15  O   UNL     1       7.474   4.421  18.338  0.00  0.00    +0.000 OA
BRANCH  14  17
ATOM     16  C   UNL     1       6.506   4.205  15.332  0.00  0.00    +0.000 C 
ATOM     17  C   UNL     1       6.803   5.211  16.177  0.00  0.00    +0.000 C 
BRANCH  16  18
ATOM     18  C   UNL     1       6.582   4.483  13.861  0.00  0.00    +0.000 C 
ATOM     19  O   UNL     1       7.446   5.137  13.303  0.00  0.00    +0.000 OA
BRANCH  18  20
ATOM     20  O   UNL     1       5.453   3.969  13.296  0.00  0.00    +0.000 OA
BRANCH  20  22
ATOM     21  C   UNL     1       4.368   3.157  11.334  0.00  0.00    +0.000 C 
ATOM     22  C   UNL     1       5.672   3.182  12.115  0.00  0.00    +0.000 C 
ENDBRANCH  20  22
ENDBRANCH  18  20
ENDBRANCH  16  18
BRANCH  16  23
ATOM     23  O   UNL     1       6.072   2.962  15.748  0.00  0.00    +0.000 OA
ATOM     24  H   UNL     1       5.929   2.431  14.942  0.00  0.00    +0.000 HD
ENDBRANCH  16  23
ENDBRANCH  14  17
ENDBRANCH  12  14
ENDBRANCH   1  13
BRANCH   3  25
ATOM     25  C   UNL     1       1.672  10.207  18.347  0.00  0.00    +0.000 C 
BRANCH  25  26
ATOM     26  C   UNL     1       0.163  10.211  18.301  0.00  0.00    +0.000 A 
ATOM     27  C   UNL     1      -0.520   9.619  17.225  0.00  0.00    +0.000 A 
ATOM     28  C   UNL     1      -1.911   9.700  17.140  0.00  0.00    +0.000 A 
ATOM     29  C   UNL     1      -2.621  10.364  18.134  0.00  0.00    +0.000 A 
ATOM     30  F   UNL     1      -3.953  10.461  18.039  0.00  0.00    +0.000 F 
ATOM     31  C   UNL     1      -1.968  10.936  19.217  0.00  0.00    +0.000 A 
ATOM     32  C   UNL     1      -0.576  10.863  19.302  0.00  0.00    +0.000 A 
ENDBRANCH  25  26
ENDBRANCH   3  25
TORSDOF 10
ENDMDL
MODEL 4
REMARK VINA RESULT:      -8.3      1.548      1.964
REMARK  Name = 
REMARK  11 active torsions:
REMARK  status: ('A' for Active; 'I' for Inactive)
REMARK    1  A    between atoms: C_1  and  C_2
REMARK    2  A    between atoms: C_2  and  O_3
REMARK    3  A    between atoms: O_3  and  C_4
REMARK    4  A    between atoms: C_4  and  C_6
REMARK    5  A    between atoms: C_6  and  O_7
REMARK    6  A    between atoms: C_8  and  C_9
REMARK    7  A    between atoms: C_9  and  C_11
REMARK    8  A    between atoms: C_12  and  C_13
REMARK    9  A    between atoms: N_15  and  C_16
REMARK   10  A    between atoms: C_16  and  C_17
REMARK   11  A    between atoms: C_25  and  C_26
REMARK                            x       y       z     vdW  Elec       q    Type
REMARK                         _______ _______ _______ _____ _____    ______ ____
ROOT
ATOM      1  C   UNL     1       3.353   6.814  17.977  0.00  0.00    +0.000 A 
ATOM      2  C   UNL     1       3.203   8.181  17.870  0.00  0.00    +0.000 A 
ATOM      3  N   UNL     1       1.968   8.507  18.367  0.00  0.00    +0.000 N 
ATOM      4  C   UNL     1       1.360   7.377  18.854  0.00  0.00    +0.000 A 
ATOM      5  C   UNL     1       2.194   6.293  18.634  0.00  0.00    +0.000 A 
ENDROOT
BRANCH   5   6
ATOM      6  C   UNL     1       1.871   4.947  19.101  0.00  0.00    +0.000 A 
ATOM      7  C   UNL     1       1.892   4.620  20.463  0.00  0.00    +0.000 A 
ATOM      8  C   UNL     1       1.628   3.314  20.889  0.00  0.00    +0.000 A 
ATOM      9  C   UNL     1       1.321   2.325  19.957  0.00  0.00    +0.000 A 
ATOM     10  C   UNL     1       1.284   2.640  18.603  0.00  0.00    +0.000 A 
ATOM     11  C   UNL     1       1.566   3.936  18.180  0.00  0.00    +0.000 A 
ENDBRANCH   5   6
BRANCH   1  13
ATOM     12  C   UNL     1       5.144   5.160  18.275  0.00  0.00    +0.000 C 
ATOM     13  C   UNL     1       4.525   6.116  17.562  0.00  0.00    +0.000 C 
BRANCH  12  14
ATOM     14  C   UNL     1       6.392   4.551  17.732  0.00  0.00    +0.000 C 
ATOM     15  O   UNL     1       7.318   4.237  18.470  0.00  0.00    +0.000 OA
BRANCH  14  17
ATOM     16  C   UNL     1       7.056   5.175  15.411  0.00  0.00    +0.000 C 
ATOM     17  C   UNL     1       6.406   4.354  16.257  0.00  0.00    +0.000 C 
BRANCH  16  18
ATOM     18  C   UNL     1       7.048   4.826  13.954  0.00  0.00    +0.000 C 
ATOM     19  O   UNL     1       7.726   5.355  13.090  0.00  0.00    +0.000 OA
BRANCH  18  20
ATOM     20  O   UNL     1       6.066   3.898  13.768  0.00  0.00    +0.000 OA
BRANCH  20  22
ATOM     21  C   UNL     1       4.719   3.413  11.861  0.00  0.00    +0.000 C 
ATOM     22  C   UNL     1       6.091   3.239  12.492  0.00  0.00    +0.000 C 
ENDBRANCH  20  22
ENDBRANCH  18  20
ENDBRANCH  16  18
BRANCH  16  23
ATOM     23  O   UNL     1       7.781   6.276  15.823  0.00  0.00    +0.000 OA
ATOM     24  H   UNL     1       7.179   6.820  16.365  0.00  0.00    +0.000 HD
ENDBRANCH  16  23
ENDBRANCH  14  17
ENDBRANCH  12  14
ENDBRANCH   1  13
BRANCH   3  25
ATOM     25  C   UNL     1       1.396   9.847  18.435  0.00  0.00    +0.000 C 
BRANCH  25  26
ATOM     26  C   UNL     1       0.775  10.098  19.788  0.00  0.00    +0.000 A 
ATOM     27  C   UNL     1       1.220   9.393  20.920  0.00  0.00    +0.000 A 
ATOM     28  C   UNL     1       0.586   9.562  22.152  0.00  0.00    +0.000 A 
ATOM     29  C   UNL     1      -0.484  10.442  22.257  0.00  0.00    +0.000 A 
ATOM     30  F   UNL     1      -1.106  10.587  23.434  0.00  0.00    +0.000 F 
ATOM     31  C   UNL     1      -0.924  11.167  21.157  0.00  0.00    +0.000 A 
ATOM     32  C   UNL     1      -0.298  10.995  19.922  0.00  0.00    +0.000 A 
ENDBRANCH  25  26
ENDBRANCH   3  25
TORSDOF 10
ENDMDL
MODEL 5
REMARK VINA RESULT:      -8.2      4.807      9.032
REMARK  Name = 
REMARK  11 active torsions:
REMARK  status: ('A' for Active; 'I' for Inactive)
REMARK    1  A    between atoms: C_1  and  C_2
REMARK    2  A    between atoms: C_2  and  O_3
REMARK    3  A    between atoms: O_3  and  C_4
REMARK    4  A    between atoms: C_4  and  C_6
REMARK    5  A    between atoms: C_6  and  O_7
REMARK    6  A    between atoms: C_8  and  C_9
REMARK    7  A    between atoms: C_9  and  C_11
REMARK    8  A    between atoms: C_12  and  C_13
REMARK    9  A    between atoms: N_15  and  C_16
REMARK   10  A    between atoms: C_16  and  C_17
REMARK   11  A    between atoms: C_25  and  C_26
REMARK                            x       y       z     vdW  Elec       q    Type
REMARK                         _______ _______ _______ _____ _____    ______ ____
ROOT
ATOM      1  C   UNL     1       3.744   6.958  17.739  0.00  0.00    +0.000 A 
ATOM      2  C   UNL     1       4.885   7.135  16.985  0.00  0.00    +0.000 A 
ATOM      3  N   UNL     1       5.605   5.970  17.034  0.00  0.00    +0.000 N 
ATOM      4  C   UNL     1       4.904   5.031  17.749  0.00  0.00    +0.000 A 
ATOM      5  C   UNL     1       3.730   5.606  18.207  0.00  0.00    +0.000 A 
ENDROOT
BRANCH   5   6
ATOM      6  C   UNL     1       2.720   4.849  18.943  0.00  0.00    +0.000 A 
ATOM      7  C   UNL     1       2.651   4.888  20.341  0.00  0.00    +0.000 A 
ATOM      8  C   UNL     1       1.708   4.118  21.032  0.00  0.00    +0.000 A 
ATOM      9  C   UNL     1       0.813   3.316  20.329  0.00  0.00    +0.000 A 
ATOM     10  C   UNL     1       0.864   3.278  18.940  0.00  0.00    +0.000 A 
ATOM     11  C   UNL     1       1.815   4.029  18.255  0.00  0.00    +0.000 A 
ENDBRANCH   5   6
BRANCH   1  13
ATOM     12  C   UNL     1       2.114   8.231  19.064  0.00  0.00    +0.000 C 
ATOM     13  C   UNL     1       2.750   7.965  17.910  0.00  0.00    +0.000 C 
BRANCH  12  14
ATOM     14  C   UNL     1       1.060   9.286  19.079  0.00  0.00    +0.000 C 
ATOM     15  O   UNL     1       0.410   9.547  18.074  0.00  0.00    +0.000 OA
BRANCH  14  17
ATOM     16  C   UNL     1       0.170   9.417  21.404  0.00  0.00    +0.000 C 
ATOM     17  C   UNL     1       0.866   9.964  20.389  0.00  0.00    +0.000 C 
BRANCH  16  18
ATOM     18  C   UNL     1       0.108  10.174  22.696  0.00  0.00    +0.000 C 
ATOM     19  O   UNL     1       0.256   9.698  23.809  0.00  0.00    +0.000 OA
BRANCH  18  20
ATOM     20  O   UNL     1      -0.254  11.453  22.396  0.00  0.00    +0.000 OA
BRANCH  20  22
ATOM     21  C   UNL     1      -2.294  12.434  21.645  0.00  0.00    +0.000 C 
ATOM     22  C   UNL     1      -1.569  11.828  22.836  0.00  0.00    +0.000 C 
ENDBRANCH  20  22
ENDBRANCH  18  20
ENDBRANCH  16  18
BRANCH  16  23
ATOM     23  O   UNL     1      -0.426   8.173  21.338  0.00  0.00    +0.000 OA
ATOM     24  H   UNL     1       0.234   7.567  20.950  0.00  0.00    +0.000 HD
ENDBRANCH  16  23
ENDBRANCH  14  17
ENDBRANCH  12  14
ENDBRANCH   1  13
BRANCH   3  25
ATOM     25  C   UNL     1       6.888   5.724  16.384  0.00  0.00    +0.000 C 
BRANCH  25  26
ATOM     26  C   UNL     1       6.695   4.999  15.074  0.00  0.00    +0.000 A 
ATOM     27  C   UNL     1       7.559   5.239  13.991  0.00  0.00    +0.000 A 
ATOM     28  C   UNL     1       7.327   4.634  12.755  0.00  0.00    +0.000 A 
ATOM     29  C   UNL     1       6.239   3.783  12.601  0.00  0.00    +0.000 A 
ATOM     30  F   UNL     1       6.005   3.221  11.409  0.00  0.00    +0.000 F 
ATOM     31  C   UNL     1       5.388   3.513  13.665  0.00  0.00    +0.000 A 
ATOM     32  C   UNL     1       5.613   4.122  14.900  0.00  0.00    +0.000 A 
ENDBRANCH  25  26
ENDBRANCH   3  25
TORSDOF 10
ENDMDL
MODEL 6
REMARK VINA RESULT:      -8.2      5.033      9.280
REMARK  Name = 
REMARK  11 active torsions:
REMARK  status: ('A' for Active; 'I' for Inactive)
REMARK    1  A    between atoms: C_1  and  C_2
REMARK    2  A    between atoms: C_2  and  O_3
REMARK    3  A    between atoms: O_3  and  C_4
REMARK    4  A    between atoms: C_4  and  C_6
REMARK    5  A    between atoms: C_6  and  O_7
REMARK    6  A    between atoms: C_8  and  C_9
REMARK    7  A    between atoms: C_9  and  C_11
REMARK    8  A    between atoms: C_12  and  C_13
REMARK    9  A    between atoms: N_15  and  C_16
REMARK   10  A    between atoms: C_16  and  C_17
REMARK   11  A    between atoms: C_25  and  C_26
REMARK                            x       y       z     vdW  Elec       q    Type
REMARK                         _______ _______ _______ _____ _____    ______ ____
ROOT
ATOM      1  C   UNL     1       3.679   6.716  17.690  0.00  0.00    +0.000 A 
ATOM      2  C   UNL     1       4.793   6.926  16.904  0.00  0.00    +0.000 A 
ATOM      3  N   UNL     1       5.558   5.789  16.950  0.00  0.00    +0.000 N 
ATOM      4  C   UNL     1       4.912   4.835  17.695  0.00  0.00    +0.000 A 
ATOM      5  C   UNL     1       3.729   5.371  18.176  0.00  0.00    +0.000 A 
ENDROOT
BRANCH   5   6
ATOM      6  C   UNL     1       2.769   4.587  18.948  0.00  0.00    +0.000 A 
ATOM      7  C   UNL     1       1.872   3.707  18.327  0.00  0.00    +0.000 A 
ATOM      8  C   UNL     1       0.927   3.001  19.079  0.00  0.00    +0.000 A 
ATOM      9  C   UNL     1       0.882   3.153  20.462  0.00  0.00    +0.000 A 
ATOM     10  C   UNL     1       1.774   4.013  21.092  0.00  0.00    +0.000 A 
ATOM     11  C   UNL     1       2.701   4.730  20.341  0.00  0.00    +0.000 A 
ENDBRANCH   5   6
BRANCH   1  13
ATOM     12  C   UNL     1       2.273   8.192  19.060  0.00  0.00    +0.000 C 
ATOM     13  C   UNL     1       2.652   7.687  17.873  0.00  0.00    +0.000 C 
BRANCH  12  14
ATOM     14  C   UNL     1       1.147   9.169  19.101  0.00  0.00    +0.000 C 
ATOM     15  O   UNL     1       0.646   9.602  18.070  0.00  0.00    +0.000 OA
BRANCH  14  17
ATOM     16  C   UNL     1      -0.040  10.650  20.717  0.00  0.00    +0.000 C 
ATOM     17  C   UNL     1       0.692   9.548  20.466  0.00  0.00    +0.000 C 
BRANCH  16  18
ATOM     18  C   UNL     1      -0.492  10.882  22.127  0.00  0.00    +0.000 C 
ATOM     19  O   UNL     1      -0.022  10.357  23.122  0.00  0.00    +0.000 OA
BRANCH  18  20
ATOM     20  O   UNL     1      -1.588  11.690  22.070  0.00  0.00    +0.000 OA
BRANCH  20  22
ATOM     21  C   UNL     1      -1.204  13.770  23.172  0.00  0.00    +0.000 C 
ATOM     22  C   UNL     1      -1.873  12.409  23.281  0.00  0.00    +0.000 C 
ENDBRANCH  20  22
ENDBRANCH  18  20
ENDBRANCH  16  18
BRANCH  16  23
ATOM     23  O   UNL     1      -0.450  11.533  19.738  0.00  0.00    +0.000 OA
ATOM     24  H   UNL     1      -0.738  10.993  18.977  0.00  0.00    +0.000 HD
ENDBRANCH  16  23
ENDBRANCH  14  17
ENDBRANCH  12  14
ENDBRANCH   1  13
BRANCH   3  25
ATOM     25  C   UNL     1       6.832   5.583  16.269  0.00  0.00    +0.000 C 
BRANCH  25  26
ATOM     26  C   UNL     1       6.620   4.960  14.911  0.00  0.00    +0.000 A 
ATOM     27  C   UNL     1       5.520   4.117  14.675  0.00  0.00    +0.000 A 
ATOM     28  C   UNL     1       5.374   3.472  13.446  0.00  0.00    +0.000 A 
ATOM     29  C   UNL     1       6.320   3.676  12.448  0.00  0.00    +0.000 A 
ATOM     30  F   UNL     1       6.191   3.040  11.277  0.00  0.00    +0.000 F 
ATOM     31  C   UNL     1       7.401   4.524  12.651  0.00  0.00    +0.000 A 
ATOM     32  C   UNL     1       7.554   5.164  13.882  0.00  0.00    +0.000 A 
ENDBRANCH  25  26
ENDBRANCH   3  25
TORSDOF 10
ENDMDL
MODEL 7
REMARK VINA RESULT:      -8.2      4.817      8.815
REMARK  Name = 
REMARK  11 active torsions:
REMARK  status: ('A' for Active; 'I' for Inactive)
REMARK    1  A    between atoms: C_1  and  C_2
REMARK    2  A    between atoms: C_2  and  O_3
REMARK    3  A    between atoms: O_3  and  C_4
REMARK    4  A    between atoms: C_4  and  C_6
REMARK    5  A    between atoms: C_6  and  O_7
REMARK    6  A    between atoms: C_8  and  C_9
REMARK    7  A    between atoms: C_9  and  C_11
REMARK    8  A    between atoms: C_12  and  C_13
REMARK    9  A    between atoms: N_15  and  C_16
REMARK   10  A    between atoms: C_16  and  C_17
REMARK   11  A    between atoms: C_25  and  C_26
REMARK                            x       y       z     vdW  Elec       q    Type
REMARK                         _______ _______ _______ _____ _____    ______ ____
ROOT
ATOM      1  C   UNL     1       3.415   6.720  18.033  0.00  0.00    +0.000 A 
ATOM      2  C   UNL     1       4.496   7.070  17.252  0.00  0.00    +0.000 A 
ATOM      3  N   UNL     1       5.376   6.019  17.259  0.00  0.00    +0.000 N 
ATOM      4  C   UNL     1       4.837   4.979  17.974  0.00  0.00    +0.000 A 
ATOM      5  C   UNL     1       3.607   5.373  18.475  0.00  0.00    +0.000 A 
ENDROOT
BRANCH   5   6
ATOM      6  C   UNL     1       2.738   4.469  19.223  0.00  0.00    +0.000 A 
ATOM      7  C   UNL     1       1.783   3.671  18.580  0.00  0.00    +0.000 A 
ATOM      8  C   UNL     1       0.926   2.846  19.318  0.00  0.00    +0.000 A 
ATOM      9  C   UNL     1       1.029   2.798  20.706  0.00  0.00    +0.000 A 
ATOM     10  C   UNL     1       1.981   3.576  21.355  0.00  0.00    +0.000 A 
ATOM     11  C   UNL     1       2.820   4.410  20.621  0.00  0.00    +0.000 A 
ENDBRANCH   5   6
BRANCH   1  13
ATOM     12  C   UNL     1       2.174   8.824  17.773  0.00  0.00    +0.000 C 
ATOM     13  C   UNL     1       2.293   7.573  18.250  0.00  0.00    +0.000 C 
BRANCH  12  14
ATOM     14  C   UNL     1       0.959   9.615  18.124  0.00  0.00    +0.000 C 
ATOM     15  O   UNL     1      -0.042   9.586  17.418  0.00  0.00    +0.000 OA
BRANCH  14  17
ATOM     16  C   UNL     1       0.866  11.740  19.424  0.00  0.00    +0.000 C 
ATOM     17  C   UNL     1       1.066  10.410  19.377  0.00  0.00    +0.000 C 
BRANCH  16  18
ATOM     18  C   UNL     1       0.936  12.411  20.762  0.00  0.00    +0.000 C 
ATOM     19  O   UNL     1       1.266  13.567  20.964  0.00  0.00    +0.000 OA
BRANCH  18  20
ATOM     20  O   UNL     1       0.678  11.458  21.703  0.00  0.00    +0.000 OA
BRANCH  20  22
ATOM     21  C   UNL     1      -0.871  10.306  23.103  0.00  0.00    +0.000 C 
ATOM     22  C   UNL     1      -0.568  11.619  22.400  0.00  0.00    +0.000 C 
ENDBRANCH  20  22
ENDBRANCH  18  20
ENDBRANCH  16  18
BRANCH  16  23
ATOM     23  O   UNL     1       0.533  12.501  18.320  0.00  0.00    +0.000 OA
ATOM     24  H   UNL     1       0.239  13.369  18.657  0.00  0.00    +0.000 HD
ENDBRANCH  16  23
ENDBRANCH  14  17
ENDBRANCH  12  14
ENDBRANCH   1  13
BRANCH   3  25
ATOM     25  C   UNL     1       6.660   5.968  16.569  0.00  0.00    +0.000 C 
BRANCH  25  26
ATOM     26  C   UNL     1       6.557   5.158  15.299  0.00  0.00    +0.000 A 
ATOM     27  C   UNL     1       7.533   5.276  14.295  0.00  0.00    +0.000 A 
ATOM     28  C   UNL     1       7.390   4.593  13.086  0.00  0.00    +0.000 A 
ATOM     29  C   UNL     1       6.277   3.786  12.883  0.00  0.00    +0.000 A 
ATOM     30  F   UNL     1       6.129   3.149  11.714  0.00  0.00    +0.000 F 
ATOM     31  C   UNL     1       5.313   3.637  13.870  0.00  0.00    +0.000 A 
ATOM     32  C   UNL     1       5.449   4.324  15.078  0.00  0.00    +0.000 A 
ENDBRANCH  25  26
ENDBRANCH   3  25
TORSDOF 10
ENDMDL
MODEL 8
REMARK VINA RESULT:      -8.2      1.700      2.241
REMARK  Name = 
REMARK  11 active torsions:
REMARK  status: ('A' for Active; 'I' for Inactive)
REMARK    1  A    between atoms: C_1  and  C_2
REMARK    2  A    between atoms: C_2  and  O_3
REMARK    3  A    between atoms: O_3  and  C_4
REMARK    4  A    between atoms: C_4  and  C_6
REMARK    5  A    between atoms: C_6  and  O_7
REMARK    6  A    between atoms: C_8  and  C_9
REMARK    7  A    between atoms: C_9  and  C_11
REMARK    8  A    between atoms: C_12  and  C_13
REMARK    9  A    between atoms: N_15  and  C_16
REMARK   10  A    between atoms: C_16  and  C_17
REMARK   11  A    between atoms: C_25  and  C_26
REMARK                            x       y       z     vdW  Elec       q    Type
REMARK                         _______ _______ _______ _____ _____    ______ ____
ROOT
ATOM      1  C   UNL     1       3.639   6.948  17.638  0.00  0.00    +0.000 A 
ATOM      2  C   UNL     1       3.285   8.281  17.616  0.00  0.00    +0.000 A 
ATOM      3  N   UNL     1       2.044   8.395  18.186  0.00  0.00    +0.000 N 
ATOM      4  C   UNL     1       1.635   7.165  18.636  0.00  0.00    +0.000 A 
ATOM      5  C   UNL     1       2.605   6.229  18.317  0.00  0.00    +0.000 A 
ENDROOT
BRANCH   5   6
ATOM      6  C   UNL     1       2.508   4.829  18.722  0.00  0.00    +0.000 A 
ATOM      7  C   UNL     1       2.120   3.830  17.820  0.00  0.00    +0.000 A 
ATOM      8  C   UNL     1       1.986   2.502  18.238  0.00  0.00    +0.000 A 
ATOM      9  C   UNL     1       2.257   2.156  19.560  0.00  0.00    +0.000 A 
ATOM     10  C   UNL     1       2.655   3.136  20.462  0.00  0.00    +0.000 A 
ATOM     11  C   UNL     1       2.769   4.461  20.049  0.00  0.00    +0.000 A 
ENDBRANCH   5   6
BRANCH   1  13
ATOM     12  C   UNL     1       5.694   5.611  17.786  0.00  0.00    +0.000 C 
ATOM     13  C   UNL     1       4.876   6.454  17.132  0.00  0.00    +0.000 C 
BRANCH  12  14
ATOM     14  C   UNL     1       6.983   5.218  17.147  0.00  0.00    +0.000 C 
ATOM     15  O   UNL     1       7.971   4.955  17.822  0.00  0.00    +0.000 OA
BRANCH  14  17
ATOM     16  C   UNL     1       6.499   4.099  14.972  0.00  0.00    +0.000 C 
ATOM     17  C   UNL     1       6.957   5.162  15.660  0.00  0.00    +0.000 C 
BRANCH  16  18
ATOM     18  C   UNL     1       6.463   4.198  13.477  0.00  0.00    +0.000 C 
ATOM     19  O   UNL     1       7.315   4.717  12.776  0.00  0.00    +0.000 OA
BRANCH  18  20
ATOM     20  O   UNL     1       5.257   3.708  13.071  0.00  0.00    +0.000 OA
BRANCH  20  22
ATOM     21  C   UNL     1       3.994   3.203  11.112  0.00  0.00    +0.000 C 
ATOM     22  C   UNL     1       5.294   2.943  11.856  0.00  0.00    +0.000 C 
ENDBRANCH  20  22
ENDBRANCH  18  20
ENDBRANCH  16  18
BRANCH  16  23
ATOM     23  O   UNL     1       6.000   2.959  15.571  0.00  0.00    +0.000 OA
ATOM     24  H   UNL     1       5.440   2.516  14.906  0.00  0.00    +0.000 HD
ENDBRANCH  16  23
ENDBRANCH  14  17
ENDBRANCH  12  14
ENDBRANCH   1  13
BRANCH   3  25
ATOM     25  C   UNL     1       1.286   9.631  18.356  0.00  0.00    +0.000 C 
BRANCH  25  26
ATOM     26  C   UNL     1       0.807   9.775  19.780  0.00  0.00    +0.000 A 
ATOM     27  C   UNL     1       1.304   8.934  20.790  0.00  0.00    +0.000 A 
ATOM     28  C   UNL     1       0.796   9.011  22.088  0.00  0.00    +0.000 A 
ATOM     29  C   UNL     1      -0.202   9.933  22.379  0.00  0.00    +0.000 A 
ATOM     30  F   UNL     1      -0.704   9.991  23.619  0.00  0.00    +0.000 F 
ATOM     31  C   UNL     1      -0.690  10.790  21.402  0.00  0.00    +0.000 A 
ATOM     32  C   UNL     1      -0.189  10.711  20.102  0.00  0.00    +0.000 A 
ENDBRANCH  25  26
ENDBRANCH   3  25
TORSDOF 10
ENDMDL
MODEL 9
REMARK VINA RESULT:      -8.2      4.878      8.894
REMARK  Name = 
REMARK  11 active torsions:
REMARK  status: ('A' for Active; 'I' for Inactive)
REMARK    1  A    between atoms: C_1  and  C_2
REMARK    2  A    between atoms: C_2  and  O_3
REMARK    3  A    between atoms: O_3  and  C_4
REMARK    4  A    between atoms: C_4  and  C_6
REMARK    5  A    between atoms: C_6  and  O_7
REMARK    6  A    between atoms: C_8  and  C_9
REMARK    7  A    between atoms: C_9  and  C_11
REMARK    8  A    between atoms: C_12  and  C_13
REMARK    9  A    between atoms: N_15  and  C_16
REMARK   10  A    between atoms: C_16  and  C_17
REMARK   11  A    between atoms: C_25  and  C_26
REMARK                            x       y       z     vdW  Elec       q    Type
REMARK                         _______ _______ _______ _____ _____    ______ ____
ROOT
ATOM      1  C   UNL     1       3.835   6.608  17.496  0.00  0.00    +0.000 A 
ATOM      2  C   UNL     1       5.040   6.711  16.834  0.00  0.00    +0.000 A 
ATOM      3  N   UNL     1       5.744   5.556  17.062  0.00  0.00    +0.000 N 
ATOM      4  C   UNL     1       4.974   4.692  17.799  0.00  0.00    +0.000 A 
ATOM      5  C   UNL     1       3.768   5.309  18.091  0.00  0.00    +0.000 A 
ENDROOT
BRANCH   5   6
ATOM      6  C   UNL     1       2.691   4.627  18.805  0.00  0.00    +0.000 A 
ATOM      7  C   UNL     1       2.406   4.913  20.147  0.00  0.00    +0.000 A 
ATOM      8  C   UNL     1       1.402   4.216  20.828  0.00  0.00    +0.000 A 
ATOM      9  C   UNL     1       0.661   3.238  20.169  0.00  0.00    +0.000 A 
ATOM     10  C   UNL     1       0.926   2.954  18.834  0.00  0.00    +0.000 A 
ATOM     11  C   UNL     1       1.938   3.635  18.162  0.00  0.00    +0.000 A 
ENDBRANCH   5   6
BRANCH   1  13
ATOM     12  C   UNL     1       2.382   8.277  18.561  0.00  0.00    +0.000 C 
ATOM     13  C   UNL     1       2.838   7.626  17.477  0.00  0.00    +0.000 C 
BRANCH  12  14
ATOM     14  C   UNL     1       1.298   9.288  18.391  0.00  0.00    +0.000 C 
ATOM     15  O   UNL     1       0.566   9.274  17.409  0.00  0.00    +0.000 OA
BRANCH  14  17
ATOM     16  C   UNL     1       0.386  11.362  19.432  0.00  0.00    +0.000 C 
ATOM     17  C   UNL     1       1.183  10.278  19.496  0.00  0.00    +0.000 C 
BRANCH  16  18
ATOM     18  C   UNL     1       0.308  12.244  20.641  0.00  0.00    +0.000 C 
ATOM     19  O   UNL     1       0.179  13.456  20.632  0.00  0.00    +0.000 OA
BRANCH  18  20
ATOM     20  O   UNL     1       0.524  11.453  21.730  0.00  0.00    +0.000 OA
BRANCH  20  22
ATOM     21  C   UNL     1      -0.356   9.777  23.181  0.00  0.00    +0.000 C 
ATOM     22  C   UNL     1      -0.663  11.071  22.444  0.00  0.00    +0.000 C 
ENDBRANCH  20  22
ENDBRANCH  18  20
ENDBRANCH  16  18
BRANCH  16  23
ATOM     23  O   UNL     1      -0.409  11.661  18.343  0.00  0.00    +0.000 OA
ATOM     24  H   UNL     1       0.175  11.657  17.561  0.00  0.00    +0.000 HD
ENDBRANCH  16  23
ENDBRANCH  14  17
ENDBRANCH  12  14
ENDBRANCH   1  13
BRANCH   3  25
ATOM     25  C   UNL     1       7.077   5.249  16.556  0.00  0.00    +0.000 C 
BRANCH  25  26
ATOM     26  C   UNL     1       7.019   4.833  15.106  0.00  0.00    +0.000 A 
ATOM     27  C   UNL     1       7.855   5.441  14.154  0.00  0.00    +0.000 A 
ATOM     28  C   UNL     1       7.738   5.118  12.801  0.00  0.00    +0.000 A 
ATOM     29  C   UNL     1       6.794   4.181  12.400  0.00  0.00    +0.000 A 
ATOM     30  F   UNL     1       6.668   3.888  11.099  0.00  0.00    +0.000 F 
ATOM     31  C   UNL     1       5.975   3.550  13.326  0.00  0.00    +0.000 A 
ATOM     32  C   UNL     1       6.084   3.876  14.679  0.00  0.00    +0.000 A 
ENDBRANCH  25  26
ENDBRANCH   3  25
TORSDOF 10
ENDMDL
