MODEL 1
REMARK VINA RESULT:      -8.3      0.000      0.000
REMARK  Name = 
REMARK  11 active torsions:
REMARK  status: ('A' for Active; 'I' for Inactive)
REMARK    1  A    between atoms: C_1  and  O_2
REMARK    2  A    between atoms: O_2  and  C_3
REMARK    3  A    between atoms: C_7  and  C_8
REMARK    4  A    between atoms: C_17  and  C_18
REMARK    5  A    between atoms: C_18  and  O_19
REMARK    6  A    between atoms: O_19  and  C_20
REMARK    7  A    between atoms: C_20  and  C_22
REMARK    8  A    between atoms: C_22  and  C_23
REMARK    9  A    between atoms: C_23  and  C_24
REMARK   10  A    between atoms: C_24  and  C_25
REMARK   11  A    between atoms: C_25  and  O_27
REMARK                            x       y       z     vdW  Elec       q    Type
REMARK                         _______ _______ _______ _____ _____    ______ ____
ROOT
ATOM      1  C   UNL     1       4.327   5.318  17.687  0.00  0.00    +0.000 A 
ATOM      2  N   UNL     1       4.161   6.457  16.967  0.00  0.00    +0.000 NA
ATOM      3  C   UNL     1       5.272   7.157  16.630  0.00  0.00    +0.000 A 
ATOM      4  C   UNL     1       6.503   6.902  17.214  0.00  0.00    +0.000 A 
ATOM      5  C   UNL     1       7.477   7.909  17.320  0.00  0.00    +0.000 A 
ATOM      6  C   UNL     1       8.387   7.866  18.371  0.00  0.00    +0.000 A 
ATOM      7  C   UNL     1       8.349   6.793  19.258  0.00  0.00    +0.000 A 
ATOM      8  C   UNL     1       7.502   5.694  19.010  0.00  0.00    +0.000 A 
ATOM      9  C   UNL     1       6.589   5.689  17.919  0.00  0.00    +0.000 A 
ATOM     10  C   UNL     1       5.574   4.726  17.710  0.00  0.00    +0.000 A 
ENDROOT
BRANCH   1  15
ATOM     11  C   UNL     1       2.026   3.900  20.361  0.00  0.00    +0.000 A 
ATOM     12  C   UNL     1       0.999   3.393  19.562  0.00  0.00    +0.000 A 
ATOM     13  C   UNL     1       1.026   3.562  18.180  0.00  0.00    +0.000 A 
ATOM     14  C   UNL     1       2.099   4.210  17.574  0.00  0.00    +0.000 A 
ATOM     15  C   UNL     1       3.167   4.690  18.337  0.00  0.00    +0.000 A 
ATOM     16  C   UNL     1       3.094   4.555  19.746  0.00  0.00    +0.000 A 
BRANCH  11  18
ATOM     17  C   UNL     1       1.721   2.334  22.130  0.00  0.00    +0.000 C 
ATOM     18  O   UNL     1       1.881   3.678  21.702  0.00  0.00    +0.000 OA
ENDBRANCH  11  18
ENDBRANCH   1  15
BRANCH  10  19
ATOM     19  C   UNL     1       5.663   3.776  16.436  0.00  0.00    +0.000 C 
BRANCH  19  20
ATOM     20  O   UNL     1       6.871   3.868  15.620  0.00  0.00    +0.000 OA
BRANCH  20  21
ATOM     21  C   UNL     1       6.824   4.453  14.402  0.00  0.00    +0.000 C 
ATOM     22  O   UNL     1       7.564   5.351  14.058  0.00  0.00    +0.000 OA
BRANCH  21  23
ATOM     23  C   UNL     1       5.696   3.934  13.526  0.00  0.00    +0.000 C 
BRANCH  23  24
ATOM     24  C   UNL     1       6.094   3.507  12.092  0.00  0.00    +0.000 C 
BRANCH  24  25
ATOM     25  C   UNL     1       5.405   2.246  11.547  0.00  0.00    +0.000 C 
BRANCH  25  26
ATOM     26  C   UNL     1       6.373   1.145  11.228  0.00  0.00    +0.000 C 
ATOM     27  O   UNL     1       6.107  -0.014  11.010  0.00  0.00    +0.000 OA
BRANCH  26  28
ATOM     28  O   UNL     1       7.666   1.600  11.169  0.00  0.00    +0.000 OA
ATOM     29  H   UNL     1       8.163   1.460  11.994  0.00  0.00    +0.000 HD
ENDBRANCH  26  28
ENDBRANCH  25  26
ENDBRANCH  24  25
ENDBRANCH  23  24
ENDBRANCH  21  23
ENDBRANCH  20  21
ENDBRANCH  19  20
ENDBRANCH  10  19
TORSDOF 10
ENDMDL
MODEL 2
REMARK VINA RESULT:      -8.3      2.653      7.460
REMARK  Name = 
REMARK  11 active torsions:
REMARK  status: ('A' for Active; 'I' for Inactive)
REMARK    1  A    between atoms: C_1  and  O_2
REMARK    2  A    between atoms: O_2  and  C_3
REMARK    3  A    between atoms: C_7  and  C_8
REMARK    4  A    between atoms: C_17  and  C_18
REMARK    5  A    between atoms: C_18  and  O_19
REMARK    6  A    between atoms: O_19  and  C_20
REMARK    7  A    between atoms: C_20  and  C_22
REMARK    8  A    between atoms: C_22  and  C_23
REMARK    9  A    between atoms: C_23  and  C_24
REMARK   10  A    between atoms: C_24  and  C_25
REMARK   11  A    between atoms: C_25  and  O_27
REMARK                            x       y       z     vdW  Elec       q    Type
REMARK                         _______ _______ _______ _____ _____    ______ ____
ROOT
ATOM      1  C   UNL     1       5.471   5.135  15.513  0.00  0.00    +0.000 A 
ATOM      2  N   UNL     1       5.283   6.464  15.718  0.00  0.00    +0.000 NA
ATOM      3  C   UNL     1       4.589   6.840  16.820  0.00  0.00    +0.000 A 
ATOM      4  C   UNL     1       3.855   5.932  17.567  0.00  0.00    +0.000 A 
ATOM      5  C   UNL     1       2.737   6.343  18.312  0.00  0.00    +0.000 A 
ATOM      6  C   UNL     1       1.700   5.443  18.535  0.00  0.00    +0.000 A 
ATOM      7  C   UNL     1       1.823   4.138  18.067  0.00  0.00    +0.000 A 
ATOM      8  C   UNL     1       3.038   3.694  17.508  0.00  0.00    +0.000 A 
ATOM      9  C   UNL     1       4.132   4.580  17.304  0.00  0.00    +0.000 A 
ATOM     10  C   UNL     1       5.307   4.272  16.578  0.00  0.00    +0.000 A 
ENDROOT
BRANCH   1  15
ATOM     11  C   UNL     1       5.581   3.339  12.164  0.00  0.00    +0.000 A 
ATOM     12  C   UNL     1       6.875   3.661  11.751  0.00  0.00    +0.000 A 
ATOM     13  C   UNL     1       7.678   4.497  12.523  0.00  0.00    +0.000 A 
ATOM     14  C   UNL     1       7.210   4.995  13.736  0.00  0.00    +0.000 A 
ATOM     15  C   UNL     1       5.937   4.658  14.202  0.00  0.00    +0.000 A 
ATOM     16  C   UNL     1       5.116   3.849  13.377  0.00  0.00    +0.000 A 
BRANCH  11  18
ATOM     17  C   UNL     1       3.636   2.980  10.834  0.00  0.00    +0.000 C 
ATOM     18  O   UNL     1       4.889   2.518  11.317  0.00  0.00    +0.000 OA
ENDBRANCH  11  18
ENDBRANCH   1  15
BRANCH  10  19
ATOM     19  C   UNL     1       6.698   4.213  17.349  0.00  0.00    +0.000 C 
BRANCH  19  20
ATOM     20  O   UNL     1       6.688   4.570  18.766  0.00  0.00    +0.000 OA
BRANCH  20  21
ATOM     21  C   UNL     1       7.510   5.541  19.226  0.00  0.00    +0.000 C 
ATOM     22  O   UNL     1       7.994   5.540  20.340  0.00  0.00    +0.000 OA
BRANCH  21  23
ATOM     23  C   UNL     1       7.707   6.682  18.243  0.00  0.00    +0.000 C 
BRANCH  23  24
ATOM     24  C   UNL     1       8.397   7.948  18.805  0.00  0.00    +0.000 C 
BRANCH  24  25
ATOM     25  C   UNL     1       8.355   9.196  17.908  0.00  0.00    +0.000 C 
BRANCH  25  26
ATOM     26  C   UNL     1       8.982  10.398  18.550  0.00  0.00    +0.000 C 
ATOM     27  O   UNL     1       9.694  10.410  19.527  0.00  0.00    +0.000 OA
BRANCH  26  28
ATOM     28  O   UNL     1       8.687  11.554  17.872  0.00  0.00    +0.000 OA
ATOM     29  H   UNL     1       8.938  11.526  16.932  0.00  0.00    +0.000 HD
ENDBRANCH  26  28
ENDBRANCH  25  26
ENDBRANCH  24  25
ENDBRANCH  23  24
ENDBRANCH  21  23
ENDBRANCH  20  21
ENDBRANCH  19  20
ENDBRANCH  10  19
TORSDOF 10
ENDMDL
MODEL 3
REMARK VINA RESULT:      -8.1      4.065      8.962
REMARK  Name = 
REMARK  11 active torsions:
REMARK  status: ('A' for Active; 'I' for Inactive)
REMARK    1  A    between atoms: C_1  and  O_2
REMARK    2  A    between atoms: O_2  and  C_3
REMARK    3  A    between atoms: C_7  and  C_8
REMARK    4  A    between atoms: C_17  and  C_18
REMARK    5  A    between atoms: C_18  and  O_19
REMARK    6  A    between atoms: O_19  and  C_20
REMARK    7  A    between atoms: C_20  and  C_22
REMARK    8  A    between atoms: C_22  and  C_23
REMARK    9  A    between atoms: C_23  and  C_24
REMARK   10  A    between atoms: C_24  and  C_25
REMARK   11  A    between atoms: C_25  and  O_27
REMARK                            x       y       z     vdW  Elec       q    Type
REMARK                         _______ _______ _______ _____ _____    ______ ____
ROOT
ATOM      1  C   UNL     1       4.171   5.357  18.169  0.00  0.00    +0.000 A 
ATOM      2  N   UNL     1       3.900   4.482  17.167  0.00  0.00    +0.000 NA
ATOM      3  C   UNL     1       2.702   3.848  17.190  0.00  0.00    +0.000 A 
ATOM      4  C   UNL     1       1.890   3.859  18.314  0.00  0.00    +0.000 A 
ATOM      5  C   UNL     1       0.987   2.814  18.564  0.00  0.00    +0.000 A 
ATOM      6  C   UNL     1       0.653   2.505  19.878  0.00  0.00    +0.000 A 
ATOM      7  C   UNL     1       1.174   3.279  20.911  0.00  0.00    +0.000 A 
ATOM      8  C   UNL     1       1.909   4.447  20.624  0.00  0.00    +0.000 A 
ATOM      9  C   UNL     1       2.232   4.813  19.288  0.00  0.00    +0.000 A 
ATOM     10  C   UNL     1       3.123   5.850  18.919  0.00  0.00    +0.000 A 
ENDROOT
BRANCH   1  15
ATOM     11  C   UNL     1       7.391   7.338  17.768  0.00  0.00    +0.000 A 
ATOM     12  C   UNL     1       8.212   6.667  18.676  0.00  0.00    +0.000 A 
ATOM     13  C   UNL     1       7.709   5.623  19.449  0.00  0.00    +0.000 A 
ATOM     14  C   UNL     1       6.387   5.214  19.299  0.00  0.00    +0.000 A 
ATOM     15  C   UNL     1       5.548   5.834  18.368  0.00  0.00    +0.000 A 
ATOM     16  C   UNL     1       6.065   6.927  17.630  0.00  0.00    +0.000 A 
BRANCH  11  18
ATOM     17  C   UNL     1       8.259   9.558  17.773  0.00  0.00    +0.000 C 
ATOM     18  O   UNL     1       7.998   8.349  17.075  0.00  0.00    +0.000 OA
ENDBRANCH  11  18
ENDBRANCH   1  15
BRANCH  10  19
ATOM     19  C   UNL     1       2.551   7.118  18.146  0.00  0.00    +0.000 C 
BRANCH  19  20
ATOM     20  O   UNL     1       1.837   8.115  18.939  0.00  0.00    +0.000 OA
BRANCH  20  21
ATOM     21  C   UNL     1       1.484   9.297  18.384  0.00  0.00    +0.000 C 
ATOM     22  O   UNL     1       2.058   9.793  17.436  0.00  0.00    +0.000 OA
BRANCH  21  23
ATOM     23  C   UNL     1       0.347   9.991  19.113  0.00  0.00    +0.000 C 
BRANCH  23  24
ATOM     24  C   UNL     1       0.586  10.293  20.612  0.00  0.00    +0.000 C 
BRANCH  24  25
ATOM     25  C   UNL     1      -0.269   9.493  21.608  0.00  0.00    +0.000 C 
BRANCH  25  26
ATOM     26  C   UNL     1      -0.176  10.018  23.010  0.00  0.00    +0.000 C 
ATOM     27  O   UNL     1       0.431   9.524  23.931  0.00  0.00    +0.000 OA
BRANCH  26  28
ATOM     28  O   UNL     1      -0.856  11.201  23.161  0.00  0.00    +0.000 OA
ATOM     29  H   UNL     1      -1.295  11.501  22.345  0.00  0.00    +0.000 HD
ENDBRANCH  26  28
ENDBRANCH  25  26
ENDBRANCH  24  25
ENDBRANCH  23  24
ENDBRANCH  21  23
ENDBRANCH  20  21
ENDBRANCH  19  20
ENDBRANCH  10  19
TORSDOF 10
ENDMDL
MODEL 4
REMARK VINA RESULT:      -8.0      3.242      5.476
REMARK  Name = 
REMARK  11 active torsions:
REMARK  status: ('A' for Active; 'I' for Inactive)
REMARK    1  A    between atoms: C_1  and  O_2
REMARK    2  A    between atoms: O_2  and  C_3
REMARK    3  A    between atoms: C_7  and  C_8
REMARK    4  A    between atoms: C_17  and  C_18
REMARK    5  A    between atoms: C_18  and  O_19
REMARK    6  A    between atoms: O_19  and  C_20
REMARK    7  A    between atoms: C_20  and  C_22
REMARK    8  A    between atoms: C_22  and  C_23
REMARK    9  A    between atoms: C_23  and  C_24
REMARK   10  A    between atoms: C_24  and  C_25
REMARK   11  A    between atoms: C_25  and  O_27
REMARK                            x       y       z     vdW  Elec       q    Type
REMARK                         _______ _______ _______ _____ _____    ______ ____
ROOT
ATOM      1  C   UNL     1       2.439   6.310  19.718  0.00  0.00    +0.000 A 
ATOM      2  N   UNL     1       2.017   5.757  20.884  0.00  0.00    +0.000 NA
ATOM      3  C   UNL     1       2.147   4.415  21.029  0.00  0.00    +0.000 A 
ATOM      4  C   UNL     1       2.432   3.587  19.955  0.00  0.00    +0.000 A 
ATOM      5  C   UNL     1       2.027   2.242  19.950  0.00  0.00    +0.000 A 
ATOM      6  C   UNL     1       1.759   1.618  18.737  0.00  0.00    +0.000 A 
ATOM      7  C   UNL     1       1.956   2.322  17.552  0.00  0.00    +0.000 A 
ATOM      8  C   UNL     1       2.559   3.596  17.574  0.00  0.00    +0.000 A 
ATOM      9  C   UNL     1       2.884   4.245  18.798  0.00  0.00    +0.000 A 
ATOM     10  C   UNL     1       3.306   5.590  18.920  0.00  0.00    +0.000 A 
ENDROOT
BRANCH   1  15
ATOM     11  C   UNL     1       1.066   9.842  20.021  0.00  0.00    +0.000 A 
ATOM     12  C   UNL     1       1.204  10.277  18.701  0.00  0.00    +0.000 A 
ATOM     13  C   UNL     1       1.789   9.455  17.741  0.00  0.00    +0.000 A 
ATOM     14  C   UNL     1       2.212   8.173  18.080  0.00  0.00    +0.000 A 
ATOM     15  C   UNL     1       2.048   7.687  19.380  0.00  0.00    +0.000 A 
ATOM     16  C   UNL     1       1.499   8.558  20.354  0.00  0.00    +0.000 A 
BRANCH  11  18
ATOM     17  C   UNL     1      -0.433  10.239  21.831  0.00  0.00    +0.000 C 
ATOM     18  O   UNL     1       0.485  10.742  20.870  0.00  0.00    +0.000 OA
ENDBRANCH  11  18
ENDBRANCH   1  15
BRANCH  10  19
ATOM     19  C   UNL     1       4.779   5.892  19.442  0.00  0.00    +0.000 C 
BRANCH  19  20
ATOM     20  O   UNL     1       5.862   5.090  18.879  0.00  0.00    +0.000 OA
BRANCH  20  21
ATOM     21  C   UNL     1       6.628   5.589  17.883  0.00  0.00    +0.000 C 
ATOM     22  O   UNL     1       7.785   5.267  17.698  0.00  0.00    +0.000 OA
BRANCH  21  23
ATOM     23  C   UNL     1       5.930   6.659  17.061  0.00  0.00    +0.000 C 
BRANCH  23  24
ATOM     24  C   UNL     1       5.245   6.174  15.761  0.00  0.00    +0.000 C 
BRANCH  24  25
ATOM     25  C   UNL     1       5.464   4.699  15.390  0.00  0.00    +0.000 C 
BRANCH  25  26
ATOM     26  C   UNL     1       6.506   4.514  14.326  0.00  0.00    +0.000 C 
ATOM     27  O   UNL     1       6.423   3.815  13.344  0.00  0.00    +0.000 OA
BRANCH  26  28
ATOM     28  O   UNL     1       7.622   5.278  14.562  0.00  0.00    +0.000 OA
ATOM     29  H   UNL     1       8.017   5.124  15.439  0.00  0.00    +0.000 HD
ENDBRANCH  26  28
ENDBRANCH  25  26
ENDBRANCH  24  25
ENDBRANCH  23  24
ENDBRANCH  21  23
ENDBRANCH  20  21
ENDBRANCH  19  20
ENDBRANCH  10  19
TORSDOF 10
ENDMDL
MODEL 5
REMARK VINA RESULT:      -8.0      3.885      5.976
REMARK  Name = 
REMARK  11 active torsions:
REMARK  status: ('A' for Active; 'I' for Inactive)
REMARK    1  A    between atoms: C_1  and  O_2
REMARK    2  A    between atoms: O_2  and  C_3
REMARK    3  A    between atoms: C_7  and  C_8
REMARK    4  A    between atoms: C_17  and  C_18
REMARK    5  A    between atoms: C_18  and  O_19
REMARK    6  A    between atoms: O_19  and  C_20
REMARK    7  A    between atoms: C_20  and  C_22
REMARK    8  A    between atoms: C_22  and  C_23
REMARK    9  A    between atoms: C_23  and  C_24
REMARK   10  A    between atoms: C_24  and  C_25
REMARK   11  A    between atoms: C_25  and  O_27
REMARK                            x       y       z     vdW  Elec       q    Type
REMARK                         _______ _______ _______ _____ _____    ______ ____
ROOT
ATOM      1  C   UNL     1       3.104   7.209  17.908  0.00  0.00    +0.000 A 
ATOM      2  N   UNL     1       3.679   7.597  16.741  0.00  0.00    +0.000 NA
ATOM      3  C   UNL     1       4.726   6.869  16.281  0.00  0.00    +0.000 A 
ATOM      4  C   UNL     1       5.377   5.940  17.077  0.00  0.00    +0.000 A 
ATOM      5  C   UNL     1       6.724   5.613  16.853  0.00  0.00    +0.000 A 
ATOM      6  C   UNL     1       7.511   5.206  17.925  0.00  0.00    +0.000 A 
ATOM      7  C   UNL     1       6.929   5.073  19.183  0.00  0.00    +0.000 A 
ATOM      8  C   UNL     1       5.534   5.204  19.339  0.00  0.00    +0.000 A 
ATOM      9  C   UNL     1       4.696   5.580  18.252  0.00  0.00    +0.000 A 
ATOM     10  C   UNL     1       3.327   5.924  18.360  0.00  0.00    +0.000 A 
ENDROOT
BRANCH   1  15
ATOM     11  C   UNL     1       1.074   8.862  20.665  0.00  0.00    +0.000 A 
ATOM     12  C   UNL     1       0.345   9.788  19.917  0.00  0.00    +0.000 A 
ATOM     13  C   UNL     1       0.554   9.913  18.546  0.00  0.00    +0.000 A 
ATOM     14  C   UNL     1       1.469   9.089  17.897  0.00  0.00    +0.000 A 
ATOM     15  C   UNL     1       2.184   8.119  18.607  0.00  0.00    +0.000 A 
ATOM     16  C   UNL     1       1.995   8.045  20.009  0.00  0.00    +0.000 A 
BRANCH  11  18
ATOM     17  C   UNL     1      -0.580   8.941  22.379  0.00  0.00    +0.000 C 
ATOM     18  O   UNL     1       0.785   8.840  22.001  0.00  0.00    +0.000 OA
ENDBRANCH  11  18
ENDBRANCH   1  15
BRANCH  10  19
ATOM     19  C   UNL     1       2.241   4.990  17.667  0.00  0.00    +0.000 C 
BRANCH  19  20
ATOM     20  O   UNL     1       2.159   3.607  18.130  0.00  0.00    +0.000 OA
BRANCH  20  21
ATOM     21  C   UNL     1       1.147   3.223  18.941  0.00  0.00    +0.000 C 
ATOM     22  O   UNL     1       0.257   2.472  18.596  0.00  0.00    +0.000 OA
BRANCH  21  23
ATOM     23  C   UNL     1       1.182   3.885  20.307  0.00  0.00    +0.000 C 
BRANCH  23  24
ATOM     24  C   UNL     1       2.472   3.666  21.134  0.00  0.00    +0.000 C 
BRANCH  24  25
ATOM     25  C   UNL     1       2.956   2.212  21.260  0.00  0.00    +0.000 C 
BRANCH  25  26
ATOM     26  C   UNL     1       4.312   1.994  20.656  0.00  0.00    +0.000 C 
ATOM     27  O   UNL     1       5.339   1.760  21.247  0.00  0.00    +0.000 OA
BRANCH  26  28
ATOM     28  O   UNL     1       4.278   2.055  19.285  0.00  0.00    +0.000 OA
ATOM     29  H   UNL     1       4.273   2.965  18.939  0.00  0.00    +0.000 HD
ENDBRANCH  26  28
ENDBRANCH  25  26
ENDBRANCH  24  25
ENDBRANCH  23  24
ENDBRANCH  21  23
ENDBRANCH  20  21
ENDBRANCH  19  20
ENDBRANCH  10  19
TORSDOF 10
ENDMDL
MODEL 6
REMARK VINA RESULT:      -7.9      3.240      4.698
REMARK  Name = 
REMARK  11 active torsions:
REMARK  status: ('A' for Active; 'I' for Inactive)
REMARK    1  A    between atoms: C_1  and  O_2
REMARK    2  A    between atoms: O_2  and  C_3
REMARK    3  A    between atoms: C_7  and  C_8
REMARK    4  A    between atoms: C_17  and  C_18
REMARK    5  A    between atoms: C_18  and  O_19
REMARK    6  A    between atoms: O_19  and  C_20
REMARK    7  A    between atoms: C_20  and  C_22
REMARK    8  A    between atoms: C_22  and  C_23
REMARK    9  A    between atoms: C_23  and  C_24
REMARK   10  A    between atoms: C_24  and  C_25
REMARK   11  A    between atoms: C_25  and  O_27
REMARK                            x       y       z     vdW  Elec       q    Type
REMARK                         _______ _______ _______ _____ _____    ______ ____
ROOT
ATOM      1  C   UNL     1       3.056   6.432  18.987  0.00  0.00    +0.000 A 
ATOM      2  N   UNL     1       3.512   5.901  20.151  0.00  0.00    +0.000 NA
ATOM      3  C   UNL     1       4.025   4.647  20.113  0.00  0.00    +0.000 A 
ATOM      4  C   UNL     1       3.849   3.817  19.018  0.00  0.00    +0.000 A 
ATOM      5  C   UNL     1       3.855   2.419  19.159  0.00  0.00    +0.000 A 
ATOM      6  C   UNL     1       3.114   1.644  18.274  0.00  0.00    +0.000 A 
ATOM      7  C   UNL     1       2.433   2.267  17.231  0.00  0.00    +0.000 A 
ATOM      8  C   UNL     1       2.611   3.643  16.987  0.00  0.00    +0.000 A 
ATOM      9  C   UNL     1       3.397   4.457  17.851  0.00  0.00    +0.000 A 
ATOM     10  C   UNL     1       3.470   5.869  17.797  0.00  0.00    +0.000 A 
ENDROOT
BRANCH   1  15
ATOM     11  C   UNL     1       0.826   9.241  20.247  0.00  0.00    +0.000 A 
ATOM     12  C   UNL     1       0.540   9.890  19.044  0.00  0.00    +0.000 A 
ATOM     13  C   UNL     1       1.110   9.456  17.851  0.00  0.00    +0.000 A 
ATOM     14  C   UNL     1       1.948   8.344  17.838  0.00  0.00    +0.000 A 
ATOM     15  C   UNL     1       2.221   7.642  19.016  0.00  0.00    +0.000 A 
ATOM     16  C   UNL     1       1.673   8.133  20.227  0.00  0.00    +0.000 A 
BRANCH  11  18
ATOM     17  C   UNL     1      -0.385  11.049  21.219  0.00  0.00    +0.000 C 
ATOM     18  O   UNL     1       0.212   9.767  21.350  0.00  0.00    +0.000 OA
ENDBRANCH  11  18
ENDBRANCH   1  15
BRANCH  10  19
ATOM     19  C   UNL     1       4.854   6.556  17.413  0.00  0.00    +0.000 C 
BRANCH  19  20
ATOM     20  O   UNL     1       6.056   5.732  17.518  0.00  0.00    +0.000 OA
BRANCH  20  21
ATOM     21  C   UNL     1       6.781   5.447  16.412  0.00  0.00    +0.000 C 
ATOM     22  O   UNL     1       7.549   6.230  15.891  0.00  0.00    +0.000 OA
BRANCH  21  23
ATOM     23  C   UNL     1       6.481   4.077  15.830  0.00  0.00    +0.000 C 
BRANCH  23  24
ATOM     24  C   UNL     1       5.579   4.057  14.573  0.00  0.00    +0.000 C 
BRANCH  24  25
ATOM     25  C   UNL     1       6.301   3.911  13.224  0.00  0.00    +0.000 C 
BRANCH  25  26
ATOM     26  C   UNL     1       5.504   3.137  12.216  0.00  0.00    +0.000 C 
ATOM     27  O   UNL     1       4.466   3.475  11.698  0.00  0.00    +0.000 OA
BRANCH  26  28
ATOM     28  O   UNL     1       6.109   1.950  11.886  0.00  0.00    +0.000 OA
ATOM     29  H   UNL     1       5.479   1.222  11.742  0.00  0.00    +0.000 HD
ENDBRANCH  26  28
ENDBRANCH  25  26
ENDBRANCH  24  25
ENDBRANCH  23  24
ENDBRANCH  21  23
ENDBRANCH  20  21
ENDBRANCH  19  20
ENDBRANCH  10  19
TORSDOF 10
ENDMDL
MODEL 7
REMARK VINA RESULT:      -7.9      4.430      8.460
REMARK  Name = 
REMARK  11 active torsions:
REMARK  status: ('A' for Active; 'I' for Inactive)
REMARK    1  A    between atoms: C_1  and  O_2
REMARK    2  A    between atoms: O_2  and  C_3
REMARK    3  A    between atoms: C_7  and  C_8
REMARK    4  A    between atoms: C_17  and  C_18
REMARK    5  A    between atoms: C_18  and  O_19
REMARK    6  A    between atoms: O_19  and  C_20
REMARK    7  A    between atoms: C_20  and  C_22
REMARK    8  A    between atoms: C_22  and  C_23
REMARK    9  A    between atoms: C_23  and  C_24
REMARK   10  A    between atoms: C_24  and  C_25
REMARK   11  A    between atoms: C_25  and  O_27
REMARK                            x       y       z     vdW  Elec       q    Type
REMARK                         _______ _______ _______ _____ _____    ______ ____
ROOT
ATOM      1  C   UNL     1       3.353   4.530  17.498  0.00  0.00    +0.000 A 
ATOM      2  N   UNL     1       2.397   3.687  17.029  0.00  0.00    +0.000 NA
ATOM      3  C   UNL     1       1.368   3.379  17.855  0.00  0.00    +0.000 A 
ATOM      4  C   UNL     1       1.405   3.667  19.210  0.00  0.00    +0.000 A 
ATOM      5  C   UNL     1       0.676   2.902  20.134  0.00  0.00    +0.000 A 
ATOM      6  C   UNL     1       1.150   2.775  21.435  0.00  0.00    +0.000 A 
ATOM      7  C   UNL     1       2.304   3.459  21.807  0.00  0.00    +0.000 A 
ATOM      8  C   UNL     1       2.898   4.383  20.925  0.00  0.00    +0.000 A 
ATOM      9  C   UNL     1       2.412   4.567  19.600  0.00  0.00    +0.000 A 
ATOM     10  C   UNL     1       3.059   5.319  18.591  0.00  0.00    +0.000 A 
ENDROOT
BRANCH   1  15
ATOM     11  C   UNL     1       6.774   5.797  16.429  0.00  0.00    +0.000 A 
ATOM     12  C   UNL     1       7.017   4.965  15.334  0.00  0.00    +0.000 A 
ATOM     13  C   UNL     1       6.108   3.970  14.985  0.00  0.00    +0.000 A 
ATOM     14  C   UNL     1       4.927   3.814  15.705  0.00  0.00    +0.000 A 
ATOM     15  C   UNL     1       4.630   4.657  16.779  0.00  0.00    +0.000 A 
ATOM     16  C   UNL     1       5.592   5.629  17.150  0.00  0.00    +0.000 A 
BRANCH  11  18
ATOM     17  C   UNL     1       7.404   7.821  17.517  0.00  0.00    +0.000 C 
ATOM     18  O   UNL     1       7.743   6.729  16.675  0.00  0.00    +0.000 OA
ENDBRANCH  11  18
ENDBRANCH   1  15
BRANCH  10  19
ATOM     19  C   UNL     1       2.356   6.637  18.041  0.00  0.00    +0.000 C 
BRANCH  19  20
ATOM     20  O   UNL     1       2.384   7.816  18.903  0.00  0.00    +0.000 OA
BRANCH  20  21
ATOM     21  C   UNL     1       1.811   8.970  18.492  0.00  0.00    +0.000 C 
ATOM     22  O   UNL     1       1.989   9.455  17.392  0.00  0.00    +0.000 OA
BRANCH  21  23
ATOM     23  C   UNL     1       0.984   9.651  19.568  0.00  0.00    +0.000 C 
BRANCH  23  24
ATOM     24  C   UNL     1      -0.470  10.012  19.178  0.00  0.00    +0.000 C 
BRANCH  24  25
ATOM     25  C   UNL     1      -0.762  11.507  18.969  0.00  0.00    +0.000 C 
BRANCH  25  26
ATOM     26  C   UNL     1      -1.925  11.751  18.053  0.00  0.00    +0.000 C 
ATOM     27  O   UNL     1      -3.086  11.493  18.270  0.00  0.00    +0.000 OA
BRANCH  26  28
ATOM     28  O   UNL     1      -1.539  12.360  16.885  0.00  0.00    +0.000 OA
ATOM     29  H   UNL     1      -2.260  12.443  16.236  0.00  0.00    +0.000 HD
ENDBRANCH  26  28
ENDBRANCH  25  26
ENDBRANCH  24  25
ENDBRANCH  23  24
ENDBRANCH  21  23
ENDBRANCH  20  21
ENDBRANCH  19  20
ENDBRANCH  10  19
TORSDOF 10
ENDMDL
MODEL 8
REMARK VINA RESULT:      -7.9      3.412      8.271
REMARK  Name = 
REMARK  11 active torsions:
REMARK  status: ('A' for Active; 'I' for Inactive)
REMARK    1  A    between atoms: C_1  and  O_2
REMARK    2  A    between atoms: O_2  and  C_3
REMARK    3  A    between atoms: C_7  and  C_8
REMARK    4  A    between atoms: C_17  and  C_18
REMARK    5  A    between atoms: C_18  and  O_19
REMARK    6  A    between atoms: O_19  and  C_20
REMARK    7  A    between atoms: C_20  and  C_22
REMARK    8  A    between atoms: C_22  and  C_23
REMARK    9  A    between atoms: C_23  and  C_24
REMARK   10  A    between atoms: C_24  and  C_25
REMARK   11  A    between atoms: C_25  and  O_27
REMARK                            x       y       z     vdW  Elec       q    Type
REMARK                         _______ _______ _______ _____ _____    ______ ____
ROOT
ATOM      1  C   UNL     1       3.495   4.754  17.634  0.00  0.00    +0.000 A 
ATOM      2  N   UNL     1       2.656   3.852  17.064  0.00  0.00    +0.000 NA
ATOM      3  C   UNL     1       1.586   3.441  17.787  0.00  0.00    +0.000 A 
ATOM      4  C   UNL     1       1.480   3.695  19.145  0.00  0.00    +0.000 A 
ATOM      5  C   UNL     1       0.735   2.850  19.984  0.00  0.00    +0.000 A 
ATOM      6  C   UNL     1       1.100   2.725  21.320  0.00  0.00    +0.000 A 
ATOM      7  C   UNL     1       2.157   3.488  21.809  0.00  0.00    +0.000 A 
ATOM      8  C   UNL     1       2.751   4.480  21.003  0.00  0.00    +0.000 A 
ATOM      9  C   UNL     1       2.372   4.661  19.643  0.00  0.00    +0.000 A 
ATOM     10  C   UNL     1       3.043   5.488  18.712  0.00  0.00    +0.000 A 
ENDROOT
BRANCH   1  15
ATOM     11  C   UNL     1       7.012   6.095  17.097  0.00  0.00    +0.000 A 
ATOM     12  C   UNL     1       7.294   5.556  15.840  0.00  0.00    +0.000 A 
ATOM     13  C   UNL     1       6.379   4.722  15.204  0.00  0.00    +0.000 A 
ATOM     14  C   UNL     1       5.152   4.443  15.801  0.00  0.00    +0.000 A 
ATOM     15  C   UNL     1       4.816   5.001  17.038  0.00  0.00    +0.000 A 
ATOM     16  C   UNL     1       5.783   5.804  17.692  0.00  0.00    +0.000 A 
BRANCH  11  18
ATOM     17  C   UNL     1       7.777   8.295  17.602  0.00  0.00    +0.000 C 
ATOM     18  O   UNL     1       7.992   6.891  17.621  0.00  0.00    +0.000 OA
ENDBRANCH  11  18
ENDBRANCH   1  15
BRANCH  10  19
ATOM     19  C   UNL     1       2.286   6.761  18.126  0.00  0.00    +0.000 C 
BRANCH  19  20
ATOM     20  O   UNL     1       2.398   8.007  18.881  0.00  0.00    +0.000 OA
BRANCH  20  21
ATOM     21  C   UNL     1       1.923   9.160  18.358  0.00  0.00    +0.000 C 
ATOM     22  O   UNL     1       2.084   9.491  17.201  0.00  0.00    +0.000 OA
BRANCH  21  23
ATOM     23  C   UNL     1       1.235  10.048  19.380  0.00  0.00    +0.000 C 
BRANCH  23  24
ATOM     24  C   UNL     1      -0.091   9.505  19.966  0.00  0.00    +0.000 C 
BRANCH  24  25
ATOM     25  C   UNL     1      -0.119   9.288  21.487  0.00  0.00    +0.000 C 
BRANCH  25  26
ATOM     26  C   UNL     1       1.227   8.938  22.051  0.00  0.00    +0.000 C 
ATOM     27  O   UNL     1       1.880   9.594  22.828  0.00  0.00    +0.000 OA
BRANCH  26  28
ATOM     28  O   UNL     1       1.668   7.717  21.607  0.00  0.00    +0.000 OA
ATOM     29  H   UNL     1       1.049   7.283  20.993  0.00  0.00    +0.000 HD
ENDBRANCH  26  28
ENDBRANCH  25  26
ENDBRANCH  24  25
ENDBRANCH  23  24
ENDBRANCH  21  23
ENDBRANCH  20  21
ENDBRANCH  19  20
ENDBRANCH  10  19
TORSDOF 10
ENDMDL
MODEL 9
REMARK VINA RESULT:      -7.8      3.604      6.089
REMARK  Name = 
REMARK  11 active torsions:
REMARK  status: ('A' for Active; 'I' for Inactive)
REMARK    1  A    between atoms: C_1  and  O_2
REMARK    2  A    between atoms: O_2  and  C_3
REMARK    3  A    between atoms: C_7  and  C_8
REMARK    4  A    between atoms: C_17  and  C_18
REMARK    5  A    between atoms: C_18  and  O_19
REMARK    6  A    between atoms: O_19  and  C_20
REMARK    7  A    between atoms: C_20  and  C_22
REMARK    8  A    between atoms: C_22  and  C_23
REMARK    9  A    between atoms: C_23  and  C_24
REMARK   10  A    between atoms: C_24  and  C_25
REMARK   11  A    between atoms: C_25  and  O_27
REMARK                            x       y       z     vdW  Elec       q    Type
REMARK                         _______ _______ _______ _____ _____    ______ ____
ROOT
ATOM      1  C   UNL     1       3.196   7.189  17.922  0.00  0.00    +0.000 A 
ATOM      2  N   UNL     1       3.758   7.567  16.746  0.00  0.00    +0.000 NA
ATOM      3  C   UNL     1       4.839   6.873  16.311  0.00  0.00    +0.000 A 
ATOM      4  C   UNL     1       5.528   6.000  17.138  0.00  0.00    +0.000 A 
ATOM      5  C   UNL     1       6.890   5.727  16.929  0.00  0.00    +0.000 A 
ATOM      6  C   UNL     1       7.689   5.389  18.016  0.00  0.00    +0.000 A 
ATOM      7  C   UNL     1       7.108   5.269  19.275  0.00  0.00    +0.000 A 
ATOM      8  C   UNL     1       5.708   5.342  19.422  0.00  0.00    +0.000 A 
ATOM      9  C   UNL     1       4.858   5.645  18.322  0.00  0.00    +0.000 A 
ATOM     10  C   UNL     1       3.475   5.930  18.414  0.00  0.00    +0.000 A 
ENDROOT
BRANCH   1  15
ATOM     11  C   UNL     1       0.962   8.731  20.584  0.00  0.00    +0.000 A 
ATOM     12  C   UNL     1       0.313   9.709  19.828  0.00  0.00    +0.000 A 
ATOM     13  C   UNL     1       0.639   9.903  18.488  0.00  0.00    +0.000 A 
ATOM     14  C   UNL     1       1.595   9.097  17.876  0.00  0.00    +0.000 A 
ATOM     15  C   UNL     1       2.233   8.078  18.589  0.00  0.00    +0.000 A 
ATOM     16  C   UNL     1       1.925   7.933  19.965  0.00  0.00    +0.000 A 
BRANCH  11  18
ATOM     17  C   UNL     1       0.075   9.829  22.504  0.00  0.00    +0.000 C 
ATOM     18  O   UNL     1       0.560   8.645  21.888  0.00  0.00    +0.000 OA
ENDBRANCH  11  18
ENDBRANCH   1  15
BRANCH  10  19
ATOM     19  C   UNL     1       2.435   4.927  17.747  0.00  0.00    +0.000 C 
BRANCH  19  20
ATOM     20  O   UNL     1       2.972   3.692  17.181  0.00  0.00    +0.000 OA
BRANCH  20  21
ATOM     21  C   UNL     1       2.775   2.514  17.817  0.00  0.00    +0.000 C 
ATOM     22  O   UNL     1       3.643   1.677  17.965  0.00  0.00    +0.000 OA
BRANCH  21  23
ATOM     23  C   UNL     1       1.339   2.298  18.259  0.00  0.00    +0.000 C 
BRANCH  23  24
ATOM     24  C   UNL     1       1.125   2.053  19.773  0.00  0.00    +0.000 C 
BRANCH  24  25
ATOM     25  C   UNL     1       0.897   3.305  20.634  0.00  0.00    +0.000 C 
BRANCH  25  26
ATOM     26  C   UNL     1       2.111   3.702  21.421  0.00  0.00    +0.000 C 
ATOM     27  O   UNL     1       2.549   4.819  21.564  0.00  0.00    +0.000 OA
BRANCH  26  28
ATOM     28  O   UNL     1       2.703   2.624  22.030  0.00  0.00    +0.000 OA
ATOM     29  H   UNL     1       2.542   2.586  22.989  0.00  0.00    +0.000 HD
ENDBRANCH  26  28
ENDBRANCH  25  26
ENDBRANCH  24  25
ENDBRANCH  23  24
ENDBRANCH  21  23
ENDBRANCH  20  21
ENDBRANCH  19  20
ENDBRANCH  10  19
TORSDOF 10
ENDMDL
