MODEL 1
REMARK VINA RESULT:      -7.3      0.000      0.000
REMARK  Name = 
REMARK  9 active torsions:
REMARK  status: ('A' for Active; 'I' for Inactive)
REMARK    1  A    between atoms: C_1  and  C_2
REMARK    2  A    between atoms: C_5  and  S_6
REMARK    3  A    between atoms: S_6  and  N_9
REMARK    4  A    between atoms: N_9  and  C_10
REMARK    5  A    between atoms: C_10  and  C_11
REMARK    6  A    between atoms: N_13  and  C_14
REMARK    7  A    between atoms: C_17  and  C_18
REMARK    8  A    between atoms: C_18  and  O_20
REMARK    9  A    between atoms: C_21  and  O_22
REMARK                            x       y       z     vdW  Elec       q    Type
REMARK                         _______ _______ _______ _____ _____    ______ ____
ROOT
ATOM      1  C   UNL     1       1.576   4.276  20.590  0.00  0.00    +0.000 C 
ATOM      2  O   UNL     1       0.713   4.074  19.734  0.00  0.00    +0.000 OA
ATOM      3  N   UNL     1       2.218   5.482  20.831  0.00  0.00    +0.000 N 
ATOM      4  H   UNL     1       3.033   5.465  21.436  0.00  0.00    +0.000 HD
ENDROOT
BRANCH   3   5
ATOM      5  C   UNL     1       1.974   6.701  20.159  0.00  0.00    +0.000 A 
ATOM      6  C   UNL     1       2.318   6.919  18.824  0.00  0.00    +0.000 A 
ATOM      7  C   UNL     1       2.118   8.167  18.217  0.00  0.00    +0.000 A 
ATOM      8  C   UNL     1       1.571   9.231  18.941  0.00  0.00    +0.000 A 
ATOM      9  C   UNL     1       1.182   8.991  20.271  0.00  0.00    +0.000 A 
ATOM     10  C   UNL     1       1.367   7.739  20.869  0.00  0.00    +0.000 A 
BRANCH   8  11
ATOM     11  C   UNL     1       1.388  10.596  18.370  0.00  0.00    +0.000 C 
ATOM     12  O   UNL     1       0.441  11.295  18.714  0.00  0.00    +0.000 OA
BRANCH  11  13
ATOM     13  O   UNL     1       2.298  11.031  17.480  0.00  0.00    +0.000 OA
ATOM     14  H   UNL     1       2.393  10.547  16.644  0.00  0.00    +0.000 HD
ENDBRANCH  11  13
ENDBRANCH   8  11
BRANCH   9  15
ATOM     15  O   UNL     1       0.618   9.949  21.077  0.00  0.00    +0.000 OA
ATOM     16  H   UNL     1      -0.325  10.067  20.817  0.00  0.00    +0.000 HD
ENDBRANCH   9  15
ENDBRANCH   3   5
BRANCH   1  17
ATOM     17  C   UNL     1       2.025   3.134  21.503  0.00  0.00    +0.000 C 
BRANCH  17  18
ATOM     18  N   UNL     1       3.466   2.949  21.300  0.00  0.00    +0.000 NA
ATOM     19  H   UNL     1       4.062   3.713  21.630  0.00  0.00    +0.000 HD
BRANCH  18  20
ATOM     20  S   UNL     1       4.004   2.169  19.926  0.00  0.00    +0.000 S 
ATOM     21  O   UNL     1       2.872   1.460  19.368  0.00  0.00    +0.000 OA
ATOM     22  O   UNL     1       5.238   1.504  20.268  0.00  0.00    +0.000 OA
BRANCH  20  27
ATOM     23  C   UNL     1       5.613   6.634  16.142  0.00  0.00    +0.000 C 
ATOM     24  C   UNL     1       5.182   5.556  17.095  0.00  0.00    +0.000 A 
ATOM     25  C   UNL     1       5.694   5.509  18.399  0.00  0.00    +0.000 A 
ATOM     26  C   UNL     1       5.317   4.484  19.267  0.00  0.00    +0.000 A 
ATOM     27  C   UNL     1       4.415   3.505  18.832  0.00  0.00    +0.000 A 
ATOM     28  C   UNL     1       3.896   3.542  17.537  0.00  0.00    +0.000 A 
ATOM     29  C   UNL     1       4.283   4.571  16.672  0.00  0.00    +0.000 A 
ENDBRANCH  20  27
ENDBRANCH  18  20
ENDBRANCH  17  18
ENDBRANCH   1  17
TORSDOF 8
ENDMDL
MODEL 2
REMARK VINA RESULT:      -7.3      0.823      1.286
REMARK  Name = 
REMARK  9 active torsions:
REMARK  status: ('A' for Active; 'I' for Inactive)
REMARK    1  A    between atoms: C_1  and  C_2
REMARK    2  A    between atoms: C_5  and  S_6
REMARK    3  A    between atoms: S_6  and  N_9
REMARK    4  A    between atoms: N_9  and  C_10
REMARK    5  A    between atoms: C_10  and  C_11
REMARK    6  A    between atoms: N_13  and  C_14
REMARK    7  A    between atoms: C_17  and  C_18
REMARK    8  A    between atoms: C_18  and  O_20
REMARK    9  A    between atoms: C_21  and  O_22
REMARK                            x       y       z     vdW  Elec       q    Type
REMARK                         _______ _______ _______ _____ _____    ______ ____
ROOT
ATOM      1  C   UNL     1       1.824   4.699  20.603  0.00  0.00    +0.000 C 
ATOM      2  O   UNL     1       0.672   4.528  20.201  0.00  0.00    +0.000 OA
ATOM      3  N   UNL     1       2.537   5.889  20.553  0.00  0.00    +0.000 N 
ATOM      4  H   UNL     1       3.531   5.845  20.748  0.00  0.00    +0.000 HD
ENDROOT
BRANCH   3   5
ATOM      5  C   UNL     1       2.057   7.122  20.060  0.00  0.00    +0.000 A 
ATOM      6  C   UNL     1       2.279   7.562  18.754  0.00  0.00    +0.000 A 
ATOM      7  C   UNL     1       1.842   8.823  18.327  0.00  0.00    +0.000 A 
ATOM      8  C   UNL     1       1.173   9.680  19.207  0.00  0.00    +0.000 A 
ATOM      9  C   UNL     1       0.910   9.213  20.508  0.00  0.00    +0.000 A 
ATOM     10  C   UNL     1       1.332   7.945  20.925  0.00  0.00    +0.000 A 
BRANCH   8  11
ATOM     11  C   UNL     1       0.736  11.055  18.831  0.00  0.00    +0.000 C 
ATOM     12  O   UNL     1       1.240  12.038  19.365  0.00  0.00    +0.000 OA
BRANCH  11  13
ATOM     13  O   UNL     1      -0.215  11.175  17.889  0.00  0.00    +0.000 OA
ATOM     14  H   UNL     1      -0.001  11.660  17.076  0.00  0.00    +0.000 HD
ENDBRANCH  11  13
ENDBRANCH   8  11
BRANCH   9  15
ATOM     15  O   UNL     1       0.247   9.952  21.455  0.00  0.00    +0.000 OA
ATOM     16  H   UNL     1       0.779   9.954  22.285  0.00  0.00    +0.000 HD
ENDBRANCH   9  15
ENDBRANCH   3   5
BRANCH   1  17
ATOM     17  C   UNL     1       2.594   3.533  21.226  0.00  0.00    +0.000 C 
BRANCH  17  18
ATOM     18  N   UNL     1       2.612   2.443  20.245  0.00  0.00    +0.000 NA
ATOM     19  H   UNL     1       1.973   1.666  20.433  0.00  0.00    +0.000 HD
BRANCH  18  20
ATOM     20  S   UNL     1       4.056   2.016  19.525  0.00  0.00    +0.000 S 
ATOM     21  O   UNL     1       3.752   1.019  18.521  0.00  0.00    +0.000 OA
ATOM     22  O   UNL     1       5.008   1.780  20.583  0.00  0.00    +0.000 OA
BRANCH  20  27
ATOM     23  C   UNL     1       5.565   7.207  16.763  0.00  0.00    +0.000 C 
ATOM     24  C   UNL     1       5.222   5.901  17.421  0.00  0.00    +0.000 A 
ATOM     25  C   UNL     1       4.285   5.034  16.844  0.00  0.00    +0.000 A 
ATOM     26  C   UNL     1       3.946   3.839  17.479  0.00  0.00    +0.000 A 
ATOM     27  C   UNL     1       4.555   3.505  18.695  0.00  0.00    +0.000 A 
ATOM     28  C   UNL     1       5.492   4.358  19.279  0.00  0.00    +0.000 A 
ATOM     29  C   UNL     1       5.823   5.556  18.638  0.00  0.00    +0.000 A 
ENDBRANCH  20  27
ENDBRANCH  18  20
ENDBRANCH  17  18
ENDBRANCH   1  17
TORSDOF 8
ENDMDL
MODEL 3
REMARK VINA RESULT:      -7.2      0.914      1.749
REMARK  Name = 
REMARK  9 active torsions:
REMARK  status: ('A' for Active; 'I' for Inactive)
REMARK    1  A    between atoms: C_1  and  C_2
REMARK    2  A    between atoms: C_5  and  S_6
REMARK    3  A    between atoms: S_6  and  N_9
REMARK    4  A    between atoms: N_9  and  C_10
REMARK    5  A    between atoms: C_10  and  C_11
REMARK    6  A    between atoms: N_13  and  C_14
REMARK    7  A    between atoms: C_17  and  C_18
REMARK    8  A    between atoms: C_18  and  O_20
REMARK    9  A    between atoms: C_21  and  O_22
REMARK                            x       y       z     vdW  Elec       q    Type
REMARK                         _______ _______ _______ _____ _____    ______ ____
ROOT
ATOM      1  C   UNL     1       1.838   4.628  20.449  0.00  0.00    +0.000 C 
ATOM      2  O   UNL     1       1.018   4.459  19.546  0.00  0.00    +0.000 OA
ATOM      3  N   UNL     1       2.317   5.852  20.896  0.00  0.00    +0.000 N 
ATOM      4  H   UNL     1       3.120   5.840  21.515  0.00  0.00    +0.000 HD
ENDROOT
BRANCH   3   5
ATOM      5  C   UNL     1       1.927   7.121  20.414  0.00  0.00    +0.000 A 
ATOM      6  C   UNL     1       1.181   8.028  21.167  0.00  0.00    +0.000 A 
ATOM      7  C   UNL     1       0.759   9.250  20.625  0.00  0.00    +0.000 A 
ATOM      8  C   UNL     1       1.073   9.589  19.305  0.00  0.00    +0.000 A 
ATOM      9  C   UNL     1       1.868   8.693  18.567  0.00  0.00    +0.000 A 
ATOM     10  C   UNL     1       2.302   7.482  19.118  0.00  0.00    +0.000 A 
BRANCH   8  11
ATOM     11  C   UNL     1       0.605  10.845  18.653  0.00  0.00    +0.000 C 
ATOM     12  O   UNL     1      -0.590  11.116  18.606  0.00  0.00    +0.000 OA
BRANCH  11  13
ATOM     13  O   UNL     1       1.534  11.665  18.131  0.00  0.00    +0.000 OA
ATOM     14  H   UNL     1       2.262  11.961  18.701  0.00  0.00    +0.000 HD
ENDBRANCH  11  13
ENDBRANCH   8  11
BRANCH   9  15
ATOM     15  O   UNL     1       2.257   8.922  17.271  0.00  0.00    +0.000 OA
ATOM     16  H   UNL     1       3.237   8.840  17.215  0.00  0.00    +0.000 HD
ENDBRANCH   9  15
ENDBRANCH   3   5
BRANCH   1  17
ATOM     17  C   UNL     1       2.418   3.421  21.187  0.00  0.00    +0.000 C 
BRANCH  17  18
ATOM     18  N   UNL     1       2.551   2.332  20.213  0.00  0.00    +0.000 NA
ATOM     19  H   UNL     1       1.939   1.526  20.363  0.00  0.00    +0.000 HD
BRANCH  18  20
ATOM     20  S   UNL     1       4.057   1.974  19.589  0.00  0.00    +0.000 S 
ATOM     21  O   UNL     1       3.882   0.882  18.655  0.00  0.00    +0.000 OA
ATOM     22  O   UNL     1       4.974   1.899  20.700  0.00  0.00    +0.000 OA
BRANCH  20  27
ATOM     23  C   UNL     1       5.277   7.053  16.495  0.00  0.00    +0.000 C 
ATOM     24  C   UNL     1       5.008   5.775  17.237  0.00  0.00    +0.000 A 
ATOM     25  C   UNL     1       4.146   4.806  16.705  0.00  0.00    +0.000 A 
ATOM     26  C   UNL     1       3.873   3.638  17.417  0.00  0.00    +0.000 A 
ATOM     27  C   UNL     1       4.473   3.432  18.665  0.00  0.00    +0.000 A 
ATOM     28  C   UNL     1       5.337   4.387  19.205  0.00  0.00    +0.000 A 
ATOM     29  C   UNL     1       5.601   5.558  18.486  0.00  0.00    +0.000 A 
ENDBRANCH  20  27
ENDBRANCH  18  20
ENDBRANCH  17  18
ENDBRANCH   1  17
TORSDOF 8
ENDMDL
MODEL 4
REMARK VINA RESULT:      -7.2      1.077      1.683
REMARK  Name = 
REMARK  9 active torsions:
REMARK  status: ('A' for Active; 'I' for Inactive)
REMARK    1  A    between atoms: C_1  and  C_2
REMARK    2  A    between atoms: C_5  and  S_6
REMARK    3  A    between atoms: S_6  and  N_9
REMARK    4  A    between atoms: N_9  and  C_10
REMARK    5  A    between atoms: C_10  and  C_11
REMARK    6  A    between atoms: N_13  and  C_14
REMARK    7  A    between atoms: C_17  and  C_18
REMARK    8  A    between atoms: C_18  and  O_20
REMARK    9  A    between atoms: C_21  and  O_22
REMARK                            x       y       z     vdW  Elec       q    Type
REMARK                         _______ _______ _______ _____ _____    ______ ____
ROOT
ATOM      1  C   UNL     1       1.738   4.809  20.684  0.00  0.00    +0.000 C 
ATOM      2  O   UNL     1       0.531   4.691  20.467  0.00  0.00    +0.000 OA
ATOM      3  N   UNL     1       2.473   5.982  20.581  0.00  0.00    +0.000 N 
ATOM      4  H   UNL     1       3.484   5.903  20.607  0.00  0.00    +0.000 HD
ENDROOT
BRANCH   3   5
ATOM      5  C   UNL     1       1.962   7.254  20.240  0.00  0.00    +0.000 A 
ATOM      6  C   UNL     1       1.168   8.015  21.100  0.00  0.00    +0.000 A 
ATOM      7  C   UNL     1       0.627   9.242  20.695  0.00  0.00    +0.000 A 
ATOM      8  C   UNL     1       0.867   9.736  19.408  0.00  0.00    +0.000 A 
ATOM      9  C   UNL     1       1.707   8.989  18.563  0.00  0.00    +0.000 A 
ATOM     10  C   UNL     1       2.260   7.771  18.977  0.00  0.00    +0.000 A 
BRANCH   8  11
ATOM     11  C   UNL     1       0.273  11.004  18.898  0.00  0.00    +0.000 C 
ATOM     12  O   UNL     1       0.992  11.922  18.517  0.00  0.00    +0.000 OA
BRANCH  11  13
ATOM     13  O   UNL     1      -1.068  11.099  18.864  0.00  0.00    +0.000 OA
ATOM     14  H   UNL     1      -1.487  11.873  19.276  0.00  0.00    +0.000 HD
ENDBRANCH  11  13
ENDBRANCH   8  11
BRANCH   9  15
ATOM     15  O   UNL     1       2.031   9.376  17.286  0.00  0.00    +0.000 OA
ATOM     16  H   UNL     1       1.320   9.076  16.674  0.00  0.00    +0.000 HD
ENDBRANCH   9  15
ENDBRANCH   3   5
BRANCH   1  17
ATOM     17  C   UNL     1       2.559   3.591  21.108  0.00  0.00    +0.000 C 
BRANCH  17  18
ATOM     18  N   UNL     1       2.527   2.630  20.000  0.00  0.00    +0.000 NA
ATOM     19  H   UNL     1       1.840   1.877  20.086  0.00  0.00    +0.000 HD
BRANCH  18  20
ATOM     20  S   UNL     1       3.954   2.209  19.243  0.00  0.00    +0.000 S 
ATOM     21  O   UNL     1       3.606   1.368  18.117  0.00  0.00    +0.000 OA
ATOM     22  O   UNL     1       4.872   1.781  20.270  0.00  0.00    +0.000 OA
BRANCH  20  27
ATOM     23  C   UNL     1       6.185   7.386  16.993  0.00  0.00    +0.000 C 
ATOM     24  C   UNL     1       5.608   6.129  17.579  0.00  0.00    +0.000 A 
ATOM     25  C   UNL     1       6.180   5.542  18.716  0.00  0.00    +0.000 A 
ATOM     26  C   UNL     1       5.660   4.356  19.233  0.00  0.00    +0.000 A 
ATOM     27  C   UNL     1       4.555   3.757  18.615  0.00  0.00    +0.000 A 
ATOM     28  C   UNL     1       3.974   4.333  17.484  0.00  0.00    +0.000 A 
ATOM     29  C   UNL     1       4.505   5.520  16.970  0.00  0.00    +0.000 A 
ENDBRANCH  20  27
ENDBRANCH  18  20
ENDBRANCH  17  18
ENDBRANCH   1  17
TORSDOF 8
ENDMDL
MODEL 5
REMARK VINA RESULT:      -7.0      6.330      7.691
REMARK  Name = 
REMARK  9 active torsions:
REMARK  status: ('A' for Active; 'I' for Inactive)
REMARK    1  A    between atoms: C_1  and  C_2
REMARK    2  A    between atoms: C_5  and  S_6
REMARK    3  A    between atoms: S_6  and  N_9
REMARK    4  A    between atoms: N_9  and  C_10
REMARK    5  A    between atoms: C_10  and  C_11
REMARK    6  A    between atoms: N_13  and  C_14
REMARK    7  A    between atoms: C_17  and  C_18
REMARK    8  A    between atoms: C_18  and  O_20
REMARK    9  A    between atoms: C_21  and  O_22
REMARK                            x       y       z     vdW  Elec       q    Type
REMARK                         _______ _______ _______ _____ _____    ______ ____
ROOT
ATOM      1  C   UNL     1       8.240   8.895  18.245  0.00  0.00    +0.000 C 
ATOM      2  O   UNL     1       7.546   9.597  17.507  0.00  0.00    +0.000 OA
ATOM      3  N   UNL     1       9.216   9.350  19.121  0.00  0.00    +0.000 N 
ATOM      4  H   UNL     1       9.835   8.658  19.529  0.00  0.00    +0.000 HD
ENDROOT
BRANCH   3   5
ATOM      5  C   UNL     1       9.565  10.700  19.345  0.00  0.00    +0.000 A 
ATOM      6  C   UNL     1       9.657  11.265  20.618  0.00  0.00    +0.000 A 
ATOM      7  C   UNL     1       9.941  12.626  20.791  0.00  0.00    +0.000 A 
ATOM      8  C   UNL     1      10.135  13.459  19.684  0.00  0.00    +0.000 A 
ATOM      9  C   UNL     1      10.089  12.875  18.405  0.00  0.00    +0.000 A 
ATOM     10  C   UNL     1       9.822  11.511  18.237  0.00  0.00    +0.000 A 
BRANCH   8  11
ATOM     11  C   UNL     1      10.381  14.924  19.800  0.00  0.00    +0.000 C 
ATOM     12  O   UNL     1       9.691  15.725  19.178  0.00  0.00    +0.000 OA
BRANCH  11  13
ATOM     13  O   UNL     1      11.375  15.331  20.610  0.00  0.00    +0.000 OA
ATOM     14  H   UNL     1      11.870  14.659  21.106  0.00  0.00    +0.000 HD
ENDBRANCH  11  13
ENDBRANCH   8  11
BRANCH   9  15
ATOM     15  O   UNL     1      10.281  13.583  17.244  0.00  0.00    +0.000 OA
ATOM     16  H   UNL     1      11.103  13.260  16.809  0.00  0.00    +0.000 HD
ENDBRANCH   9  15
ENDBRANCH   3   5
BRANCH   1  17
ATOM     17  C   UNL     1       8.059   7.376  18.242  0.00  0.00    +0.000 C 
BRANCH  17  18
ATOM     18  N   UNL     1       7.260   7.030  17.062  0.00  0.00    +0.000 NA
ATOM     19  H   UNL     1       6.429   7.606  16.904  0.00  0.00    +0.000 HD
BRANCH  18  20
ATOM     20  S   UNL     1       7.110   5.427  16.620  0.00  0.00    +0.000 S 
ATOM     21  O   UNL     1       7.935   4.656  17.526  0.00  0.00    +0.000 OA
ATOM     22  O   UNL     1       7.270   5.363  15.188  0.00  0.00    +0.000 OA
BRANCH  20  27
ATOM     23  C   UNL     1       1.360   4.080  18.024  0.00  0.00    +0.000 C 
ATOM     24  C   UNL     1       2.770   4.422  17.634  0.00  0.00    +0.000 A 
ATOM     25  C   UNL     1       3.615   3.449  17.083  0.00  0.00    +0.000 A 
ATOM     26  C   UNL     1       4.934   3.765  16.757  0.00  0.00    +0.000 A 
ATOM     27  C   UNL     1       5.409   5.064  16.973  0.00  0.00    +0.000 A 
ATOM     28  C   UNL     1       4.576   6.044  17.518  0.00  0.00    +0.000 A 
ATOM     29  C   UNL     1       3.257   5.717  17.847  0.00  0.00    +0.000 A 
ENDBRANCH  20  27
ENDBRANCH  18  20
ENDBRANCH  17  18
ENDBRANCH   1  17
TORSDOF 8
ENDMDL
MODEL 6
REMARK VINA RESULT:      -7.0      3.379      7.737
REMARK  Name = 
REMARK  9 active torsions:
REMARK  status: ('A' for Active; 'I' for Inactive)
REMARK    1  A    between atoms: C_1  and  C_2
REMARK    2  A    between atoms: C_5  and  S_6
REMARK    3  A    between atoms: S_6  and  N_9
REMARK    4  A    between atoms: N_9  and  C_10
REMARK    5  A    between atoms: C_10  and  C_11
REMARK    6  A    between atoms: N_13  and  C_14
REMARK    7  A    between atoms: C_17  and  C_18
REMARK    8  A    between atoms: C_18  and  O_20
REMARK    9  A    between atoms: C_21  and  O_22
REMARK                            x       y       z     vdW  Elec       q    Type
REMARK                         _______ _______ _______ _____ _____    ______ ____
ROOT
ATOM      1  C   UNL     1       0.995   8.310  21.392  0.00  0.00    +0.000 C 
ATOM      2  O   UNL     1      -0.186   7.960  21.391  0.00  0.00    +0.000 OA
ATOM      3  N   UNL     1       2.059   7.587  20.871  0.00  0.00    +0.000 N 
ATOM      4  H   UNL     1       2.995   7.904  21.100  0.00  0.00    +0.000 HD
ENDROOT
BRANCH   3   5
ATOM      5  C   UNL     1       1.973   6.336  20.220  0.00  0.00    +0.000 A 
ATOM      6  C   UNL     1       2.310   6.148  18.878  0.00  0.00    +0.000 A 
ATOM      7  C   UNL     1       2.145   4.903  18.256  0.00  0.00    +0.000 A 
ATOM      8  C   UNL     1       1.630   3.814  18.966  0.00  0.00    +0.000 A 
ATOM      9  C   UNL     1       1.338   3.997  20.330  0.00  0.00    +0.000 A 
ATOM     10  C   UNL     1       1.520   5.237  20.953  0.00  0.00    +0.000 A 
BRANCH   8  11
ATOM     11  C   UNL     1       1.376   2.483  18.346  0.00  0.00    +0.000 C 
ATOM     12  O   UNL     1       0.248   2.002  18.339  0.00  0.00    +0.000 OA
BRANCH  11  13
ATOM     13  O   UNL     1       2.419   1.839  17.793  0.00  0.00    +0.000 OA
ATOM     14  H   UNL     1       2.988   1.303  18.368  0.00  0.00    +0.000 HD
ENDBRANCH  11  13
ENDBRANCH   8  11
BRANCH   9  15
ATOM     15  O   UNL     1       0.845   3.002  21.137  0.00  0.00    +0.000 OA
ATOM     16  H   UNL     1       0.243   3.404  21.805  0.00  0.00    +0.000 HD
ENDBRANCH   9  15
ENDBRANCH   3   5
BRANCH   1  17
ATOM     17  C   UNL     1       1.392   9.653  22.007  0.00  0.00    +0.000 C 
BRANCH  17  18
ATOM     18  N   UNL     1       0.171  10.456  22.136  0.00  0.00    +0.000 NA
ATOM     19  H   UNL     1      -0.695   9.927  22.269  0.00  0.00    +0.000 HD
BRANCH  18  20
ATOM     20  S   UNL     1       0.019  11.859  21.246  0.00  0.00    +0.000 S 
ATOM     21  O   UNL     1       1.356  12.282  20.886  0.00  0.00    +0.000 OA
ATOM     22  O   UNL     1      -0.896  12.718  21.956  0.00  0.00    +0.000 OA
BRANCH  20  27
ATOM     23  C   UNL     1      -2.746  10.211  16.099  0.00  0.00    +0.000 C 
ATOM     24  C   UNL     1      -2.085  10.587  17.395  0.00  0.00    +0.000 A 
ATOM     25  C   UNL     1      -2.697  11.490  18.274  0.00  0.00    +0.000 A 
ATOM     26  C   UNL     1      -2.061  11.862  19.459  0.00  0.00    +0.000 A 
ATOM     27  C   UNL     1      -0.808  11.319  19.771  0.00  0.00    +0.000 A 
ATOM     28  C   UNL     1      -0.189  10.415  18.905  0.00  0.00    +0.000 A 
ATOM     29  C   UNL     1      -0.833  10.053  17.718  0.00  0.00    +0.000 A 
ENDBRANCH  20  27
ENDBRANCH  18  20
ENDBRANCH  17  18
ENDBRANCH   1  17
TORSDOF 8
ENDMDL
MODEL 7
REMARK VINA RESULT:      -6.9      6.231      7.731
REMARK  Name = 
REMARK  9 active torsions:
REMARK  status: ('A' for Active; 'I' for Inactive)
REMARK    1  A    between atoms: C_1  and  C_2
REMARK    2  A    between atoms: C_5  and  S_6
REMARK    3  A    between atoms: S_6  and  N_9
REMARK    4  A    between atoms: N_9  and  C_10
REMARK    5  A    between atoms: C_10  and  C_11
REMARK    6  A    between atoms: N_13  and  C_14
REMARK    7  A    between atoms: C_17  and  C_18
REMARK    8  A    between atoms: C_18  and  O_20
REMARK    9  A    between atoms: C_21  and  O_22
REMARK                            x       y       z     vdW  Elec       q    Type
REMARK                         _______ _______ _______ _____ _____    ______ ____
ROOT
ATOM      1  C   UNL     1       8.330   8.736  18.207  0.00  0.00    +0.000 C 
ATOM      2  O   UNL     1       7.736   9.244  17.255  0.00  0.00    +0.000 OA
ATOM      3  N   UNL     1       9.221   9.383  19.052  0.00  0.00    +0.000 N 
ATOM      4  H   UNL     1       9.775   8.806  19.676  0.00  0.00    +0.000 HD
ENDROOT
BRANCH   3   5
ATOM      5  C   UNL     1       9.582  10.747  18.988  0.00  0.00    +0.000 A 
ATOM      6  C   UNL     1       9.210  11.682  19.956  0.00  0.00    +0.000 A 
ATOM      7  C   UNL     1       9.534  13.039  19.818  0.00  0.00    +0.000 A 
ATOM      8  C   UNL     1      10.238  13.492  18.698  0.00  0.00    +0.000 A 
ATOM      9  C   UNL     1      10.653  12.538  17.750  0.00  0.00    +0.000 A 
ATOM     10  C   UNL     1      10.343  11.181  17.900  0.00  0.00    +0.000 A 
BRANCH   8  11
ATOM     11  C   UNL     1      10.561  14.929  18.465  0.00  0.00    +0.000 C 
ATOM     12  O   UNL     1      11.682  15.265  18.099  0.00  0.00    +0.000 OA
BRANCH  11  13
ATOM     13  O   UNL     1       9.583  15.831  18.661  0.00  0.00    +0.000 OA
ATOM     14  H   UNL     1       9.834  16.738  18.899  0.00  0.00    +0.000 HD
ENDBRANCH  11  13
ENDBRANCH   8  11
BRANCH   9  15
ATOM     15  O   UNL     1      11.364  12.856  16.620  0.00  0.00    +0.000 OA
ATOM     16  H   UNL     1      11.016  13.703  16.254  0.00  0.00    +0.000 HD
ENDBRANCH   9  15
ENDBRANCH   3   5
BRANCH   1  17
ATOM     17  C   UNL     1       8.108   7.260  18.543  0.00  0.00    +0.000 C 
BRANCH  17  18
ATOM     18  N   UNL     1       7.313   6.676  17.457  0.00  0.00    +0.000 NA
ATOM     19  H   UNL     1       6.471   7.196  17.195  0.00  0.00    +0.000 HD
BRANCH  18  20
ATOM     20  S   UNL     1       7.190   5.016  17.337  0.00  0.00    +0.000 S 
ATOM     21  O   UNL     1       7.973   4.452  18.416  0.00  0.00    +0.000 OA
ATOM     22  O   UNL     1       7.417   4.670  15.956  0.00  0.00    +0.000 OA
BRANCH  20  27
ATOM     23  C   UNL     1       1.383   3.750  18.575  0.00  0.00    +0.000 C 
ATOM     24  C   UNL     1       2.806   4.099  18.243  0.00  0.00    +0.000 A 
ATOM     25  C   UNL     1       3.406   3.617  17.071  0.00  0.00    +0.000 A 
ATOM     26  C   UNL     1       4.739   3.915  16.788  0.00  0.00    +0.000 A 
ATOM     27  C   UNL     1       5.475   4.708  17.677  0.00  0.00    +0.000 A 
ATOM     28  C   UNL     1       4.888   5.198  18.846  0.00  0.00    +0.000 A 
ATOM     29  C   UNL     1       3.553   4.889  19.124  0.00  0.00    +0.000 A 
ENDBRANCH  20  27
ENDBRANCH  18  20
ENDBRANCH  17  18
ENDBRANCH   1  17
TORSDOF 8
ENDMDL
MODEL 8
REMARK VINA RESULT:      -6.9      1.380      2.187
REMARK  Name = 
REMARK  9 active torsions:
REMARK  status: ('A' for Active; 'I' for Inactive)
REMARK    1  A    between atoms: C_1  and  C_2
REMARK    2  A    between atoms: C_5  and  S_6
REMARK    3  A    between atoms: S_6  and  N_9
REMARK    4  A    between atoms: N_9  and  C_10
REMARK    5  A    between atoms: C_10  and  C_11
REMARK    6  A    between atoms: N_13  and  C_14
REMARK    7  A    between atoms: C_17  and  C_18
REMARK    8  A    between atoms: C_18  and  O_20
REMARK    9  A    between atoms: C_21  and  O_22
REMARK                            x       y       z     vdW  Elec       q    Type
REMARK                         _______ _______ _______ _____ _____    ______ ____
ROOT
ATOM      1  C   UNL     1       2.087   5.133  20.363  0.00  0.00    +0.000 C 
ATOM      2  O   UNL     1       0.879   4.891  20.362  0.00  0.00    +0.000 OA
ATOM      3  N   UNL     1       2.668   6.383  20.200  0.00  0.00    +0.000 N 
ATOM      4  H   UNL     1       3.669   6.414  20.038  0.00  0.00    +0.000 HD
ENDROOT
BRANCH   3   5
ATOM      5  C   UNL     1       1.976   7.603  20.033  0.00  0.00    +0.000 A 
ATOM      6  C   UNL     1       1.140   8.148  21.009  0.00  0.00    +0.000 A 
ATOM      7  C   UNL     1       0.421   9.328  20.775  0.00  0.00    +0.000 A 
ATOM      8  C   UNL     1       0.521   9.990  19.547  0.00  0.00    +0.000 A 
ATOM      9  C   UNL     1       1.402   9.463  18.585  0.00  0.00    +0.000 A 
ATOM     10  C   UNL     1       2.132   8.294  18.829  0.00  0.00    +0.000 A 
BRANCH   8  11
ATOM     11  C   UNL     1      -0.262  11.214  19.216  0.00  0.00    +0.000 C 
ATOM     12  O   UNL     1      -0.465  12.075  20.066  0.00  0.00    +0.000 OA
BRANCH  11  13
ATOM     13  O   UNL     1      -0.726  11.342  17.960  0.00  0.00    +0.000 OA
ATOM     14  H   UNL     1      -0.248  10.892  17.244  0.00  0.00    +0.000 HD
ENDBRANCH  11  13
ENDBRANCH   8  11
BRANCH   9  15
ATOM     15  O   UNL     1       1.599  10.032  17.351  0.00  0.00    +0.000 OA
ATOM     16  H   UNL     1       0.723  10.170  16.922  0.00  0.00    +0.000 HD
ENDBRANCH   9  15
ENDBRANCH   3   5
BRANCH   1  17
ATOM     17  C   UNL     1       3.091   3.996  20.559  0.00  0.00    +0.000 C 
BRANCH  17  18
ATOM     18  N   UNL     1       2.618   2.851  19.775  0.00  0.00    +0.000 NA
ATOM     19  H   UNL     1       2.617   1.950  20.262  0.00  0.00    +0.000 HD
BRANCH  18  20
ATOM     20  S   UNL     1       2.967   2.777  18.144  0.00  0.00    +0.000 S 
ATOM     21  O   UNL     1       1.781   3.211  17.436  0.00  0.00    +0.000 OA
ATOM     22  O   UNL     1       3.588   1.499  17.898  0.00  0.00    +0.000 OA
BRANCH  20  27
ATOM     23  C   UNL     1       7.145   7.147  17.597  0.00  0.00    +0.000 C 
ATOM     24  C   UNL     1       6.126   6.048  17.694  0.00  0.00    +0.000 A 
ATOM     25  C   UNL     1       4.886   6.163  17.050  0.00  0.00    +0.000 A 
ATOM     26  C   UNL     1       3.932   5.153  17.174  0.00  0.00    +0.000 A 
ATOM     27  C   UNL     1       4.221   4.017  17.939  0.00  0.00    +0.000 A 
ATOM     28  C   UNL     1       5.453   3.888  18.582  0.00  0.00    +0.000 A 
ATOM     29  C   UNL     1       6.402   4.907  18.456  0.00  0.00    +0.000 A 
ENDBRANCH  20  27
ENDBRANCH  18  20
ENDBRANCH  17  18
ENDBRANCH   1  17
TORSDOF 8
ENDMDL
MODEL 9
REMARK VINA RESULT:      -6.9      6.366      7.729
REMARK  Name = 
REMARK  9 active torsions:
REMARK  status: ('A' for Active; 'I' for Inactive)
REMARK    1  A    between atoms: C_1  and  C_2
REMARK    2  A    between atoms: C_5  and  S_6
REMARK    3  A    between atoms: S_6  and  N_9
REMARK    4  A    between atoms: N_9  and  C_10
REMARK    5  A    between atoms: C_10  and  C_11
REMARK    6  A    between atoms: N_13  and  C_14
REMARK    7  A    between atoms: C_17  and  C_18
REMARK    8  A    between atoms: C_18  and  O_20
REMARK    9  A    between atoms: C_21  and  O_22
REMARK                            x       y       z     vdW  Elec       q    Type
REMARK                         _______ _______ _______ _____ _____    ______ ____
ROOT
ATOM      1  C   UNL     1       8.147   8.781  18.193  0.00  0.00    +0.000 C 
ATOM      2  O   UNL     1       7.504   9.556  17.484  0.00  0.00    +0.000 OA
ATOM      3  N   UNL     1       9.133   9.137  19.103  0.00  0.00    +0.000 N 
ATOM      4  H   UNL     1       9.707   8.393  19.483  0.00  0.00    +0.000 HD
ENDROOT
BRANCH   3   5
ATOM      5  C   UNL     1       9.550  10.453  19.401  0.00  0.00    +0.000 A 
ATOM      6  C   UNL     1       9.377  11.045  20.653  0.00  0.00    +0.000 A 
ATOM      7  C   UNL     1       9.746  12.377  20.884  0.00  0.00    +0.000 A 
ATOM      8  C   UNL     1      10.296  13.152  19.858  0.00  0.00    +0.000 A 
ATOM      9  C   UNL     1      10.514  12.535  18.612  0.00  0.00    +0.000 A 
ATOM     10  C   UNL     1      10.160  11.199  18.390  0.00  0.00    +0.000 A 
BRANCH   8  11
ATOM     11  C   UNL     1      10.654  14.589  20.024  0.00  0.00    +0.000 C 
ATOM     12  O   UNL     1       9.814  15.404  20.392  0.00  0.00    +0.000 OA
BRANCH  11  13
ATOM     13  O   UNL     1      11.923  14.954  19.766  0.00  0.00    +0.000 OA
ATOM     14  H   UNL     1      12.080  15.822  19.360  0.00  0.00    +0.000 HD
ENDBRANCH  11  13
ENDBRANCH   8  11
BRANCH   9  15
ATOM     15  O   UNL     1      11.062  13.184  17.534  0.00  0.00    +0.000 OA
ATOM     16  H   UNL     1      10.352  13.358  16.873  0.00  0.00    +0.000 HD
ENDBRANCH   9  15
ENDBRANCH   3   5
BRANCH   1  17
ATOM     17  C   UNL     1       7.885   7.276  18.110  0.00  0.00    +0.000 C 
BRANCH  17  18
ATOM     18  N   UNL     1       7.613   6.953  16.705  0.00  0.00    +0.000 NA
ATOM     19  H   UNL     1       7.348   7.744  16.112  0.00  0.00    +0.000 HD
BRANCH  18  20
ATOM     20  S   UNL     1       6.879   5.502  16.329  0.00  0.00    +0.000 S 
ATOM     21  O   UNL     1       7.810   4.450  16.680  0.00  0.00    +0.000 OA
ATOM     22  O   UNL     1       6.330   5.634  15.002  0.00  0.00    +0.000 OA
BRANCH  20  27
ATOM     23  C   UNL     1       2.076   5.153  20.024  0.00  0.00    +0.000 C 
ATOM     24  C   UNL     1       3.282   5.271  19.136  0.00  0.00    +0.000 A 
ATOM     25  C   UNL     1       3.339   6.247  18.132  0.00  0.00    +0.000 A 
ATOM     26  C   UNL     1       4.447   6.327  17.290  0.00  0.00    +0.000 A 
ATOM     27  C   UNL     1       5.510   5.432  17.457  0.00  0.00    +0.000 A 
ATOM     28  C   UNL     1       5.469   4.457  18.456  0.00  0.00    +0.000 A 
ATOM     29  C   UNL     1       4.351   4.381  19.293  0.00  0.00    +0.000 A 
ENDBRANCH  20  27
ENDBRANCH  18  20
ENDBRANCH  17  18
ENDBRANCH   1  17
TORSDOF 8
ENDMDL
