MODEL 1
REMARK VINA RESULT:      -7.8      0.000      0.000
REMARK  Name = 
REMARK  7 active torsions:
REMARK  status: ('A' for Active; 'I' for Inactive)
REMARK    1  A    between atoms: C_1  and  C_2
REMARK    2  A    between atoms: C_5  and  N_6
REMARK    3  A    between atoms: N_6  and  C_7
REMARK    4  A    between atoms: C_7  and  C_8
REMARK    5  A    between atoms: N_10  and  C_11
REMARK    6  A    between atoms: C_11  and  C_12
REMARK    7  A    between atoms: C_18  and  C_20
REMARK                            x       y       z     vdW  Elec       q    Type
REMARK                         _______ _______ _______ _____ _____    ______ ____
ROOT
ATOM      1  N   UNL     1       4.505   4.251  18.136  0.00  0.00    +0.000 N 
ATOM      2  C   UNL     1       3.872   3.020  18.449  0.00  0.00    +0.000 C 
ATOM      3  O   UNL     1       3.932   2.034  17.712  0.00  0.00    +0.000 OA
ENDROOT
BRANCH   1   8
ATOM      4  C   UNL     1       7.626   5.015  13.360  0.00  0.00    +0.000 C 
ATOM      5  C   UNL     1       6.811   4.758  14.593  0.00  0.00    +0.000 A 
ATOM      6  C   UNL     1       5.445   4.471  14.514  0.00  0.00    +0.000 A 
ATOM      7  C   UNL     1       4.691   4.264  15.678  0.00  0.00    +0.000 A 
ATOM      8  C   UNL     1       5.286   4.360  16.942  0.00  0.00    +0.000 A 
ATOM      9  C   UNL     1       6.664   4.587  17.012  0.00  0.00    +0.000 A 
ATOM     10  C   UNL     1       7.420   4.780  15.850  0.00  0.00    +0.000 A 
ENDBRANCH   1   8
BRANCH   2  11
ATOM     11  C   UNL     1       3.105   2.903  19.705  0.00  0.00    +0.000 A 
ATOM     12  C   UNL     1       1.736   3.129  19.777  0.00  0.00    +0.000 A 
ATOM     13  S   UNL     1       1.243   2.889  21.400  0.00  0.00    +0.000 S 
ATOM     14  N   UNL     1       2.781   2.480  21.902  0.00  0.00    +0.000 NA
ATOM     15  N   UNL     1       3.662   2.504  20.919  0.00  0.00    +0.000 NA
ENDBRANCH   2  11
BRANCH   1  16
ATOM     16  C   UNL     1       4.307   5.458  18.959  0.00  0.00    +0.000 C 
BRANCH  16  17
ATOM     17  C   UNL     1       3.590   6.712  18.445  0.00  0.00    +0.000 C 
ATOM     18  O   UNL     1       3.949   7.274  17.406  0.00  0.00    +0.000 OA
ATOM     19  N   UNL     1       2.536   7.169  19.203  0.00  0.00    +0.000 N 
ATOM     20  H   UNL     1       2.240   6.659  20.026  0.00  0.00    +0.000 HD
BRANCH  19  21
ATOM     21  C   UNL     1       1.785   8.341  18.814  0.00  0.00    +0.000 C 
BRANCH  21  22
ATOM     22  C   UNL     1       1.118   9.003  19.992  0.00  0.00    +0.000 A 
ATOM     23  C   UNL     1       1.220   8.441  21.276  0.00  0.00    +0.000 A 
ATOM     24  C   UNL     1       0.640   9.075  22.378  0.00  0.00    +0.000 A 
ATOM     25  C   UNL     1      -0.057  10.270  22.210  0.00  0.00    +0.000 A 
ATOM     26  C   UNL     1      -0.178  10.830  20.939  0.00  0.00    +0.000 A 
ATOM     27  C   UNL     1       0.402  10.199  19.836  0.00  0.00    +0.000 A 
ENDBRANCH  21  22
ENDBRANCH  19  21
ENDBRANCH  16  17
ENDBRANCH   1  16
TORSDOF 6
ENDMDL
MODEL 2
REMARK VINA RESULT:      -7.6      0.816      1.279
REMARK  Name = 
REMARK  7 active torsions:
REMARK  status: ('A' for Active; 'I' for Inactive)
REMARK    1  A    between atoms: C_1  and  C_2
REMARK    2  A    between atoms: C_5  and  N_6
REMARK    3  A    between atoms: N_6  and  C_7
REMARK    4  A    between atoms: C_7  and  C_8
REMARK    5  A    between atoms: N_10  and  C_11
REMARK    6  A    between atoms: C_11  and  C_12
REMARK    7  A    between atoms: C_18  and  C_20
REMARK                            x       y       z     vdW  Elec       q    Type
REMARK                         _______ _______ _______ _____ _____    ______ ____
ROOT
ATOM      1  N   UNL     1       4.334   4.416  18.014  0.00  0.00    +0.000 N 
ATOM      2  C   UNL     1       3.592   3.233  18.263  0.00  0.00    +0.000 C 
ATOM      3  O   UNL     1       3.622   2.256  17.511  0.00  0.00    +0.000 OA
ENDROOT
BRANCH   1   8
ATOM      4  C   UNL     1       7.777   5.014  13.440  0.00  0.00    +0.000 C 
ATOM      5  C   UNL     1       6.877   4.800  14.621  0.00  0.00    +0.000 A 
ATOM      6  C   UNL     1       5.508   4.566  14.457  0.00  0.00    +0.000 A 
ATOM      7  C   UNL     1       4.675   4.399  15.572  0.00  0.00    +0.000 A 
ATOM      8  C   UNL     1       5.192   4.484  16.871  0.00  0.00    +0.000 A 
ATOM      9  C   UNL     1       6.571   4.657  17.026  0.00  0.00    +0.000 A 
ATOM     10  C   UNL     1       7.406   4.810  15.913  0.00  0.00    +0.000 A 
ENDBRANCH   1   8
BRANCH   2  11
ATOM     11  C   UNL     1       2.743   3.155  19.469  0.00  0.00    +0.000 A 
ATOM     12  C   UNL     1       3.187   2.616  20.671  0.00  0.00    +0.000 A 
ATOM     13  S   UNL     1       1.905   2.718  21.803  0.00  0.00    +0.000 S 
ATOM     14  N   UNL     1       0.884   3.468  20.717  0.00  0.00    +0.000 NA
ATOM     15  N   UNL     1       1.445   3.659  19.537  0.00  0.00    +0.000 NA
ENDBRANCH   2  11
BRANCH   1  16
ATOM     16  C   UNL     1       4.179   5.622  18.849  0.00  0.00    +0.000 C 
BRANCH  16  17
ATOM     17  C   UNL     1       3.421   6.870  18.381  0.00  0.00    +0.000 C 
ATOM     18  O   UNL     1       3.683   7.412  17.303  0.00  0.00    +0.000 OA
ATOM     19  N   UNL     1       2.444   7.345  19.225  0.00  0.00    +0.000 N 
ATOM     20  H   UNL     1       2.224   6.851  20.082  0.00  0.00    +0.000 HD
BRANCH  19  21
ATOM     21  C   UNL     1       1.663   8.514  18.888  0.00  0.00    +0.000 C 
BRANCH  21  22
ATOM     22  C   UNL     1       1.016   9.133  20.099  0.00  0.00    +0.000 A 
ATOM     23  C   UNL     1       0.176  10.250  19.965  0.00  0.00    +0.000 A 
ATOM     24  C   UNL     1      -0.461  10.800  21.081  0.00  0.00    +0.000 A 
ATOM     25  C   UNL     1      -0.257  10.248  22.344  0.00  0.00    +0.000 A 
ATOM     26  C   UNL     1       0.586   9.148  22.493  0.00  0.00    +0.000 A 
ATOM     27  C   UNL     1       1.223   8.596  21.379  0.00  0.00    +0.000 A 
ENDBRANCH  21  22
ENDBRANCH  19  21
ENDBRANCH  16  17
ENDBRANCH   1  16
TORSDOF 6
ENDMDL
MODEL 3
REMARK VINA RESULT:      -7.6      0.172      1.346
REMARK  Name = 
REMARK  7 active torsions:
REMARK  status: ('A' for Active; 'I' for Inactive)
REMARK    1  A    between atoms: C_1  and  C_2
REMARK    2  A    between atoms: C_5  and  N_6
REMARK    3  A    between atoms: N_6  and  C_7
REMARK    4  A    between atoms: C_7  and  C_8
REMARK    5  A    between atoms: N_10  and  C_11
REMARK    6  A    between atoms: C_11  and  C_12
REMARK    7  A    between atoms: C_18  and  C_20
REMARK                            x       y       z     vdW  Elec       q    Type
REMARK                         _______ _______ _______ _____ _____    ______ ____
ROOT
ATOM      1  N   UNL     1       4.449   4.355  18.169  0.00  0.00    +0.000 N 
ATOM      2  C   UNL     1       3.861   3.096  18.459  0.00  0.00    +0.000 C 
ATOM      3  O   UNL     1       3.947   2.130  17.699  0.00  0.00    +0.000 OA
ENDROOT
BRANCH   1   8
ATOM      4  C   UNL     1       7.532   4.686  13.319  0.00  0.00    +0.000 C 
ATOM      5  C   UNL     1       6.735   4.659  14.590  0.00  0.00    +0.000 A 
ATOM      6  C   UNL     1       7.356   4.769  15.839  0.00  0.00    +0.000 A 
ATOM      7  C   UNL     1       6.600   4.710  17.018  0.00  0.00    +0.000 A 
ATOM      8  C   UNL     1       5.213   4.518  16.970  0.00  0.00    +0.000 A 
ATOM      9  C   UNL     1       4.592   4.470  15.718  0.00  0.00    +0.000 A 
ATOM     10  C   UNL     1       5.344   4.542  14.541  0.00  0.00    +0.000 A 
ENDBRANCH   1   8
BRANCH   2  11
ATOM     11  C   UNL     1       3.112   2.924  19.719  0.00  0.00    +0.000 A 
ATOM     12  C   UNL     1       1.740   3.127  19.815  0.00  0.00    +0.000 A 
ATOM     13  S   UNL     1       1.271   2.824  21.435  0.00  0.00    +0.000 S 
ATOM     14  N   UNL     1       2.821   2.422  21.905  0.00  0.00    +0.000 NA
ATOM     15  N   UNL     1       3.690   2.493  20.913  0.00  0.00    +0.000 NA
ENDBRANCH   2  11
BRANCH   1  16
ATOM     16  C   UNL     1       4.220   5.535  19.022  0.00  0.00    +0.000 C 
BRANCH  16  17
ATOM     17  C   UNL     1       3.482   6.788  18.534  0.00  0.00    +0.000 C 
ATOM     18  O   UNL     1       3.795   7.344  17.477  0.00  0.00    +0.000 OA
ATOM     19  N   UNL     1       2.465   7.251  19.336  0.00  0.00    +0.000 N 
ATOM     20  H   UNL     1       2.205   6.745  20.175  0.00  0.00    +0.000 HD
BRANCH  19  21
ATOM     21  C   UNL     1       1.698   8.423  18.977  0.00  0.00    +0.000 C 
BRANCH  21  22
ATOM     22  C   UNL     1       1.052   9.068  20.175  0.00  0.00    +0.000 A 
ATOM     23  C   UNL     1       0.259  10.217  20.024  0.00  0.00    +0.000 A 
ATOM     24  C   UNL     1      -0.377  10.793  21.127  0.00  0.00    +0.000 A 
ATOM     25  C   UNL     1      -0.220  10.234  22.394  0.00  0.00    +0.000 A 
ATOM     26  C   UNL     1       0.576   9.103  22.560  0.00  0.00    +0.000 A 
ATOM     27  C   UNL     1       1.212   8.524  21.459  0.00  0.00    +0.000 A 
ENDBRANCH  21  22
ENDBRANCH  19  21
ENDBRANCH  16  17
ENDBRANCH   1  16
TORSDOF 6
ENDMDL
MODEL 4
REMARK VINA RESULT:      -7.6      0.532      1.134
REMARK  Name = 
REMARK  7 active torsions:
REMARK  status: ('A' for Active; 'I' for Inactive)
REMARK    1  A    between atoms: C_1  and  C_2
REMARK    2  A    between atoms: C_5  and  N_6
REMARK    3  A    between atoms: N_6  and  C_7
REMARK    4  A    between atoms: C_7  and  C_8
REMARK    5  A    between atoms: N_10  and  C_11
REMARK    6  A    between atoms: C_11  and  C_12
REMARK    7  A    between atoms: C_18  and  C_20
REMARK                            x       y       z     vdW  Elec       q    Type
REMARK                         _______ _______ _______ _____ _____    ______ ____
ROOT
ATOM      1  N   UNL     1       4.479   4.230  18.033  0.00  0.00    +0.000 N 
ATOM      2  C   UNL     1       3.898   2.986  18.388  0.00  0.00    +0.000 C 
ATOM      3  O   UNL     1       4.006   1.976  17.689  0.00  0.00    +0.000 OA
ENDROOT
BRANCH   1   8
ATOM      4  C   UNL     1       7.612   4.951  13.258  0.00  0.00    +0.000 C 
ATOM      5  C   UNL     1       6.794   4.705  14.491  0.00  0.00    +0.000 A 
ATOM      6  C   UNL     1       5.427   4.421  14.411  0.00  0.00    +0.000 A 
ATOM      7  C   UNL     1       4.671   4.224  15.575  0.00  0.00    +0.000 A 
ATOM      8  C   UNL     1       5.263   4.329  16.840  0.00  0.00    +0.000 A 
ATOM      9  C   UNL     1       6.642   4.552  16.910  0.00  0.00    +0.000 A 
ATOM     10  C   UNL     1       7.400   4.735  15.749  0.00  0.00    +0.000 A 
ENDBRANCH   1   8
BRANCH   2  11
ATOM     11  C   UNL     1       3.128   2.883  19.644  0.00  0.00    +0.000 A 
ATOM     12  C   UNL     1       1.756   3.093  19.707  0.00  0.00    +0.000 A 
ATOM     13  S   UNL     1       1.261   2.877  21.333  0.00  0.00    +0.000 S 
ATOM     14  N   UNL     1       2.802   2.498  21.848  0.00  0.00    +0.000 NA
ATOM     15  N   UNL     1       3.687   2.515  20.868  0.00  0.00    +0.000 NA
ENDBRANCH   2  11
BRANCH   1  16
ATOM     16  C   UNL     1       4.224   5.458  18.809  0.00  0.00    +0.000 C 
BRANCH  16  17
ATOM     17  C   UNL     1       3.747   6.768  18.169  0.00  0.00    +0.000 C 
ATOM     18  O   UNL     1       4.473   7.405  17.400  0.00  0.00    +0.000 OA
ATOM     19  N   UNL     1       2.479   7.184  18.500  0.00  0.00    +0.000 N 
ATOM     20  H   UNL     1       1.894   6.614  19.099  0.00  0.00    +0.000 HD
BRANCH  19  21
ATOM     21  C   UNL     1       1.922   8.403  17.955  0.00  0.00    +0.000 C 
BRANCH  21  22
ATOM     22  C   UNL     1       1.272   9.252  19.016  0.00  0.00    +0.000 A 
ATOM     23  C   UNL     1       0.733  10.508  18.691  0.00  0.00    +0.000 A 
ATOM     24  C   UNL     1       0.091  11.280  19.662  0.00  0.00    +0.000 A 
ATOM     25  C   UNL     1      -0.013  10.812  20.970  0.00  0.00    +0.000 A 
ATOM     26  C   UNL     1       0.531   9.574  21.310  0.00  0.00    +0.000 A 
ATOM     27  C   UNL     1       1.173   8.800  20.340  0.00  0.00    +0.000 A 
ENDBRANCH  21  22
ENDBRANCH  19  21
ENDBRANCH  16  17
ENDBRANCH   1  16
TORSDOF 6
ENDMDL
MODEL 5
REMARK VINA RESULT:      -7.4      5.065      7.306
REMARK  Name = 
REMARK  7 active torsions:
REMARK  status: ('A' for Active; 'I' for Inactive)
REMARK    1  A    between atoms: C_1  and  C_2
REMARK    2  A    between atoms: C_5  and  N_6
REMARK    3  A    between atoms: N_6  and  C_7
REMARK    4  A    between atoms: C_7  and  C_8
REMARK    5  A    between atoms: N_10  and  C_11
REMARK    6  A    between atoms: C_11  and  C_12
REMARK    7  A    between atoms: C_18  and  C_20
REMARK                            x       y       z     vdW  Elec       q    Type
REMARK                         _______ _______ _______ _____ _____    ______ ____
ROOT
ATOM      1  N   UNL     1       5.607   5.651  16.775  0.00  0.00    +0.000 N 
ATOM      2  C   UNL     1       5.781   4.575  15.866  0.00  0.00    +0.000 C 
ATOM      3  O   UNL     1       5.244   3.476  16.023  0.00  0.00    +0.000 OA
ENDROOT
BRANCH   1   8
ATOM      4  C   UNL     1       1.980   4.757  21.155  0.00  0.00    +0.000 C 
ATOM      5  C   UNL     1       2.945   5.039  20.041  0.00  0.00    +0.000 A 
ATOM      6  C   UNL     1       2.707   6.059  19.115  0.00  0.00    +0.000 A 
ATOM      7  C   UNL     1       3.603   6.289  18.062  0.00  0.00    +0.000 A 
ATOM      8  C   UNL     1       4.742   5.489  17.903  0.00  0.00    +0.000 A 
ATOM      9  C   UNL     1       5.005   4.511  18.867  0.00  0.00    +0.000 A 
ATOM     10  C   UNL     1       4.119   4.290  19.927  0.00  0.00    +0.000 A 
ENDBRANCH   1   8
BRANCH   2  11
ATOM     11  C   UNL     1       6.640   4.765  14.681  0.00  0.00    +0.000 A 
ATOM     12  C   UNL     1       6.351   4.206  13.442  0.00  0.00    +0.000 A 
ATOM     13  S   UNL     1       7.588   4.668  12.350  0.00  0.00    +0.000 S 
ATOM     14  N   UNL     1       8.391   5.572  13.500  0.00  0.00    +0.000 NA
ATOM     15  N   UNL     1       7.785   5.561  14.673  0.00  0.00    +0.000 NA
ENDBRANCH   2  11
BRANCH   1  16
ATOM     16  C   UNL     1       6.364   6.909  16.645  0.00  0.00    +0.000 C 
BRANCH  16  17
ATOM     17  C   UNL     1       7.412   7.363  17.669  0.00  0.00    +0.000 C 
ATOM     18  O   UNL     1       7.934   6.561  18.449  0.00  0.00    +0.000 OA
ATOM     19  N   UNL     1       7.731   8.701  17.666  0.00  0.00    +0.000 N 
ATOM     20  H   UNL     1       7.316   9.324  16.983  0.00  0.00    +0.000 HD
BRANCH  19  21
ATOM     21  C   UNL     1       8.707   9.243  18.585  0.00  0.00    +0.000 C 
BRANCH  21  22
ATOM     22  C   UNL     1       9.159  10.623  18.183  0.00  0.00    +0.000 A 
ATOM     23  C   UNL     1       8.219  11.608  17.840  0.00  0.00    +0.000 A 
ATOM     24  C   UNL     1       8.631  12.901  17.509  0.00  0.00    +0.000 A 
ATOM     25  C   UNL     1       9.987  13.222  17.507  0.00  0.00    +0.000 A 
ATOM     26  C   UNL     1      10.932  12.250  17.831  0.00  0.00    +0.000 A 
ATOM     27  C   UNL     1      10.521  10.956  18.164  0.00  0.00    +0.000 A 
ENDBRANCH  21  22
ENDBRANCH  19  21
ENDBRANCH  16  17
ENDBRANCH   1  16
TORSDOF 6
ENDMDL
MODEL 6
REMARK VINA RESULT:      -7.4      0.969      1.148
REMARK  Name = 
REMARK  7 active torsions:
REMARK  status: ('A' for Active; 'I' for Inactive)
REMARK    1  A    between atoms: C_1  and  C_2
REMARK    2  A    between atoms: C_5  and  N_6
REMARK    3  A    between atoms: N_6  and  C_7
REMARK    4  A    between atoms: C_7  and  C_8
REMARK    5  A    between atoms: N_10  and  C_11
REMARK    6  A    between atoms: C_11  and  C_12
REMARK    7  A    between atoms: C_18  and  C_20
REMARK                            x       y       z     vdW  Elec       q    Type
REMARK                         _______ _______ _______ _____ _____    ______ ____
ROOT
ATOM      1  N   UNL     1       4.375   4.268  18.095  0.00  0.00    +0.000 N 
ATOM      2  C   UNL     1       3.972   2.986  18.549  0.00  0.00    +0.000 C 
ATOM      3  O   UNL     1       4.271   1.946  17.960  0.00  0.00    +0.000 OA
ENDROOT
BRANCH   1   8
ATOM      4  C   UNL     1       7.667   5.035  13.436  0.00  0.00    +0.000 C 
ATOM      5  C   UNL     1       6.809   4.776  14.639  0.00  0.00    +0.000 A 
ATOM      6  C   UNL     1       5.449   4.477  14.509  0.00  0.00    +0.000 A 
ATOM      7  C   UNL     1       4.654   4.269  15.645  0.00  0.00    +0.000 A 
ATOM      8  C   UNL     1       5.200   4.378  16.930  0.00  0.00    +0.000 A 
ATOM      9  C   UNL     1       6.572   4.617  17.051  0.00  0.00    +0.000 A 
ATOM     10  C   UNL     1       7.369   4.812  15.918  0.00  0.00    +0.000 A 
ENDBRANCH   1   8
BRANCH   2  11
ATOM     11  C   UNL     1       3.158   2.880  19.777  0.00  0.00    +0.000 A 
ATOM     12  C   UNL     1       1.778   3.039  19.783  0.00  0.00    +0.000 A 
ATOM     13  S   UNL     1       1.228   2.838  21.393  0.00  0.00    +0.000 S 
ATOM     14  N   UNL     1       2.761   2.527  21.975  0.00  0.00    +0.000 NA
ATOM     15  N   UNL     1       3.682   2.558  21.029  0.00  0.00    +0.000 NA
ENDBRANCH   2  11
BRANCH   1  16
ATOM     16  C   UNL     1       3.893   5.507  18.733  0.00  0.00    +0.000 C 
BRANCH  16  17
ATOM     17  C   UNL     1       2.707   6.318  18.195  0.00  0.00    +0.000 C 
ATOM     18  O   UNL     1       1.718   5.760  17.711  0.00  0.00    +0.000 OA
ATOM     19  N   UNL     1       2.812   7.687  18.283  0.00  0.00    +0.000 N 
ATOM     20  H   UNL     1       3.618   8.110  18.727  0.00  0.00    +0.000 HD
BRANCH  19  21
ATOM     21  C   UNL     1       1.755   8.553  17.810  0.00  0.00    +0.000 C 
BRANCH  21  22
ATOM     22  C   UNL     1       1.432   9.644  18.798  0.00  0.00    +0.000 A 
ATOM     23  C   UNL     1       0.924   9.327  20.068  0.00  0.00    +0.000 A 
ATOM     24  C   UNL     1       0.664  10.333  21.002  0.00  0.00    +0.000 A 
ATOM     25  C   UNL     1       0.899  11.667  20.675  0.00  0.00    +0.000 A 
ATOM     26  C   UNL     1       1.389  11.997  19.413  0.00  0.00    +0.000 A 
ATOM     27  C   UNL     1       1.650  10.992  18.477  0.00  0.00    +0.000 A 
ENDBRANCH  21  22
ENDBRANCH  19  21
ENDBRANCH  16  17
ENDBRANCH   1  16
TORSDOF 6
ENDMDL
MODEL 7
REMARK VINA RESULT:      -7.3      0.753      1.390
REMARK  Name = 
REMARK  7 active torsions:
REMARK  status: ('A' for Active; 'I' for Inactive)
REMARK    1  A    between atoms: C_1  and  C_2
REMARK    2  A    between atoms: C_5  and  N_6
REMARK    3  A    between atoms: N_6  and  C_7
REMARK    4  A    between atoms: C_7  and  C_8
REMARK    5  A    between atoms: N_10  and  C_11
REMARK    6  A    between atoms: C_11  and  C_12
REMARK    7  A    between atoms: C_18  and  C_20
REMARK                            x       y       z     vdW  Elec       q    Type
REMARK                         _______ _______ _______ _____ _____    ______ ____
ROOT
ATOM      1  N   UNL     1       4.378   4.316  17.999  0.00  0.00    +0.000 N 
ATOM      2  C   UNL     1       3.880   3.042  18.374  0.00  0.00    +0.000 C 
ATOM      3  O   UNL     1       4.046   2.032  17.686  0.00  0.00    +0.000 OA
ENDROOT
BRANCH   1   8
ATOM      4  C   UNL     1       7.458   4.526  13.140  0.00  0.00    +0.000 C 
ATOM      5  C   UNL     1       6.664   4.530  14.414  0.00  0.00    +0.000 A 
ATOM      6  C   UNL     1       7.293   4.616  15.660  0.00  0.00    +0.000 A 
ATOM      7  C   UNL     1       6.538   4.586  16.841  0.00  0.00    +0.000 A 
ATOM      8  C   UNL     1       5.145   4.449  16.798  0.00  0.00    +0.000 A 
ATOM      9  C   UNL     1       4.519   4.425  15.548  0.00  0.00    +0.000 A 
ATOM     10  C   UNL     1       5.270   4.468  14.368  0.00  0.00    +0.000 A 
ENDBRANCH   1   8
BRANCH   2  11
ATOM     11  C   UNL     1       3.128   2.905  19.637  0.00  0.00    +0.000 A 
ATOM     12  C   UNL     1       1.752   3.086  19.720  0.00  0.00    +0.000 A 
ATOM     13  S   UNL     1       1.282   2.838  21.348  0.00  0.00    +0.000 S 
ATOM     14  N   UNL     1       2.836   2.483  21.839  0.00  0.00    +0.000 NA
ATOM     15  N   UNL     1       3.708   2.532  20.849  0.00  0.00    +0.000 NA
ENDBRANCH   2  11
BRANCH   1  16
ATOM     16  C   UNL     1       4.052   5.534  18.763  0.00  0.00    +0.000 C 
BRANCH  16  17
ATOM     17  C   UNL     1       3.746   6.881  18.097  0.00  0.00    +0.000 C 
ATOM     18  O   UNL     1       4.576   7.441  17.374  0.00  0.00    +0.000 OA
ATOM     19  N   UNL     1       2.507   7.422  18.351  0.00  0.00    +0.000 N 
ATOM     20  H   UNL     1       1.833   6.914  18.912  0.00  0.00    +0.000 HD
BRANCH  19  21
ATOM     21  C   UNL     1       2.107   8.686  17.775  0.00  0.00    +0.000 C 
BRANCH  21  22
ATOM     22  C   UNL     1       1.032   9.363  18.586  0.00  0.00    +0.000 A 
ATOM     23  C   UNL     1       1.125   9.418  19.986  0.00  0.00    +0.000 A 
ATOM     24  C   UNL     1       0.153  10.082  20.739  0.00  0.00    +0.000 A 
ATOM     25  C   UNL     1      -0.927  10.691  20.102  0.00  0.00    +0.000 A 
ATOM     26  C   UNL     1      -1.039  10.631  18.714  0.00  0.00    +0.000 A 
ATOM     27  C   UNL     1      -0.068   9.968  17.960  0.00  0.00    +0.000 A 
ENDBRANCH  21  22
ENDBRANCH  19  21
ENDBRANCH  16  17
ENDBRANCH   1  16
TORSDOF 6
ENDMDL
MODEL 8
REMARK VINA RESULT:      -7.2      0.911      1.327
REMARK  Name = 
REMARK  7 active torsions:
REMARK  status: ('A' for Active; 'I' for Inactive)
REMARK    1  A    between atoms: C_1  and  C_2
REMARK    2  A    between atoms: C_5  and  N_6
REMARK    3  A    between atoms: N_6  and  C_7
REMARK    4  A    between atoms: C_7  and  C_8
REMARK    5  A    between atoms: N_10  and  C_11
REMARK    6  A    between atoms: C_11  and  C_12
REMARK    7  A    between atoms: C_18  and  C_20
REMARK                            x       y       z     vdW  Elec       q    Type
REMARK                         _______ _______ _______ _____ _____    ______ ____
ROOT
ATOM      1  N   UNL     1       4.508   4.255  18.232  0.00  0.00    +0.000 N 
ATOM      2  C   UNL     1       3.953   2.991  18.557  0.00  0.00    +0.000 C 
ATOM      3  O   UNL     1       4.091   1.998  17.839  0.00  0.00    +0.000 OA
ENDROOT
BRANCH   1   8
ATOM      4  C   UNL     1       7.694   5.142  13.520  0.00  0.00    +0.000 C 
ATOM      5  C   UNL     1       6.860   4.854  14.733  0.00  0.00    +0.000 A 
ATOM      6  C   UNL     1       5.482   4.636  14.632  0.00  0.00    +0.000 A 
ATOM      7  C   UNL     1       4.712   4.398  15.779  0.00  0.00    +0.000 A 
ATOM      8  C   UNL     1       5.302   4.396  17.049  0.00  0.00    +0.000 A 
ATOM      9  C   UNL     1       6.688   4.553  17.137  0.00  0.00    +0.000 A 
ATOM     10  C   UNL     1       7.460   4.777  15.992  0.00  0.00    +0.000 A 
ENDBRANCH   1   8
BRANCH   2  11
ATOM     11  C   UNL     1       3.173   2.845  19.802  0.00  0.00    +0.000 A 
ATOM     12  C   UNL     1       1.784   2.894  19.833  0.00  0.00    +0.000 A 
ATOM     13  S   UNL     1       1.282   2.683  21.456  0.00  0.00    +0.000 S 
ATOM     14  N   UNL     1       2.845   2.508  22.013  0.00  0.00    +0.000 NA
ATOM     15  N   UNL     1       3.743   2.592  21.049  0.00  0.00    +0.000 NA
ENDBRANCH   2  11
BRANCH   1  16
ATOM     16  C   UNL     1       4.217   5.461  19.029  0.00  0.00    +0.000 C 
BRANCH  16  17
ATOM     17  C   UNL     1       2.810   6.057  19.160  0.00  0.00    +0.000 C 
ATOM     18  O   UNL     1       1.972   5.924  18.262  0.00  0.00    +0.000 OA
ATOM     19  N   UNL     1       2.540   6.740  20.323  0.00  0.00    +0.000 N 
ATOM     20  H   UNL     1       3.235   6.791  21.059  0.00  0.00    +0.000 HD
BRANCH  19  21
ATOM     21  C   UNL     1       1.246   7.341  20.558  0.00  0.00    +0.000 C 
BRANCH  21  22
ATOM     22  C   UNL     1       1.219   8.796  20.167  0.00  0.00    +0.000 A 
ATOM     23  C   UNL     1       0.992   9.789  21.134  0.00  0.00    +0.000 A 
ATOM     24  C   UNL     1       1.009  11.141  20.784  0.00  0.00    +0.000 A 
ATOM     25  C   UNL     1       1.242  11.517  19.463  0.00  0.00    +0.000 A 
ATOM     26  C   UNL     1       1.453  10.542  18.490  0.00  0.00    +0.000 A 
ATOM     27  C   UNL     1       1.437   9.189  18.838  0.00  0.00    +0.000 A 
ENDBRANCH  21  22
ENDBRANCH  19  21
ENDBRANCH  16  17
ENDBRANCH   1  16
TORSDOF 6
ENDMDL
MODEL 9
REMARK VINA RESULT:      -7.1      1.098      1.754
REMARK  Name = 
REMARK  7 active torsions:
REMARK  status: ('A' for Active; 'I' for Inactive)
REMARK    1  A    between atoms: C_1  and  C_2
REMARK    2  A    between atoms: C_5  and  N_6
REMARK    3  A    between atoms: N_6  and  C_7
REMARK    4  A    between atoms: C_7  and  C_8
REMARK    5  A    between atoms: N_10  and  C_11
REMARK    6  A    between atoms: C_11  and  C_12
REMARK    7  A    between atoms: C_18  and  C_20
REMARK                            x       y       z     vdW  Elec       q    Type
REMARK                         _______ _______ _______ _____ _____    ______ ____
ROOT
ATOM      1  N   UNL     1       4.259   4.451  17.840  0.00  0.00    +0.000 N 
ATOM      2  C   UNL     1       3.732   3.168  18.135  0.00  0.00    +0.000 C 
ATOM      3  O   UNL     1       3.957   2.178  17.435  0.00  0.00    +0.000 OA
ENDROOT
BRANCH   1   8
ATOM      4  C   UNL     1       7.775   4.797  13.296  0.00  0.00    +0.000 C 
ATOM      5  C   UNL     1       6.861   4.766  14.485  0.00  0.00    +0.000 A 
ATOM      6  C   UNL     1       7.347   4.970  15.780  0.00  0.00    +0.000 A 
ATOM      7  C   UNL     1       6.485   4.907  16.883  0.00  0.00    +0.000 A 
ATOM      8  C   UNL     1       5.125   4.618  16.713  0.00  0.00    +0.000 A 
ATOM      9  C   UNL     1       4.635   4.476  15.412  0.00  0.00    +0.000 A 
ATOM     10  C   UNL     1       5.492   4.552  14.309  0.00  0.00    +0.000 A 
ENDBRANCH   1   8
BRANCH   2  11
ATOM     11  C   UNL     1       2.874   2.996  19.325  0.00  0.00    +0.000 A 
ATOM     12  C   UNL     1       3.386   2.780  20.598  0.00  0.00    +0.000 A 
ATOM     13  S   UNL     1       2.068   2.638  21.682  0.00  0.00    +0.000 S 
ATOM     14  N   UNL     1       0.936   2.892  20.483  0.00  0.00    +0.000 NA
ATOM     15  N   UNL     1       1.483   3.087  19.298  0.00  0.00    +0.000 NA
ENDBRANCH   2  11
BRANCH   1  16
ATOM     16  C   UNL     1       3.867   5.648  18.608  0.00  0.00    +0.000 C 
BRANCH  16  17
ATOM     17  C   UNL     1       2.704   6.560  18.198  0.00  0.00    +0.000 C 
ATOM     18  O   UNL     1       1.644   6.093  17.772  0.00  0.00    +0.000 OA
ATOM     19  N   UNL     1       2.912   7.914  18.333  0.00  0.00    +0.000 N 
ATOM     20  H   UNL     1       3.778   8.261  18.728  0.00  0.00    +0.000 HD
BRANCH  19  21
ATOM     21  C   UNL     1       1.886   8.869  17.980  0.00  0.00    +0.000 C 
BRANCH  21  22
ATOM     22  C   UNL     1       1.110   9.338  19.183  0.00  0.00    +0.000 A 
ATOM     23  C   UNL     1       0.190  10.393  19.071  0.00  0.00    +0.000 A 
ATOM     24  C   UNL     1      -0.564  10.802  20.174  0.00  0.00    +0.000 A 
ATOM     25  C   UNL     1      -0.400  10.169  21.404  0.00  0.00    +0.000 A 
ATOM     26  C   UNL     1       0.521   9.131  21.534  0.00  0.00    +0.000 A 
ATOM     27  C   UNL     1       1.275   8.719  20.432  0.00  0.00    +0.000 A 
ENDBRANCH  21  22
ENDBRANCH  19  21
ENDBRANCH  16  17
ENDBRANCH   1  16
TORSDOF 6
ENDMDL
