MODEL 1
REMARK VINA RESULT:      -8.0      0.000      0.000
REMARK  Name = 
REMARK  6 active torsions:
REMARK  status: ('A' for Active; 'I' for Inactive)
REMARK    1  A    between atoms: C_1  and  N_2
REMARK    2  A    between atoms: N_5  and  C_6
REMARK    3  A    between atoms: N_12  and  N_13
REMARK    4  A    between atoms: C_14  and  C_15
REMARK    5  A    between atoms: C_16  and  C_17
REMARK    6  A    between atoms: C_22  and  N_23
REMARK                            x       y       z     vdW  Elec       q    Type
REMARK                         _______ _______ _______ _____ _____    ______ ____
ROOT
ATOM      1  C   UNL     1      -1.027  13.249  22.865  0.00  0.00    +0.000 C 
ATOM      2  N   UNL     1      -0.651  12.135  22.033  0.00  0.00    +0.000 N 
ATOM      3  C   UNL     1      -0.481  10.831  22.481  0.00  0.00    +0.000 C 
ATOM      4  O   UNL     1      -0.759  10.424  23.595  0.00  0.00    +0.000 OA
ATOM      5  N   UNL     1       0.107  10.094  21.458  0.00  0.00    +0.000 N 
ATOM      6  C   UNL     1       0.652   8.776  21.648  0.00  0.00    +0.000 C 
ATOM      7  C   UNL     1       0.475  10.939  20.334  0.00  0.00    +0.000 C 
ATOM      8  C   UNL     1      -0.202  12.284  20.682  0.00  0.00    +0.000 C 
ATOM      9  N   UNL     1      -1.320  12.369  19.788  0.00  0.00    +0.000 N 
ATOM     10  C   UNL     1      -1.355  11.278  18.921  0.00  0.00    +0.000 C 
ATOM     11  S   UNL     1      -2.705  10.980  18.002  0.00  0.00    +0.000 S 
ATOM     12  N   UNL     1      -0.142  10.567  19.072  0.00  0.00    +0.000 N 
ATOM     13  H   UNL     1      -2.150  12.912  19.972  0.00  0.00    +0.000 HD
ENDROOT
BRANCH  12  14
ATOM     14  N   UNL     1       0.508   9.696  18.227  0.00  0.00    +0.000 NA
ATOM     15  C   UNL     1       1.712   9.315  18.505  0.00  0.00    +0.000 C 
BRANCH  15  16
ATOM     16  C   UNL     1       2.437   8.335  17.663  0.00  0.00    +0.000 C 
ATOM     17  C   UNL     1       2.824   7.178  18.224  0.00  0.00    +0.000 C 
BRANCH  17  18
ATOM     18  C   UNL     1       3.661   6.203  17.514  0.00  0.00    +0.000 A 
ATOM     19  C   UNL     1       4.792   6.709  16.859  0.00  0.00    +0.000 A 
ATOM     20  C   UNL     1       5.656   5.863  16.159  0.00  0.00    +0.000 A 
ATOM     21  C   UNL     1       5.410   4.492  16.106  0.00  0.00    +0.000 A 
ATOM     22  C   UNL     1       4.288   3.963  16.743  0.00  0.00    +0.000 A 
ATOM     23  C   UNL     1       3.418   4.819  17.442  0.00  0.00    +0.000 A 
BRANCH  23  24
ATOM     24  N   UNL     1       2.263   4.227  18.080  0.00  0.00    +0.000 N 
ATOM     25  O   UNL     1       1.210   4.163  17.420  0.00  0.00    +0.000 OA
ATOM     26  O   UNL     1       2.392   3.851  19.257  0.00  0.00    +0.000 OA
ENDBRANCH  23  24
ENDBRANCH  17  18
ENDBRANCH  15  16
ENDBRANCH  12  14
TORSDOF 4
ENDMDL
MODEL 2
REMARK VINA RESULT:      -7.8      6.675      9.331
REMARK  Name = 
REMARK  6 active torsions:
REMARK  status: ('A' for Active; 'I' for Inactive)
REMARK    1  A    between atoms: C_1  and  N_2
REMARK    2  A    between atoms: N_5  and  C_6
REMARK    3  A    between atoms: N_12  and  N_13
REMARK    4  A    between atoms: C_14  and  C_15
REMARK    5  A    between atoms: C_16  and  C_17
REMARK    6  A    between atoms: C_22  and  N_23
REMARK                            x       y       z     vdW  Elec       q    Type
REMARK                         _______ _______ _______ _____ _____    ______ ____
ROOT
ATOM      1  C   UNL     1       2.760   3.753  17.960  0.00  0.00    +0.000 C 
ATOM      2  N   UNL     1       4.057   4.378  17.996  0.00  0.00    +0.000 N 
ATOM      3  C   UNL     1       5.049   4.096  18.927  0.00  0.00    +0.000 C 
ATOM      4  O   UNL     1       5.016   3.195  19.746  0.00  0.00    +0.000 OA
ATOM      5  N   UNL     1       6.052   5.050  18.793  0.00  0.00    +0.000 N 
ATOM      6  C   UNL     1       7.114   5.218  19.751  0.00  0.00    +0.000 C 
ATOM      7  C   UNL     1       5.680   6.089  17.847  0.00  0.00    +0.000 C 
ATOM      8  C   UNL     1       4.399   5.517  17.199  0.00  0.00    +0.000 C 
ATOM      9  N   UNL     1       4.807   5.108  15.887  0.00  0.00    +0.000 N 
ATOM     10  C   UNL     1       6.148   5.418  15.658  0.00  0.00    +0.000 C 
ATOM     11  S   UNL     1       6.943   4.782  14.347  0.00  0.00    +0.000 S 
ATOM     12  N   UNL     1       6.590   6.236  16.723  0.00  0.00    +0.000 N 
ATOM     13  H   UNL     1       4.340   4.396  15.346  0.00  0.00    +0.000 HD
ENDROOT
BRANCH  12  14
ATOM     14  N   UNL     1       7.638   7.124  16.807  0.00  0.00    +0.000 NA
ATOM     15  C   UNL     1       7.560   8.128  17.618  0.00  0.00    +0.000 C 
BRANCH  15  16
ATOM     16  C   UNL     1       8.681   9.083  17.791  0.00  0.00    +0.000 C 
ATOM     17  C   UNL     1       8.411  10.294  18.301  0.00  0.00    +0.000 C 
BRANCH  17  18
ATOM     18  C   UNL     1       9.425  11.353  18.389  0.00  0.00    +0.000 A 
ATOM     19  C   UNL     1      10.710  10.956  18.785  0.00  0.00    +0.000 A 
ATOM     20  C   UNL     1      11.748  11.884  18.895  0.00  0.00    +0.000 A 
ATOM     21  C   UNL     1      11.523  13.230  18.604  0.00  0.00    +0.000 A 
ATOM     22  C   UNL     1      10.252  13.653  18.214  0.00  0.00    +0.000 A 
ATOM     23  C   UNL     1       9.209  12.714  18.111  0.00  0.00    +0.000 A 
BRANCH  23  24
ATOM     24  N   UNL     1       7.906  13.200  17.713  0.00  0.00    +0.000 N 
ATOM     25  O   UNL     1       7.353  12.643  16.748  0.00  0.00    +0.000 OA
ATOM     26  O   UNL     1       7.442  14.166  18.343  0.00  0.00    +0.000 OA
ENDBRANCH  23  24
ENDBRANCH  17  18
ENDBRANCH  15  16
ENDBRANCH  12  14
TORSDOF 4
ENDMDL
MODEL 3
REMARK VINA RESULT:      -7.6      2.239      2.701
REMARK  Name = 
REMARK  6 active torsions:
REMARK  status: ('A' for Active; 'I' for Inactive)
REMARK    1  A    between atoms: C_1  and  N_2
REMARK    2  A    between atoms: N_5  and  C_6
REMARK    3  A    between atoms: N_12  and  N_13
REMARK    4  A    between atoms: C_14  and  C_15
REMARK    5  A    between atoms: C_16  and  C_17
REMARK    6  A    between atoms: C_22  and  N_23
REMARK                            x       y       z     vdW  Elec       q    Type
REMARK                         _______ _______ _______ _____ _____    ______ ____
ROOT
ATOM      1  C   UNL     1      -3.847  12.829  20.668  0.00  0.00    +0.000 C 
ATOM      2  N   UNL     1      -2.849  12.234  19.816  0.00  0.00    +0.000 N 
ATOM      3  C   UNL     1      -3.094  11.706  18.555  0.00  0.00    +0.000 C 
ATOM      4  O   UNL     1      -4.143  11.796  17.941  0.00  0.00    +0.000 OA
ATOM      5  N   UNL     1      -1.958  11.017  18.145  0.00  0.00    +0.000 N 
ATOM      6  C   UNL     1      -1.935  10.140  17.004  0.00  0.00    +0.000 C 
ATOM      7  C   UNL     1      -0.961  10.952  19.202  0.00  0.00    +0.000 C 
ATOM      8  C   UNL     1      -1.523  11.928  20.260  0.00  0.00    +0.000 C 
ATOM      9  N   UNL     1      -0.683  13.086  20.168  0.00  0.00    +0.000 N 
ATOM     10  C   UNL     1       0.335  12.896  19.234  0.00  0.00    +0.000 C 
ATOM     11  S   UNL     1       1.250  14.181  18.718  0.00  0.00    +0.000 S 
ATOM     12  N   UNL     1       0.324  11.534  18.855  0.00  0.00    +0.000 N 
ATOM     13  H   UNL     1      -0.968  14.015  20.443  0.00  0.00    +0.000 HD
ENDROOT
BRANCH  12  14
ATOM     14  N   UNL     1       1.307  10.739  18.310  0.00  0.00    +0.000 NA
ATOM     15  C   UNL     1       1.267   9.460  18.492  0.00  0.00    +0.000 C 
BRANCH  15  16
ATOM     16  C   UNL     1       2.265   8.550  17.880  0.00  0.00    +0.000 C 
ATOM     17  C   UNL     1       2.263   7.261  18.253  0.00  0.00    +0.000 C 
BRANCH  17  18
ATOM     18  C   UNL     1       3.291   6.313  17.806  0.00  0.00    +0.000 A 
ATOM     19  C   UNL     1       4.514   6.864  17.397  0.00  0.00    +0.000 A 
ATOM     20  C   UNL     1       5.560   6.048  16.959  0.00  0.00    +0.000 A 
ATOM     21  C   UNL     1       5.406   4.662  16.928  0.00  0.00    +0.000 A 
ATOM     22  C   UNL     1       4.199   4.088  17.324  0.00  0.00    +0.000 A 
ATOM     23  C   UNL     1       3.147   4.915  17.759  0.00  0.00    +0.000 A 
BRANCH  23  24
ATOM     24  N   UNL     1       1.909   4.276  18.150  0.00  0.00    +0.000 N 
ATOM     25  O   UNL     1       1.052   4.090  17.268  0.00  0.00    +0.000 OA
ATOM     26  O   UNL     1       1.774   3.985  19.351  0.00  0.00    +0.000 OA
ENDBRANCH  23  24
ENDBRANCH  17  18
ENDBRANCH  15  16
ENDBRANCH  12  14
TORSDOF 4
ENDMDL
MODEL 4
REMARK VINA RESULT:      -7.5      1.929      2.404
REMARK  Name = 
REMARK  6 active torsions:
REMARK  status: ('A' for Active; 'I' for Inactive)
REMARK    1  A    between atoms: C_1  and  N_2
REMARK    2  A    between atoms: N_5  and  C_6
REMARK    3  A    between atoms: N_12  and  N_13
REMARK    4  A    between atoms: C_14  and  C_15
REMARK    5  A    between atoms: C_16  and  C_17
REMARK    6  A    between atoms: C_22  and  N_23
REMARK                            x       y       z     vdW  Elec       q    Type
REMARK                         _______ _______ _______ _____ _____    ______ ____
ROOT
ATOM      1  C   UNL     1      -2.430  13.097  21.782  0.00  0.00    +0.000 C 
ATOM      2  N   UNL     1      -1.944  12.295  20.688  0.00  0.00    +0.000 N 
ATOM      3  C   UNL     1      -2.680  11.966  19.557  0.00  0.00    +0.000 C 
ATOM      4  O   UNL     1      -3.773  12.419  19.267  0.00  0.00    +0.000 OA
ATOM      5  N   UNL     1      -1.977  10.998  18.849  0.00  0.00    +0.000 N 
ATOM      6  C   UNL     1      -2.545  10.248  17.760  0.00  0.00    +0.000 C 
ATOM      7  C   UNL     1      -0.800  10.551  19.577  0.00  0.00    +0.000 C 
ATOM      8  C   UNL     1      -0.713  11.566  20.739  0.00  0.00    +0.000 C 
ATOM      9  N   UNL     1       0.389  12.417  20.396  0.00  0.00    +0.000 N 
ATOM     10  C   UNL     1       0.997  11.999  19.213  0.00  0.00    +0.000 C 
ATOM     11  S   UNL     1       2.090  12.981  18.440  0.00  0.00    +0.000 S 
ATOM     12  N   UNL     1       0.455  10.739  18.870  0.00  0.00    +0.000 N 
ATOM     13  H   UNL     1       0.496  13.364  20.729  0.00  0.00    +0.000 HD
ENDROOT
BRANCH  12  14
ATOM     14  N   UNL     1       0.948   9.728  18.077  0.00  0.00    +0.000 NA
ATOM     15  C   UNL     1       2.130   9.256  18.305  0.00  0.00    +0.000 C 
BRANCH  15  16
ATOM     16  C   UNL     1       2.688   8.129  17.521  0.00  0.00    +0.000 C 
ATOM     17  C   UNL     1       3.141   7.054  18.185  0.00  0.00    +0.000 C 
BRANCH  17  18
ATOM     18  C   UNL     1       3.830   5.947  17.510  0.00  0.00    +0.000 A 
ATOM     19  C   UNL     1       5.020   6.267  16.840  0.00  0.00    +0.000 A 
ATOM     20  C   UNL     1       5.755   5.286  16.171  0.00  0.00    +0.000 A 
ATOM     21  C   UNL     1       5.319   3.961  16.165  0.00  0.00    +0.000 A 
ATOM     22  C   UNL     1       4.136   3.616  16.818  0.00  0.00    +0.000 A 
ATOM     23  C   UNL     1       3.396   4.610  17.485  0.00  0.00    +0.000 A 
BRANCH  23  24
ATOM     24  N   UNL     1       2.171   4.208  18.140  0.00  0.00    +0.000 N 
ATOM     25  O   UNL     1       2.236   3.893  19.342  0.00  0.00    +0.000 OA
ATOM     26  O   UNL     1       1.140   4.173  17.447  0.00  0.00    +0.000 OA
ENDBRANCH  23  24
ENDBRANCH  17  18
ENDBRANCH  15  16
ENDBRANCH  12  14
TORSDOF 4
ENDMDL
MODEL 5
REMARK VINA RESULT:      -7.5      3.133      8.599
REMARK  Name = 
REMARK  6 active torsions:
REMARK  status: ('A' for Active; 'I' for Inactive)
REMARK    1  A    between atoms: C_1  and  N_2
REMARK    2  A    between atoms: N_5  and  C_6
REMARK    3  A    between atoms: N_12  and  N_13
REMARK    4  A    between atoms: C_14  and  C_15
REMARK    5  A    between atoms: C_16  and  C_17
REMARK    6  A    between atoms: C_22  and  N_23
REMARK                            x       y       z     vdW  Elec       q    Type
REMARK                         _______ _______ _______ _____ _____    ______ ____
ROOT
ATOM      1  C   UNL     1       7.228   4.344  16.454  0.00  0.00    +0.000 C 
ATOM      2  N   UNL     1       6.005   4.928  16.942  0.00  0.00    +0.000 N 
ATOM      3  C   UNL     1       5.330   5.981  16.337  0.00  0.00    +0.000 C 
ATOM      4  O   UNL     1       5.597   6.459  15.248  0.00  0.00    +0.000 OA
ATOM      5  N   UNL     1       4.341   6.421  17.209  0.00  0.00    +0.000 N 
ATOM      6  C   UNL     1       3.612   7.648  17.021  0.00  0.00    +0.000 C 
ATOM      7  C   UNL     1       4.426   5.750  18.496  0.00  0.00    +0.000 C 
ATOM      8  C   UNL     1       5.453   4.626  18.228  0.00  0.00    +0.000 C 
ATOM      9  N   UNL     1       4.671   3.426  18.170  0.00  0.00    +0.000 N 
ATOM     10  C   UNL     1       3.325   3.690  18.427  0.00  0.00    +0.000 C 
ATOM     11  S   UNL     1       2.172   2.536  18.121  0.00  0.00    +0.000 S 
ATOM     12  N   UNL     1       3.226   5.026  18.879  0.00  0.00    +0.000 N 
ATOM     13  H   UNL     1       4.951   2.593  17.675  0.00  0.00    +0.000 HD
ENDROOT
BRANCH  12  14
ATOM     14  N   UNL     1       2.257   5.658  19.625  0.00  0.00    +0.000 NA
ATOM     15  C   UNL     1       2.455   6.869  20.033  0.00  0.00    +0.000 C 
BRANCH  15  16
ATOM     16  C   UNL     1       1.425   7.619  20.789  0.00  0.00    +0.000 C 
ATOM     17  C   UNL     1       1.182   8.892  20.441  0.00  0.00    +0.000 C 
BRANCH  17  18
ATOM     18  C   UNL     1       0.278   9.758  21.210  0.00  0.00    +0.000 A 
ATOM     19  C   UNL     1       0.028   9.379  22.537  0.00  0.00    +0.000 A 
ATOM     20  C   UNL     1      -0.812  10.137  23.355  0.00  0.00    +0.000 A 
ATOM     21  C   UNL     1      -1.415  11.295  22.865  0.00  0.00    +0.000 A 
ATOM     22  C   UNL     1      -1.189  11.691  21.548  0.00  0.00    +0.000 A 
ATOM     23  C   UNL     1      -0.346  10.921  20.726  0.00  0.00    +0.000 A 
BRANCH  23  24
ATOM     24  N   UNL     1      -0.148  11.365  19.363  0.00  0.00    +0.000 N 
ATOM     25  O   UNL     1      -0.891  10.887  18.487  0.00  0.00    +0.000 OA
ATOM     26  O   UNL     1       0.773  12.173  19.156  0.00  0.00    +0.000 OA
ENDBRANCH  23  24
ENDBRANCH  17  18
ENDBRANCH  15  16
ENDBRANCH  12  14
TORSDOF 4
ENDMDL
MODEL 6
REMARK VINA RESULT:      -7.4      1.729      2.028
REMARK  Name = 
REMARK  6 active torsions:
REMARK  status: ('A' for Active; 'I' for Inactive)
REMARK    1  A    between atoms: C_1  and  N_2
REMARK    2  A    between atoms: N_5  and  C_6
REMARK    3  A    between atoms: N_12  and  N_13
REMARK    4  A    between atoms: C_14  and  C_15
REMARK    5  A    between atoms: C_16  and  C_17
REMARK    6  A    between atoms: C_22  and  N_23
REMARK                            x       y       z     vdW  Elec       q    Type
REMARK                         _______ _______ _______ _____ _____    ______ ____
ROOT
ATOM      1  C   UNL     1      -1.158  12.065  22.629  0.00  0.00    +0.000 C 
ATOM      2  N   UNL     1      -0.438  11.132  21.799  0.00  0.00    +0.000 N 
ATOM      3  C   UNL     1      -0.073   9.847  22.180  0.00  0.00    +0.000 C 
ATOM      4  O   UNL     1      -0.427   9.285  23.202  0.00  0.00    +0.000 OA
ATOM      5  N   UNL     1       0.801   9.344  21.224  0.00  0.00    +0.000 N 
ATOM      6  C   UNL     1       1.571   8.142  21.414  0.00  0.00    +0.000 C 
ATOM      7  C   UNL     1       1.154  10.352  20.237  0.00  0.00    +0.000 C 
ATOM      8  C   UNL     1       0.169  11.500  20.556  0.00  0.00    +0.000 C 
ATOM      9  N   UNL     1      -0.793  11.457  19.495  0.00  0.00    +0.000 N 
ATOM     10  C   UNL     1      -0.471  10.471  18.562  0.00  0.00    +0.000 C 
ATOM     11  S   UNL     1      -1.576  10.012  17.412  0.00  0.00    +0.000 S 
ATOM     12  N   UNL     1       0.825   9.996  18.867  0.00  0.00    +0.000 N 
ATOM     13  H   UNL     1      -1.736  11.809  19.573  0.00  0.00    +0.000 HD
ENDROOT
BRANCH  12  14
ATOM     14  N   UNL     1       1.760   9.355  18.087  0.00  0.00    +0.000 NA
ATOM     15  C   UNL     1       1.942   8.082  18.226  0.00  0.00    +0.000 C 
BRANCH  15  16
ATOM     16  C   UNL     1       2.893   7.330  17.373  0.00  0.00    +0.000 C 
ATOM     17  C   UNL     1       3.884   6.651  17.972  0.00  0.00    +0.000 C 
BRANCH  17  18
ATOM     18  C   UNL     1       4.951   5.986  17.213  0.00  0.00    +0.000 A 
ATOM     19  C   UNL     1       5.006   6.262  15.839  0.00  0.00    +0.000 A 
ATOM     20  C   UNL     1       5.985   5.684  15.028  0.00  0.00    +0.000 A 
ATOM     21  C   UNL     1       6.936   4.824  15.577  0.00  0.00    +0.000 A 
ATOM     22  C   UNL     1       6.901   4.527  16.939  0.00  0.00    +0.000 A 
ATOM     23  C   UNL     1       5.908   5.108  17.750  0.00  0.00    +0.000 A 
BRANCH  23  24
ATOM     24  N   UNL     1       5.905   4.763  19.155  0.00  0.00    +0.000 N 
ATOM     25  O   UNL     1       6.673   5.392  19.905  0.00  0.00    +0.000 OA
ATOM     26  O   UNL     1       5.155   3.839  19.513  0.00  0.00    +0.000 OA
ENDBRANCH  23  24
ENDBRANCH  17  18
ENDBRANCH  15  16
ENDBRANCH  12  14
TORSDOF 4
ENDMDL
MODEL 7
REMARK VINA RESULT:      -7.4      2.308      2.725
REMARK  Name = 
REMARK  6 active torsions:
REMARK  status: ('A' for Active; 'I' for Inactive)
REMARK    1  A    between atoms: C_1  and  N_2
REMARK    2  A    between atoms: N_5  and  C_6
REMARK    3  A    between atoms: N_12  and  N_13
REMARK    4  A    between atoms: C_14  and  C_15
REMARK    5  A    between atoms: C_16  and  C_17
REMARK    6  A    between atoms: C_22  and  N_23
REMARK                            x       y       z     vdW  Elec       q    Type
REMARK                         _______ _______ _______ _____ _____    ______ ____
ROOT
ATOM      1  C   UNL     1      -0.554  15.599  19.807  0.00  0.00    +0.000 C 
ATOM      2  N   UNL     1      -0.460  14.164  19.887  0.00  0.00    +0.000 N 
ATOM      3  C   UNL     1      -0.680  13.417  21.038  0.00  0.00    +0.000 C 
ATOM      4  O   UNL     1      -1.113  13.850  22.091  0.00  0.00    +0.000 OA
ATOM      5  N   UNL     1      -0.270  12.111  20.792  0.00  0.00    +0.000 N 
ATOM      6  C   UNL     1      -0.121  11.123  21.827  0.00  0.00    +0.000 C 
ATOM      7  C   UNL     1       0.372  11.988  19.493  0.00  0.00    +0.000 C 
ATOM      8  C   UNL     1       0.078  13.355  18.836  0.00  0.00    +0.000 C 
ATOM      9  N   UNL     1      -0.928  13.076  17.853  0.00  0.00    +0.000 N 
ATOM     10  C   UNL     1      -1.221  11.713  17.806  0.00  0.00    +0.000 C 
ATOM     11  S   UNL     1      -2.555  11.171  16.980  0.00  0.00    +0.000 S 
ATOM     12  N   UNL     1      -0.261  11.038  18.594  0.00  0.00    +0.000 N 
ATOM     13  H   UNL     1      -1.584  13.760  17.505  0.00  0.00    +0.000 HD
ENDROOT
BRANCH  12  14
ATOM     14  N   UNL     1       0.163   9.728  18.579  0.00  0.00    +0.000 NA
ATOM     15  C   UNL     1       1.405   9.457  18.810  0.00  0.00    +0.000 C 
BRANCH  15  16
ATOM     16  C   UNL     1       1.905   8.063  18.863  0.00  0.00    +0.000 C 
ATOM     17  C   UNL     1       2.754   7.654  17.907  0.00  0.00    +0.000 C 
BRANCH  17  18
ATOM     18  C   UNL     1       3.200   6.260  17.797  0.00  0.00    +0.000 A 
ATOM     19  C   UNL     1       2.385   5.292  18.402  0.00  0.00    +0.000 A 
ATOM     20  C   UNL     1       2.717   3.937  18.350  0.00  0.00    +0.000 A 
ATOM     21  C   UNL     1       3.869   3.519  17.684  0.00  0.00    +0.000 A 
ATOM     22  C   UNL     1       4.702   4.460  17.079  0.00  0.00    +0.000 A 
ATOM     23  C   UNL     1       4.365   5.825  17.140  0.00  0.00    +0.000 A 
BRANCH  23  24
ATOM     24  N   UNL     1       5.263   6.766  16.507  0.00  0.00    +0.000 N 
ATOM     25  O   UNL     1       5.122   6.966  15.287  0.00  0.00    +0.000 OA
ATOM     26  O   UNL     1       6.137   7.288  17.220  0.00  0.00    +0.000 OA
ENDBRANCH  23  24
ENDBRANCH  17  18
ENDBRANCH  15  16
ENDBRANCH  12  14
TORSDOF 4
ENDMDL
MODEL 8
REMARK VINA RESULT:      -7.4      3.253      8.685
REMARK  Name = 
REMARK  6 active torsions:
REMARK  status: ('A' for Active; 'I' for Inactive)
REMARK    1  A    between atoms: C_1  and  N_2
REMARK    2  A    between atoms: N_5  and  C_6
REMARK    3  A    between atoms: N_12  and  N_13
REMARK    4  A    between atoms: C_14  and  C_15
REMARK    5  A    between atoms: C_16  and  C_17
REMARK    6  A    between atoms: C_22  and  N_23
REMARK                            x       y       z     vdW  Elec       q    Type
REMARK                         _______ _______ _______ _____ _____    ______ ____
ROOT
ATOM      1  C   UNL     1       8.474   4.377  18.202  0.00  0.00    +0.000 C 
ATOM      2  N   UNL     1       7.186   4.898  17.822  0.00  0.00    +0.000 N 
ATOM      3  C   UNL     1       6.820   5.244  16.527  0.00  0.00    +0.000 C 
ATOM      4  O   UNL     1       7.477   5.027  15.524  0.00  0.00    +0.000 OA
ATOM      5  N   UNL     1       5.608   5.922  16.585  0.00  0.00    +0.000 N 
ATOM      6  C   UNL     1       5.051   6.641  15.469  0.00  0.00    +0.000 C 
ATOM      7  C   UNL     1       5.198   6.169  17.959  0.00  0.00    +0.000 C 
ATOM      8  C   UNL     1       6.200   5.318  18.771  0.00  0.00    +0.000 C 
ATOM      9  N   UNL     1       5.434   4.196  19.229  0.00  0.00    +0.000 N 
ATOM     10  C   UNL     1       4.099   4.306  18.841  0.00  0.00    +0.000 C 
ATOM     11  S   UNL     1       3.077   3.005  18.977  0.00  0.00    +0.000 S 
ATOM     12  N   UNL     1       3.908   5.604  18.315  0.00  0.00    +0.000 N 
ATOM     13  H   UNL     1       5.832   3.300  19.470  0.00  0.00    +0.000 HD
ENDROOT
BRANCH  12  14
ATOM     14  N   UNL     1       2.769   6.362  18.169  0.00  0.00    +0.000 NA
ATOM     15  C   UNL     1       2.841   7.649  18.273  0.00  0.00    +0.000 C 
BRANCH  15  16
ATOM     16  C   UNL     1       1.658   8.519  18.068  0.00  0.00    +0.000 C 
ATOM     17  C   UNL     1       1.337   9.393  19.034  0.00  0.00    +0.000 C 
BRANCH  17  18
ATOM     18  C   UNL     1       0.113  10.203  18.985  0.00  0.00    +0.000 A 
ATOM     19  C   UNL     1      -0.717  10.014  17.871  0.00  0.00    +0.000 A 
ATOM     20  C   UNL     1      -1.908  10.731  17.731  0.00  0.00    +0.000 A 
ATOM     21  C   UNL     1      -2.297  11.647  18.707  0.00  0.00    +0.000 A 
ATOM     22  C   UNL     1      -1.487  11.859  19.822  0.00  0.00    +0.000 A 
ATOM     23  C   UNL     1      -0.286  11.139  19.956  0.00  0.00    +0.000 A 
BRANCH  23  24
ATOM     24  N   UNL     1       0.527  11.399  21.124  0.00  0.00    +0.000 N 
ATOM     25  O   UNL     1       0.281  10.747  22.154  0.00  0.00    +0.000 OA
ATOM     26  O   UNL     1       1.396  12.282  21.027  0.00  0.00    +0.000 OA
ENDBRANCH  23  24
ENDBRANCH  17  18
ENDBRANCH  15  16
ENDBRANCH  12  14
TORSDOF 4
ENDMDL
MODEL 9
REMARK VINA RESULT:      -7.3      6.528      9.445
REMARK  Name = 
REMARK  6 active torsions:
REMARK  status: ('A' for Active; 'I' for Inactive)
REMARK    1  A    between atoms: C_1  and  N_2
REMARK    2  A    between atoms: N_5  and  C_6
REMARK    3  A    between atoms: N_12  and  N_13
REMARK    4  A    between atoms: C_14  and  C_15
REMARK    5  A    between atoms: C_16  and  C_17
REMARK    6  A    between atoms: C_22  and  N_23
REMARK                            x       y       z     vdW  Elec       q    Type
REMARK                         _______ _______ _______ _____ _____    ______ ____
ROOT
ATOM      1  C   UNL     1       3.631   2.869  17.519  0.00  0.00    +0.000 C 
ATOM      2  N   UNL     1       4.171   4.205  17.533  0.00  0.00    +0.000 N 
ATOM      3  C   UNL     1       3.446   5.352  17.832  0.00  0.00    +0.000 C 
ATOM      4  O   UNL     1       2.303   5.376  18.254  0.00  0.00    +0.000 OA
ATOM      5  N   UNL     1       4.230   6.455  17.514  0.00  0.00    +0.000 N 
ATOM      6  C   UNL     1       3.716   7.799  17.461  0.00  0.00    +0.000 C 
ATOM      7  C   UNL     1       5.465   6.062  16.855  0.00  0.00    +0.000 C 
ATOM      8  C   UNL     1       5.474   4.528  17.034  0.00  0.00    +0.000 C 
ATOM      9  N   UNL     1       6.469   4.285  18.037  0.00  0.00    +0.000 N 
ATOM     10  C   UNL     1       7.088   5.471  18.429  0.00  0.00    +0.000 C 
ATOM     11  S   UNL     1       8.050   5.508  19.781  0.00  0.00    +0.000 S 
ATOM     12  N   UNL     1       6.675   6.489  17.538  0.00  0.00    +0.000 N 
ATOM     13  H   UNL     1       6.484   3.470  18.633  0.00  0.00    +0.000 HD
ENDROOT
BRANCH  12  14
ATOM     14  N   UNL     1       7.252   7.695  17.213  0.00  0.00    +0.000 NA
ATOM     15  C   UNL     1       7.894   8.360  18.117  0.00  0.00    +0.000 C 
BRANCH  15  16
ATOM     16  C   UNL     1       8.583   9.636  17.809  0.00  0.00    +0.000 C 
ATOM     17  C   UNL     1       9.265  10.243  18.793  0.00  0.00    +0.000 C 
BRANCH  17  18
ATOM     18  C   UNL     1       9.869  11.571  18.625  0.00  0.00    +0.000 A 
ATOM     19  C   UNL     1      10.608  11.778  17.451  0.00  0.00    +0.000 A 
ATOM     20  C   UNL     1      11.218  13.007  17.192  0.00  0.00    +0.000 A 
ATOM     21  C   UNL     1      11.097  14.058  18.101  0.00  0.00    +0.000 A 
ATOM     22  C   UNL     1      10.374  13.878  19.279  0.00  0.00    +0.000 A 
ATOM     23  C   UNL     1       9.766  12.636  19.537  0.00  0.00    +0.000 A 
BRANCH  23  24
ATOM     24  N   UNL     1       9.035  12.491  20.777  0.00  0.00    +0.000 N 
ATOM     25  O   UNL     1       8.002  13.170  20.919  0.00  0.00    +0.000 OA
ATOM     26  O   UNL     1       9.507  11.721  21.630  0.00  0.00    +0.000 OA
ENDBRANCH  23  24
ENDBRANCH  17  18
ENDBRANCH  15  16
ENDBRANCH  12  14
TORSDOF 4
ENDMDL
