MODEL 1
REMARK VINA RESULT:      -7.4      0.000      0.000
REMARK  Name = 
REMARK  2 active torsions:
REMARK  status: ('A' for Active; 'I' for Inactive)
REMARK    1  A    between atoms: C_1  and  C_2
REMARK    2  A    between atoms: N_22  and  C_23
REMARK                            x       y       z     vdW  Elec       q    Type
REMARK                         _______ _______ _______ _____ _____    ______ ____
ROOT
ATOM      1  C   UNL     1       3.551   5.881  18.296  0.00  0.00    +0.000 C 
ATOM      2  C   UNL     1       2.720   7.099  18.572  0.00  0.00    +0.000 A 
ATOM      3  C   UNL     1       2.429   8.008  17.555  0.00  0.00    +0.000 A 
ATOM      4  C   UNL     1       1.645   9.138  17.811  0.00  0.00    +0.000 A 
ATOM      5  C   UNL     1       1.129   9.396  19.091  0.00  0.00    +0.000 A 
ATOM      6  C   UNL     1       1.441   8.478  20.121  0.00  0.00    +0.000 A 
ATOM      7  C   UNL     1       2.224   7.343  19.857  0.00  0.00    +0.000 A 
ATOM      8  C   UNL     1       0.957   8.720  21.488  0.00  0.00    +0.000 A 
ATOM      9  C   UNL     1       0.211   9.795  21.768  0.00  0.00    +0.000 A 
ATOM     10  C   UNL     1      -0.275  10.088  23.121  0.00  0.00    +0.000 A 
ATOM     11  O   UNL     1      -0.036   9.332  24.056  0.00  0.00    +0.000 OA
ATOM     12  N   UNL     1      -0.985  11.240  23.257  0.00  0.00    +0.000 NA
ATOM     13  C   UNL     1      -1.275  12.012  22.260  0.00  0.00    +0.000 A 
ATOM     14  N   UNL     1      -2.000  13.168  22.472  0.00  0.00    +0.000 N 
ATOM     15  C   UNL     1      -2.379  14.067  21.386  0.00  0.00    +0.000 C 
ATOM     16  C   UNL     1      -1.690  15.417  21.565  0.00  0.00    +0.000 C 
ATOM     17  C   UNL     1      -1.971  16.001  22.947  0.00  0.00    +0.000 C 
ATOM     18  C   UNL     1      -1.633  14.997  24.049  0.00  0.00    +0.000 C 
ATOM     19  C   UNL     1      -2.321  13.651  23.814  0.00  0.00    +0.000 C 
ATOM     20  N   UNL     1      -0.879  11.759  20.977  0.00  0.00    +0.000 NA
ATOM     21  C   UNL     1      -0.141  10.730  20.687  0.00  0.00    +0.000 A 
ATOM     22  N   UNL     1       0.319  10.520  19.388  0.00  0.00    +0.000 N 
ATOM     23  C   UNL     1       0.060  11.486  18.326  0.00  0.00    +0.000 C 
ENDROOT
TORSDOF 0
ENDMDL
MODEL 2
REMARK VINA RESULT:      -7.3      1.866      2.546
REMARK  Name = 
REMARK  2 active torsions:
REMARK  status: ('A' for Active; 'I' for Inactive)
REMARK    1  A    between atoms: C_1  and  C_2
REMARK    2  A    between atoms: N_22  and  C_23
REMARK                            x       y       z     vdW  Elec       q    Type
REMARK                         _______ _______ _______ _____ _____    ______ ____
ROOT
ATOM      1  C   UNL     1       2.657   3.360  19.940  0.00  0.00    +0.000 C 
ATOM      2  C   UNL     1       2.407   4.818  19.693  0.00  0.00    +0.000 A 
ATOM      3  C   UNL     1       2.699   5.392  18.455  0.00  0.00    +0.000 A 
ATOM      4  C   UNL     1       2.455   6.749  18.222  0.00  0.00    +0.000 A 
ATOM      5  C   UNL     1       1.913   7.577  19.218  0.00  0.00    +0.000 A 
ATOM      6  C   UNL     1       1.634   6.993  20.476  0.00  0.00    +0.000 A 
ATOM      7  C   UNL     1       1.875   5.629  20.702  0.00  0.00    +0.000 A 
ATOM      8  C   UNL     1       1.100   7.822  21.565  0.00  0.00    +0.000 A 
ATOM      9  C   UNL     1       0.862   9.126  21.378  0.00  0.00    +0.000 A 
ATOM     10  C   UNL     1       0.351   9.996  22.442  0.00  0.00    +0.000 A 
ATOM     11  O   UNL     1       0.091   9.549  23.555  0.00  0.00    +0.000 OA
ATOM     12  N   UNL     1       0.201  11.307  22.113  0.00  0.00    +0.000 NA
ATOM     13  C   UNL     1       0.432  11.767  20.926  0.00  0.00    +0.000 A 
ATOM     14  N   UNL     1       0.258  13.112  20.662  0.00  0.00    +0.000 N 
ATOM     15  C   UNL     1       0.479  13.686  19.338  0.00  0.00    +0.000 C 
ATOM     16  C   UNL     1       1.650  14.664  19.385  0.00  0.00    +0.000 C 
ATOM     17  C   UNL     1       1.443  15.721  20.466  0.00  0.00    +0.000 C 
ATOM     18  C   UNL     1       1.138  15.076  21.818  0.00  0.00    +0.000 C 
ATOM     19  C   UNL     1      -0.022  14.082  21.717  0.00  0.00    +0.000 C 
ATOM     20  N   UNL     1       0.870  10.987  19.893  0.00  0.00    +0.000 NA
ATOM     21  C   UNL     1       1.122   9.723  20.058  0.00  0.00    +0.000 A 
ATOM     22  N   UNL     1       1.638   8.952  19.018  0.00  0.00    +0.000 N 
ATOM     23  C   UNL     1       1.991   9.549  17.734  0.00  0.00    +0.000 C 
ENDROOT
TORSDOF 0
ENDMDL
MODEL 3
REMARK VINA RESULT:      -7.1      2.036      3.179
REMARK  Name = 
REMARK  2 active torsions:
REMARK  status: ('A' for Active; 'I' for Inactive)
REMARK    1  A    between atoms: C_1  and  C_2
REMARK    2  A    between atoms: N_22  and  C_23
REMARK                            x       y       z     vdW  Elec       q    Type
REMARK                         _______ _______ _______ _____ _____    ______ ____
ROOT
ATOM      1  C   UNL     1       3.281   6.560  17.827  0.00  0.00    +0.000 C 
ATOM      2  C   UNL     1       2.442   7.379  18.762  0.00  0.00    +0.000 A 
ATOM      3  C   UNL     1       2.223   6.961  20.075  0.00  0.00    +0.000 A 
ATOM      4  C   UNL     1       1.450   7.731  20.949  0.00  0.00    +0.000 A 
ATOM      5  C   UNL     1       0.869   8.942  20.540  0.00  0.00    +0.000 A 
ATOM      6  C   UNL     1       1.082   9.352  19.203  0.00  0.00    +0.000 A 
ATOM      7  C   UNL     1       1.864   8.578  18.332  0.00  0.00    +0.000 A 
ATOM      8  C   UNL     1       0.467  10.594  18.712  0.00  0.00    +0.000 A 
ATOM      9  C   UNL     1      -0.285  11.350  19.521  0.00  0.00    +0.000 A 
ATOM     10  C   UNL     1      -0.936  12.584  19.069  0.00  0.00    +0.000 A 
ATOM     11  O   UNL     1      -0.792  12.991  17.921  0.00  0.00    +0.000 OA
ATOM     12  N   UNL     1      -1.703  13.221  19.993  0.00  0.00    +0.000 NA
ATOM     13  C   UNL     1      -1.818  12.814  21.216  0.00  0.00    +0.000 A 
ATOM     14  N   UNL     1      -2.615  13.511  22.103  0.00  0.00    +0.000 N 
ATOM     15  C   UNL     1      -2.765  13.116  23.501  0.00  0.00    +0.000 C 
ATOM     16  C   UNL     1      -4.207  12.699  23.770  0.00  0.00    +0.000 C 
ATOM     17  C   UNL     1      -5.186  13.793  23.352  0.00  0.00    +0.000 C 
ATOM     18  C   UNL     1      -4.941  14.230  21.908  0.00  0.00    +0.000 C 
ATOM     19  C   UNL     1      -3.478  14.610  21.676  0.00  0.00    +0.000 C 
ATOM     20  N   UNL     1      -1.197  11.694  21.694  0.00  0.00    +0.000 NA
ATOM     21  C   UNL     1      -0.476  10.938  20.921  0.00  0.00    +0.000 A 
ATOM     22  N   UNL     1       0.092   9.758  21.398  0.00  0.00    +0.000 N 
ATOM     23  C   UNL     1      -0.167   9.286  22.755  0.00  0.00    +0.000 C 
ENDROOT
TORSDOF 0
ENDMDL
MODEL 4
REMARK VINA RESULT:      -6.7      2.332      7.061
REMARK  Name = 
REMARK  2 active torsions:
REMARK  status: ('A' for Active; 'I' for Inactive)
REMARK    1  A    between atoms: C_1  and  C_2
REMARK    2  A    between atoms: N_22  and  C_23
REMARK                            x       y       z     vdW  Elec       q    Type
REMARK                         _______ _______ _______ _____ _____    ______ ____
ROOT
ATOM      1  C   UNL     1      -1.525  15.677  20.112  0.00  0.00    +0.000 C 
ATOM      2  C   UNL     1      -0.805  14.393  19.821  0.00  0.00    +0.000 A 
ATOM      3  C   UNL     1       0.036  14.284  18.713  0.00  0.00    +0.000 A 
ATOM      4  C   UNL     1       0.715  13.090  18.449  0.00  0.00    +0.000 A 
ATOM      5  C   UNL     1       0.575  11.968  19.280  0.00  0.00    +0.000 A 
ATOM      6  C   UNL     1      -0.292  12.081  20.392  0.00  0.00    +0.000 A 
ATOM      7  C   UNL     1      -0.966  13.283  20.657  0.00  0.00    +0.000 A 
ATOM      8  C   UNL     1      -0.503  10.924  21.275  0.00  0.00    +0.000 A 
ATOM      9  C   UNL     1       0.125   9.766  21.046  0.00  0.00    +0.000 A 
ATOM     10  C   UNL     1      -0.073   8.580  21.886  0.00  0.00    +0.000 A 
ATOM     11  O   UNL     1      -0.813   8.614  22.864  0.00  0.00    +0.000 OA
ATOM     12  N   UNL     1       0.601   7.464  21.502  0.00  0.00    +0.000 NA
ATOM     13  C   UNL     1       1.417   7.443  20.498  0.00  0.00    +0.000 A 
ATOM     14  N   UNL     1       2.069   6.272  20.163  0.00  0.00    +0.000 N 
ATOM     15  C   UNL     1       3.019   6.191  19.057  0.00  0.00    +0.000 C 
ATOM     16  C   UNL     1       2.478   5.260  17.976  0.00  0.00    +0.000 C 
ATOM     17  C   UNL     1       2.118   3.894  18.554  0.00  0.00    +0.000 C 
ATOM     18  C   UNL     1       1.186   4.031  19.757  0.00  0.00    +0.000 C 
ATOM     19  C   UNL     1       1.753   4.996  20.800  0.00  0.00    +0.000 C 
ATOM     20  N   UNL     1       1.664   8.533  19.711  0.00  0.00    +0.000 NA
ATOM     21  C   UNL     1       1.052   9.662  19.907  0.00  0.00    +0.000 A 
ATOM     22  N   UNL     1       1.256  10.746  19.055  0.00  0.00    +0.000 N 
ATOM     23  C   UNL     1       2.097  10.631  17.868  0.00  0.00    +0.000 C 
ENDROOT
TORSDOF 0
ENDMDL
MODEL 5
REMARK VINA RESULT:      -6.6      3.664      4.649
REMARK  Name = 
REMARK  2 active torsions:
REMARK  status: ('A' for Active; 'I' for Inactive)
REMARK    1  A    between atoms: C_1  and  C_2
REMARK    2  A    between atoms: N_22  and  C_23
REMARK                            x       y       z     vdW  Elec       q    Type
REMARK                         _______ _______ _______ _____ _____    ______ ____
ROOT
ATOM      1  C   UNL     1      -2.687   9.837  15.204  0.00  0.00    +0.000 C 
ATOM      2  C   UNL     1      -3.026  10.572  16.466  0.00  0.00    +0.000 A 
ATOM      3  C   UNL     1      -4.325  11.025  16.700  0.00  0.00    +0.000 A 
ATOM      4  C   UNL     1      -4.642  11.701  17.883  0.00  0.00    +0.000 A 
ATOM      5  C   UNL     1      -3.673  11.948  18.868  0.00  0.00    +0.000 A 
ATOM      6  C   UNL     1      -2.355  11.500  18.617  0.00  0.00    +0.000 A 
ATOM      7  C   UNL     1      -2.043  10.816  17.432  0.00  0.00    +0.000 A 
ATOM      8  C   UNL     1      -1.294  11.763  19.600  0.00  0.00    +0.000 A 
ATOM      9  C   UNL     1      -1.563  12.414  20.738  0.00  0.00    +0.000 A 
ATOM     10  C   UNL     1      -0.531  12.719  21.735  0.00  0.00    +0.000 A 
ATOM     11  O   UNL     1       0.630  12.359  21.574  0.00  0.00    +0.000 OA
ATOM     12  N   UNL     1      -0.949  13.424  22.820  0.00  0.00    +0.000 NA
ATOM     13  C   UNL     1      -2.183  13.763  23.009  0.00  0.00    +0.000 A 
ATOM     14  N   UNL     1      -2.537  14.480  24.136  0.00  0.00    +0.000 N 
ATOM     15  C   UNL     1      -3.915  14.870  24.417  0.00  0.00    +0.000 C 
ATOM     16  C   UNL     1      -4.041  16.391  24.385  0.00  0.00    +0.000 C 
ATOM     17  C   UNL     1      -3.032  17.048  25.324  0.00  0.00    +0.000 C 
ATOM     18  C   UNL     1      -1.614  16.551  25.045  0.00  0.00    +0.000 C 
ATOM     19  C   UNL     1      -1.541  15.023  25.057  0.00  0.00    +0.000 C 
ATOM     20  N   UNL     1      -3.185  13.466  22.128  0.00  0.00    +0.000 NA
ATOM     21  C   UNL     1      -2.942  12.849  21.010  0.00  0.00    +0.000 A 
ATOM     22  N   UNL     1      -3.957  12.615  20.085  0.00  0.00    +0.000 N 
ATOM     23  C   UNL     1      -5.309  13.123  20.296  0.00  0.00    +0.000 C 
ENDROOT
TORSDOF 0
ENDMDL
MODEL 6
REMARK VINA RESULT:      -6.4      2.364      7.810
REMARK  Name = 
REMARK  2 active torsions:
REMARK  status: ('A' for Active; 'I' for Inactive)
REMARK    1  A    between atoms: C_1  and  C_2
REMARK    2  A    between atoms: N_22  and  C_23
REMARK                            x       y       z     vdW  Elec       q    Type
REMARK                         _______ _______ _______ _____ _____    ______ ____
ROOT
ATOM      1  C   UNL     1      -1.750  14.699  22.677  0.00  0.00    +0.000 C 
ATOM      2  C   UNL     1      -1.232  13.342  22.302  0.00  0.00    +0.000 A 
ATOM      3  C   UNL     1      -1.502  12.231  23.102  0.00  0.00    +0.000 A 
ATOM      4  C   UNL     1      -1.027  10.964  22.746  0.00  0.00    +0.000 A 
ATOM      5  C   UNL     1      -0.269  10.766  21.582  0.00  0.00    +0.000 A 
ATOM      6  C   UNL     1       0.014  11.900  20.784  0.00  0.00    +0.000 A 
ATOM      7  C   UNL     1      -0.470  13.168  21.142  0.00  0.00    +0.000 A 
ATOM      8  C   UNL     1       0.834  11.755  19.572  0.00  0.00    +0.000 A 
ATOM      9  C   UNL     1       1.310  10.559  19.208  0.00  0.00    +0.000 A 
ATOM     10  C   UNL     1       2.151  10.371  18.021  0.00  0.00    +0.000 A 
ATOM     11  O   UNL     1       2.432  11.315  17.290  0.00  0.00    +0.000 OA
ATOM     12  N   UNL     1       2.593   9.104  17.804  0.00  0.00    +0.000 NA
ATOM     13  C   UNL     1       2.257   8.102  18.551  0.00  0.00    +0.000 A 
ATOM     14  N   UNL     1       2.745   6.840  18.272  0.00  0.00    +0.000 N 
ATOM     15  C   UNL     1       2.383   5.667  19.062  0.00  0.00    +0.000 C 
ATOM     16  C   UNL     1       3.619   5.117  19.769  0.00  0.00    +0.000 C 
ATOM     17  C   UNL     1       4.746   4.843  18.778  0.00  0.00    +0.000 C 
ATOM     18  C   UNL     1       5.037   6.074  17.920  0.00  0.00    +0.000 C 
ATOM     19  C   UNL     1       3.767   6.608  17.254  0.00  0.00    +0.000 C 
ATOM     20  N   UNL     1       1.444   8.221  19.643  0.00  0.00    +0.000 NA
ATOM     21  C   UNL     1       0.985   9.376  20.023  0.00  0.00    +0.000 A 
ATOM     22  N   UNL     1       0.217   9.498  21.179  0.00  0.00    +0.000 N 
ATOM     23  C   UNL     1      -0.033   8.353  22.048  0.00  0.00    +0.000 C 
ENDROOT
TORSDOF 0
ENDMDL
MODEL 7
REMARK VINA RESULT:      -6.4      2.053      3.125
REMARK  Name = 
REMARK  2 active torsions:
REMARK  status: ('A' for Active; 'I' for Inactive)
REMARK    1  A    between atoms: C_1  and  C_2
REMARK    2  A    between atoms: N_22  and  C_23
REMARK                            x       y       z     vdW  Elec       q    Type
REMARK                         _______ _______ _______ _____ _____    ______ ____
ROOT
ATOM      1  C   UNL     1       4.004   5.568  17.153  0.00  0.00    +0.000 C 
ATOM      2  C   UNL     1       3.196   6.403  18.101  0.00  0.00    +0.000 A 
ATOM      3  C   UNL     1       2.679   5.850  19.273  0.00  0.00    +0.000 A 
ATOM      4  C   UNL     1       1.934   6.632  20.162  0.00  0.00    +0.000 A 
ATOM      5  C   UNL     1       1.682   7.990  19.909  0.00  0.00    +0.000 A 
ATOM      6  C   UNL     1       2.196   8.539  18.712  0.00  0.00    +0.000 A 
ATOM      7  C   UNL     1       2.948   7.751  17.825  0.00  0.00    +0.000 A 
ATOM      8  C   UNL     1       1.931   9.947  18.380  0.00  0.00    +0.000 A 
ATOM      9  C   UNL     1       1.216  10.720  19.205  0.00  0.00    +0.000 A 
ATOM     10  C   UNL     1       0.907  12.122  18.905  0.00  0.00    +0.000 A 
ATOM     11  O   UNL     1       1.323  12.655  17.881  0.00  0.00    +0.000 OA
ATOM     12  N   UNL     1       0.135  12.767  19.819  0.00  0.00    +0.000 NA
ATOM     13  C   UNL     1      -0.264  12.215  20.920  0.00  0.00    +0.000 A 
ATOM     14  N   UNL     1      -1.048  12.930  21.805  0.00  0.00    +0.000 N 
ATOM     15  C   UNL     1      -1.508  12.372  23.072  0.00  0.00    +0.000 C 
ATOM     16  C   UNL     1      -3.029  12.251  23.064  0.00  0.00    +0.000 C 
ATOM     17  C   UNL     1      -3.687  13.587  22.727  0.00  0.00    +0.000 C 
ATOM     18  C   UNL     1      -3.119  14.171  21.434  0.00  0.00    +0.000 C 
ATOM     19  C   UNL     1      -1.591  14.246  21.475  0.00  0.00    +0.000 C 
ATOM     20  N   UNL     1       0.033  10.926  21.262  0.00  0.00    +0.000 NA
ATOM     21  C   UNL     1       0.711  10.154  20.467  0.00  0.00    +0.000 A 
ATOM     22  N   UNL     1       0.946   8.819  20.791  0.00  0.00    +0.000 N 
ATOM     23  C   UNL     1       0.373   8.217  21.990  0.00  0.00    +0.000 C 
ENDROOT
TORSDOF 0
ENDMDL
MODEL 8
REMARK VINA RESULT:      -6.3      9.943     11.508
REMARK  Name = 
REMARK  2 active torsions:
REMARK  status: ('A' for Active; 'I' for Inactive)
REMARK    1  A    between atoms: C_1  and  C_2
REMARK    2  A    between atoms: N_22  and  C_23
REMARK                            x       y       z     vdW  Elec       q    Type
REMARK                         _______ _______ _______ _____ _____    ______ ____
ROOT
ATOM      1  C   UNL     1       5.263  11.351  26.482  0.00  0.00    +0.000 C 
ATOM      2  C   UNL     1       6.217  12.117  25.614  0.00  0.00    +0.000 A 
ATOM      3  C   UNL     1       6.546  13.440  25.911  0.00  0.00    +0.000 A 
ATOM      4  C   UNL     1       7.445  14.149  25.107  0.00  0.00    +0.000 A 
ATOM      5  C   UNL     1       8.041  13.561  23.981  0.00  0.00    +0.000 A 
ATOM      6  C   UNL     1       7.691  12.225  23.676  0.00  0.00    +0.000 A 
ATOM      7  C   UNL     1       6.793  11.515  24.490  0.00  0.00    +0.000 A 
ATOM      8  C   UNL     1       8.258  11.572  22.487  0.00  0.00    +0.000 A 
ATOM      9  C   UNL     1       9.115  12.226  21.693  0.00  0.00    +0.000 A 
ATOM     10  C   UNL     1       9.688  11.623  20.485  0.00  0.00    +0.000 A 
ATOM     11  O   UNL     1       9.421  10.469  20.166  0.00  0.00    +0.000 OA
ATOM     12  N   UNL     1      10.509  12.425  19.756  0.00  0.00    +0.000 NA
ATOM     13  C   UNL     1      10.824  13.627  20.119  0.00  0.00    +0.000 A 
ATOM     14  N   UNL     1      11.665  14.387  19.329  0.00  0.00    +0.000 N 
ATOM     15  C   UNL     1      12.077  15.738  19.696  0.00  0.00    +0.000 C 
ATOM     16  C   UNL     1      11.528  16.741  18.685  0.00  0.00    +0.000 C 
ATOM     17  C   UNL     1      11.926  16.362  17.261  0.00  0.00    +0.000 C 
ATOM     18  C   UNL     1      11.545  14.916  16.947  0.00  0.00    +0.000 C 
ATOM     19  C   UNL     1      12.091  13.950  18.001  0.00  0.00    +0.000 C 
ATOM     20  N   UNL     1      10.348  14.215  21.257  0.00  0.00    +0.000 NA
ATOM     21  C   UNL     1       9.503  13.604  22.032  0.00  0.00    +0.000 A 
ATOM     22  N   UNL     1       8.966  14.239  23.150  0.00  0.00    +0.000 N 
ATOM     23  C   UNL     1       9.267  15.636  23.446  0.00  0.00    +0.000 C 
ENDROOT
TORSDOF 0
ENDMDL
MODEL 9
REMARK VINA RESULT:      -6.2      3.321      8.030
REMARK  Name = 
REMARK  2 active torsions:
REMARK  status: ('A' for Active; 'I' for Inactive)
REMARK    1  A    between atoms: C_1  and  C_2
REMARK    2  A    between atoms: N_22  and  C_23
REMARK                            x       y       z     vdW  Elec       q    Type
REMARK                         _______ _______ _______ _____ _____    ______ ____
ROOT
ATOM      1  C   UNL     1       0.845  14.507  19.077  0.00  0.00    +0.000 C 
ATOM      2  C   UNL     1       0.823  13.050  19.433  0.00  0.00    +0.000 A 
ATOM      3  C   UNL     1       0.131  12.602  20.559  0.00  0.00    +0.000 A 
ATOM      4  C   UNL     1       0.102  11.242  20.884  0.00  0.00    +0.000 A 
ATOM      5  C   UNL     1       0.763  10.286  20.097  0.00  0.00    +0.000 A 
ATOM      6  C   UNL     1       1.475  10.749  18.966  0.00  0.00    +0.000 A 
ATOM      7  C   UNL     1       1.497  12.115  18.641  0.00  0.00    +0.000 A 
ATOM      8  C   UNL     1       2.216   9.795  18.127  0.00  0.00    +0.000 A 
ATOM      9  C   UNL     1       2.214   8.488  18.415  0.00  0.00    +0.000 A 
ATOM     10  C   UNL     1       2.956   7.504  17.620  0.00  0.00    +0.000 A 
ATOM     11  O   UNL     1       3.595   7.843  16.629  0.00  0.00    +0.000 OA
ATOM     12  N   UNL     1       2.894   6.220  18.061  0.00  0.00    +0.000 NA
ATOM     13  C   UNL     1       2.183   5.857  19.080  0.00  0.00    +0.000 A 
ATOM     14  N   UNL     1       2.165   4.534  19.474  0.00  0.00    +0.000 N 
ATOM     15  C   UNL     1       1.365   4.060  20.599  0.00  0.00    +0.000 C 
ATOM     16  C   UNL     1       2.280   3.547  21.707  0.00  0.00    +0.000 C 
ATOM     17  C   UNL     1       3.249   2.493  21.179  0.00  0.00    +0.000 C 
ATOM     18  C   UNL     1       4.008   3.004  19.955  0.00  0.00    +0.000 C 
ATOM     19  C   UNL     1       3.054   3.535  18.884  0.00  0.00    +0.000 C 
ATOM     20  N   UNL     1       1.443   6.732  19.826  0.00  0.00    +0.000 NA
ATOM     21  C   UNL     1       1.444   8.006  19.573  0.00  0.00    +0.000 A 
ATOM     22  N   UNL     1       0.745   8.899  20.383  0.00  0.00    +0.000 N 
ATOM     23  C   UNL     1       0.056   8.451  21.589  0.00  0.00    +0.000 C 
ENDROOT
TORSDOF 0
ENDMDL
