MODEL 1
REMARK VINA RESULT:      -8.4      0.000      0.000
REMARK  Name = 
REMARK  6 active torsions:
REMARK  status: ('A' for Active; 'I' for Inactive)
REMARK    1  A    between atoms: C_1  and  C_2
REMARK    2  A    between atoms: C_2  and  O_3
REMARK    3  A    between atoms: C_2  and  C_19
REMARK    4  A    between atoms: O_3  and  C_4
REMARK    5  A    between atoms: C_10  and  C_11
REMARK    6  A    between atoms: C_12  and  C_13
REMARK                            x       y       z     vdW  Elec       q    Type
REMARK                         _______ _______ _______ _____ _____    ______ ____
ROOT
ATOM      1  C   UNL     1       1.690   7.869  19.816  0.00  0.00    +0.000 A 
ATOM      2  C   UNL     1       1.398   6.851  20.715  0.00  0.00    +0.000 A 
ATOM      3  C   UNL     1       1.933   5.575  20.513  0.00  0.00    +0.000 A 
ATOM      4  C   UNL     1       2.756   5.289  19.434  0.00  0.00    +0.000 A 
ATOM      5  N   UNL     1       3.193   4.033  19.277  0.00  0.00    +0.000 NA
ATOM      6  C   UNL     1       3.967   3.767  18.198  0.00  0.00    +0.000 A 
ATOM      7  C   UNL     1       4.372   4.704  17.254  0.00  0.00    +0.000 A 
ATOM      8  C   UNL     1       3.907   6.009  17.436  0.00  0.00    +0.000 A 
ATOM      9  C   UNL     1       3.081   6.325  18.537  0.00  0.00    +0.000 A 
ATOM     10  C   UNL     1       2.563   7.617  18.754  0.00  0.00    +0.000 A 
ENDROOT
BRANCH   7  11
ATOM     11  C   UNL     1       5.187   4.345  16.082  0.00  0.00    +0.000 C 
ATOM     12  C   UNL     1       5.965   5.224  15.425  0.00  0.00    +0.000 C 
BRANCH  12  13
ATOM     13  C   UNL     1       6.781   4.796  14.265  0.00  0.00    +0.000 C 
ATOM     14  N   UNL     1       6.342   3.643  13.690  0.00  0.00    +0.000 N 
ATOM     15  O   UNL     1       7.751   5.407  13.848  0.00  0.00    +0.000 OA
ATOM     16  H   UNL     1       5.547   3.112  14.011  0.00  0.00    +0.000 HD
ATOM     17  H   UNL     1       6.861   3.296  12.894  0.00  0.00    +0.000 HD
ENDBRANCH  12  13
ENDBRANCH   7  11
BRANCH   1  18
ATOM     18  O   UNL     1       1.202   9.141  19.879  0.00  0.00    +0.000 OA
BRANCH  18  20
ATOM     19  C   UNL     1       1.941  10.605  18.013  0.00  0.00    +0.000 C 
ATOM     20  C   UNL     1       0.807   9.796  18.662  0.00  0.00    +0.000 C 
BRANCH  20  21
ATOM     21  C   UNL     1      -0.385  10.685  19.010  0.00  0.00    +0.000 A 
ATOM     22  C   UNL     1      -1.569  10.650  18.237  0.00  0.00    +0.000 A 
ATOM     23 CL   UNL     1      -1.741   9.663  16.824  0.00  0.00    +0.000 Cl
ATOM     24  C   UNL     1      -2.686  11.432  18.571  0.00  0.00    +0.000 A 
ATOM     25  C   UNL     1      -2.647  12.276  19.673  0.00  0.00    +0.000 A 
ATOM     26  C   UNL     1      -1.492  12.339  20.435  0.00  0.00    +0.000 A 
ATOM     27  F   UNL     1      -1.473  13.171  21.487  0.00  0.00    +0.000 F 
ATOM     28  C   UNL     1      -0.370  11.558  20.124  0.00  0.00    +0.000 A 
ATOM     29 CL   UNL     1       0.995  11.726  21.179  0.00  0.00    +0.000 Cl
ENDBRANCH  20  21
ENDBRANCH  18  20
ENDBRANCH   1  18
TORSDOF 5
ENDMDL
MODEL 2
REMARK VINA RESULT:      -8.3      1.040      2.048
REMARK  Name = 
REMARK  6 active torsions:
REMARK  status: ('A' for Active; 'I' for Inactive)
REMARK    1  A    between atoms: C_1  and  C_2
REMARK    2  A    between atoms: C_2  and  O_3
REMARK    3  A    between atoms: C_2  and  C_19
REMARK    4  A    between atoms: O_3  and  C_4
REMARK    5  A    between atoms: C_10  and  C_11
REMARK    6  A    between atoms: C_12  and  C_13
REMARK                            x       y       z     vdW  Elec       q    Type
REMARK                         _______ _______ _______ _____ _____    ______ ____
ROOT
ATOM      1  C   UNL     1       1.513   8.204  19.954  0.00  0.00    +0.000 A 
ATOM      2  C   UNL     1       1.289   7.184  20.869  0.00  0.00    +0.000 A 
ATOM      3  C   UNL     1       1.841   5.919  20.643  0.00  0.00    +0.000 A 
ATOM      4  C   UNL     1       2.614   5.647  19.525  0.00  0.00    +0.000 A 
ATOM      5  N   UNL     1       3.071   4.400  19.350  0.00  0.00    +0.000 NA
ATOM      6  C   UNL     1       3.796   4.147  18.235  0.00  0.00    +0.000 A 
ATOM      7  C   UNL     1       4.132   5.089  17.269  0.00  0.00    +0.000 A 
ATOM      8  C   UNL     1       3.648   6.384  17.470  0.00  0.00    +0.000 A 
ATOM      9  C   UNL     1       2.872   6.686  18.610  0.00  0.00    +0.000 A 
ATOM     10  C   UNL     1       2.337   7.967  18.850  0.00  0.00    +0.000 A 
ENDROOT
BRANCH   7  11
ATOM     11  C   UNL     1       4.894   4.743  16.058  0.00  0.00    +0.000 C 
ATOM     12  C   UNL     1       6.142   5.186  15.817  0.00  0.00    +0.000 C 
BRANCH  12  13
ATOM     13  C   UNL     1       6.866   4.784  14.590  0.00  0.00    +0.000 C 
ATOM     14  N   UNL     1       6.394   3.635  14.033  0.00  0.00    +0.000 N 
ATOM     15  O   UNL     1       7.795   5.410  14.108  0.00  0.00    +0.000 OA
ATOM     16  H   UNL     1       5.631   3.092  14.408  0.00  0.00    +0.000 HD
ATOM     17  H   UNL     1       6.850   3.305  13.194  0.00  0.00    +0.000 HD
ENDBRANCH  12  13
ENDBRANCH   7  11
BRANCH   1  18
ATOM     18  O   UNL     1       1.001   9.466  20.038  0.00  0.00    +0.000 OA
BRANCH  18  20
ATOM     19  C   UNL     1       1.768  11.141  18.372  0.00  0.00    +0.000 C 
ATOM     20  C   UNL     1       0.672  10.165  18.826  0.00  0.00    +0.000 C 
BRANCH  20  21
ATOM     21  C   UNL     1      -0.649  10.889  19.083  0.00  0.00    +0.000 A 
ATOM     22  C   UNL     1      -0.795  11.767  20.183  0.00  0.00    +0.000 A 
ATOM     23 CL   UNL     1       0.465  12.042  21.341  0.00  0.00    +0.000 Cl
ATOM     24  C   UNL     1      -1.990  12.469  20.407  0.00  0.00    +0.000 A 
ATOM     25  C   UNL     1      -3.071  12.305  19.550  0.00  0.00    +0.000 A 
ATOM     26  C   UNL     1      -2.956  11.437  18.476  0.00  0.00    +0.000 A 
ATOM     27  F   UNL     1      -4.017  11.285  17.670  0.00  0.00    +0.000 F 
ATOM     28  C   UNL     1      -1.768  10.735  18.231  0.00  0.00    +0.000 A 
ATOM     29 CL   UNL     1      -1.764   9.703  16.838  0.00  0.00    +0.000 Cl
ENDBRANCH  20  21
ENDBRANCH  18  20
ENDBRANCH   1  18
TORSDOF 5
ENDMDL
MODEL 3
REMARK VINA RESULT:      -8.2      1.445      2.133
REMARK  Name = 
REMARK  6 active torsions:
REMARK  status: ('A' for Active; 'I' for Inactive)
REMARK    1  A    between atoms: C_1  and  C_2
REMARK    2  A    between atoms: C_2  and  O_3
REMARK    3  A    between atoms: C_2  and  C_19
REMARK    4  A    between atoms: O_3  and  C_4
REMARK    5  A    between atoms: C_10  and  C_11
REMARK    6  A    between atoms: C_12  and  C_13
REMARK                            x       y       z     vdW  Elec       q    Type
REMARK                         _______ _______ _______ _____ _____    ______ ____
ROOT
ATOM      1  C   UNL     1       1.621   8.653  19.400  0.00  0.00    +0.000 A 
ATOM      2  C   UNL     1       1.447   7.838  20.511  0.00  0.00    +0.000 A 
ATOM      3  C   UNL     1       2.077   6.591  20.559  0.00  0.00    +0.000 A 
ATOM      4  C   UNL     1       2.879   6.135  19.525  0.00  0.00    +0.000 A 
ATOM      5  N   UNL     1       3.412   4.910  19.619  0.00  0.00    +0.000 NA
ATOM      6  C   UNL     1       4.165   4.471  18.583  0.00  0.00    +0.000 A 
ATOM      7  C   UNL     1       4.456   5.205  17.438  0.00  0.00    +0.000 A 
ATOM      8  C   UNL     1       3.892   6.481  17.360  0.00  0.00    +0.000 A 
ATOM      9  C   UNL     1       3.085   6.970  18.409  0.00  0.00    +0.000 A 
ATOM     10  C   UNL     1       2.471   8.238  18.371  0.00  0.00    +0.000 A 
ENDROOT
BRANCH   7  11
ATOM     11  C   UNL     1       5.253   4.658  16.328  0.00  0.00    +0.000 C 
ATOM     12  C   UNL     1       5.978   5.421  15.491  0.00  0.00    +0.000 C 
BRANCH  12  13
ATOM     13  C   UNL     1       6.779   4.809  14.407  0.00  0.00    +0.000 C 
ATOM     14  N   UNL     1       6.351   3.566  14.051  0.00  0.00    +0.000 N 
ATOM     15  O   UNL     1       7.730   5.351  13.869  0.00  0.00    +0.000 OA
ATOM     16  H   UNL     1       5.571   3.089  14.477  0.00  0.00    +0.000 HD
ATOM     17  H   UNL     1       6.860   3.093  13.317  0.00  0.00    +0.000 HD
ENDBRANCH  12  13
ENDBRANCH   7  11
BRANCH   1  18
ATOM     18  O   UNL     1       1.032   9.869  19.213  0.00  0.00    +0.000 OA
BRANCH  18  20
ATOM     19  C   UNL     1      -1.218  10.186  18.209  0.00  0.00    +0.000 C 
ATOM     20  C   UNL     1      -0.374  10.010  19.480  0.00  0.00    +0.000 C 
BRANCH  20  21
ATOM     21  C   UNL     1      -0.522  11.205  20.419  0.00  0.00    +0.000 A 
ATOM     22  C   UNL     1      -0.671  11.021  21.814  0.00  0.00    +0.000 A 
ATOM     23 CL   UNL     1      -0.757   9.456  22.552  0.00  0.00    +0.000 Cl
ATOM     24  C   UNL     1      -0.768  12.113  22.692  0.00  0.00    +0.000 A 
ATOM     25  C   UNL     1      -0.732  13.412  22.202  0.00  0.00    +0.000 A 
ATOM     26  C   UNL     1      -0.604  13.616  20.838  0.00  0.00    +0.000 A 
ATOM     27  F   UNL     1      -0.585  14.879  20.387  0.00  0.00    +0.000 F 
ATOM     28  C   UNL     1      -0.496  12.539  19.947  0.00  0.00    +0.000 A 
ATOM     29 CL   UNL     1      -0.319  12.948  18.272  0.00  0.00    +0.000 Cl
ENDBRANCH  20  21
ENDBRANCH  18  20
ENDBRANCH   1  18
TORSDOF 5
ENDMDL
MODEL 4
REMARK VINA RESULT:      -8.1      1.634      2.243
REMARK  Name = 
REMARK  6 active torsions:
REMARK  status: ('A' for Active; 'I' for Inactive)
REMARK    1  A    between atoms: C_1  and  C_2
REMARK    2  A    between atoms: C_2  and  O_3
REMARK    3  A    between atoms: C_2  and  C_19
REMARK    4  A    between atoms: O_3  and  C_4
REMARK    5  A    between atoms: C_10  and  C_11
REMARK    6  A    between atoms: C_12  and  C_13
REMARK                            x       y       z     vdW  Elec       q    Type
REMARK                         _______ _______ _______ _____ _____    ______ ____
ROOT
ATOM      1  C   UNL     1       1.225   9.371  19.418  0.00  0.00    +0.000 A 
ATOM      2  C   UNL     1       1.143   8.521  20.513  0.00  0.00    +0.000 A 
ATOM      3  C   UNL     1       1.839   7.309  20.501  0.00  0.00    +0.000 A 
ATOM      4  C   UNL     1       2.618   6.922  19.422  0.00  0.00    +0.000 A 
ATOM      5  N   UNL     1       3.218   5.725  19.460  0.00  0.00    +0.000 NA
ATOM      6  C   UNL     1       3.947   5.353  18.382  0.00  0.00    +0.000 A 
ATOM      7  C   UNL     1       4.149   6.129  17.246  0.00  0.00    +0.000 A 
ATOM      8  C   UNL     1       3.516   7.375  17.226  0.00  0.00    +0.000 A 
ATOM      9  C   UNL     1       2.731   7.794  18.322  0.00  0.00    +0.000 A 
ATOM     10  C   UNL     1       2.050   9.027  18.343  0.00  0.00    +0.000 A 
ENDROOT
BRANCH   7  11
ATOM     11  C   UNL     1       4.924   5.653  16.089  0.00  0.00    +0.000 C 
ATOM     12  C   UNL     1       6.205   5.249  16.172  0.00  0.00    +0.000 C 
BRANCH  12  13
ATOM     13  C   UNL     1       6.925   4.757  14.975  0.00  0.00    +0.000 C 
ATOM     14  N   UNL     1       6.412   3.601  14.471  0.00  0.00    +0.000 N 
ATOM     15  O   UNL     1       7.882   5.322  14.473  0.00  0.00    +0.000 OA
ATOM     16  H   UNL     1       5.624   3.109  14.863  0.00  0.00    +0.000 HD
ATOM     17  H   UNL     1       6.863   3.212  13.654  0.00  0.00    +0.000 HD
ENDBRANCH  12  13
ENDBRANCH   7  11
BRANCH   1  18
ATOM     18  O   UNL     1       0.566  10.558  19.289  0.00  0.00    +0.000 OA
BRANCH  18  20
ATOM     19  C   UNL     1      -1.866  10.557  18.778  0.00  0.00    +0.000 C 
ATOM     20  C   UNL     1      -0.758  10.682  19.836  0.00  0.00    +0.000 C 
BRANCH  20  21
ATOM     21  C   UNL     1      -0.813  12.034  20.545  0.00  0.00    +0.000 A 
ATOM     22  C   UNL     1      -0.743  13.243  19.814  0.00  0.00    +0.000 A 
ATOM     23 CL   UNL     1      -0.531  13.292  18.095  0.00  0.00    +0.000 Cl
ATOM     24  C   UNL     1      -0.834  14.491  20.450  0.00  0.00    +0.000 A 
ATOM     25  C   UNL     1      -0.984  14.566  21.829  0.00  0.00    +0.000 A 
ATOM     26  C   UNL     1      -1.038  13.395  22.568  0.00  0.00    +0.000 A 
ATOM     27  F   UNL     1      -1.170  13.492  23.899  0.00  0.00    +0.000 F 
ATOM     28  C   UNL     1      -0.959  12.139  21.949  0.00  0.00    +0.000 A 
ATOM     29 CL   UNL     1      -1.063  10.763  22.997  0.00  0.00    +0.000 Cl
ENDBRANCH  20  21
ENDBRANCH  18  20
ENDBRANCH   1  18
TORSDOF 5
ENDMDL
MODEL 5
REMARK VINA RESULT:      -8.0      1.672      2.504
REMARK  Name = 
REMARK  6 active torsions:
REMARK  status: ('A' for Active; 'I' for Inactive)
REMARK    1  A    between atoms: C_1  and  C_2
REMARK    2  A    between atoms: C_2  and  O_3
REMARK    3  A    between atoms: C_2  and  C_19
REMARK    4  A    between atoms: O_3  and  C_4
REMARK    5  A    between atoms: C_10  and  C_11
REMARK    6  A    between atoms: C_12  and  C_13
REMARK                            x       y       z     vdW  Elec       q    Type
REMARK                         _______ _______ _______ _____ _____    ______ ____
ROOT
ATOM      1  C   UNL     1       1.038   8.933  20.075  0.00  0.00    +0.000 A 
ATOM      2  C   UNL     1       0.998   7.915  21.020  0.00  0.00    +0.000 A 
ATOM      3  C   UNL     1       1.744   6.751  20.813  0.00  0.00    +0.000 A 
ATOM      4  C   UNL     1       2.532   6.575  19.686  0.00  0.00    +0.000 A 
ATOM      5  N   UNL     1       3.181   5.414  19.532  0.00  0.00    +0.000 NA
ATOM      6  C   UNL     1       3.918   5.251  18.408  0.00  0.00    +0.000 A 
ATOM      7  C   UNL     1       4.080   6.208  17.411  0.00  0.00    +0.000 A 
ATOM      8  C   UNL     1       3.396   7.412  17.591  0.00  0.00    +0.000 A 
ATOM      9  C   UNL     1       2.601   7.617  18.740  0.00  0.00    +0.000 A 
ATOM     10  C   UNL     1       1.869   8.801  18.960  0.00  0.00    +0.000 A 
ENDROOT
BRANCH   7  11
ATOM     11  C   UNL     1       4.867   5.956  16.193  0.00  0.00    +0.000 C 
ATOM     12  C   UNL     1       5.779   4.973  16.092  0.00  0.00    +0.000 C 
BRANCH  12  13
ATOM     13  C   UNL     1       6.523   4.755  14.829  0.00  0.00    +0.000 C 
ATOM     14  N   UNL     1       7.698   5.440  14.767  0.00  0.00    +0.000 N 
ATOM     15  O   UNL     1       6.139   4.032  13.925  0.00  0.00    +0.000 OA
ATOM     16  H   UNL     1       8.043   6.047  15.495  0.00  0.00    +0.000 HD
ATOM     17  H   UNL     1       8.251   5.336  13.927  0.00  0.00    +0.000 HD
ENDBRANCH  12  13
ENDBRANCH   7  11
BRANCH   1  18
ATOM     18  O   UNL     1       0.329  10.096  20.138  0.00  0.00    +0.000 OA
BRANCH  18  20
ATOM     19  C   UNL     1       0.990  12.014  18.704  0.00  0.00    +0.000 C 
ATOM     20  C   UNL     1       0.057  10.813  18.922  0.00  0.00    +0.000 C 
BRANCH  20  21
ATOM     21  C   UNL     1      -1.406  11.248  18.989  0.00  0.00    +0.000 A 
ATOM     22  C   UNL     1      -1.862  12.112  20.012  0.00  0.00    +0.000 A 
ATOM     23 CL   UNL     1      -0.837  12.688  21.284  0.00  0.00    +0.000 Cl
ATOM     24  C   UNL     1      -3.195  12.552  20.060  0.00  0.00    +0.000 A 
ATOM     25  C   UNL     1      -4.107  12.132  19.099  0.00  0.00    +0.000 A 
ATOM     26  C   UNL     1      -3.686  11.273  18.098  0.00  0.00    +0.000 A 
ATOM     27  F   UNL     1      -4.587  10.871  17.190  0.00  0.00    +0.000 F 
ATOM     28  C   UNL     1      -2.357  10.831  18.027  0.00  0.00    +0.000 A 
ATOM     29 CL   UNL     1      -1.971   9.777  16.707  0.00  0.00    +0.000 Cl
ENDBRANCH  20  21
ENDBRANCH  18  20
ENDBRANCH   1  18
TORSDOF 5
ENDMDL
MODEL 6
REMARK VINA RESULT:      -8.0      4.862      9.661
REMARK  Name = 
REMARK  6 active torsions:
REMARK  status: ('A' for Active; 'I' for Inactive)
REMARK    1  A    between atoms: C_1  and  C_2
REMARK    2  A    between atoms: C_2  and  O_3
REMARK    3  A    between atoms: C_2  and  C_19
REMARK    4  A    between atoms: O_3  and  C_4
REMARK    5  A    between atoms: C_10  and  C_11
REMARK    6  A    between atoms: C_12  and  C_13
REMARK                            x       y       z     vdW  Elec       q    Type
REMARK                         _______ _______ _______ _____ _____    ______ ____
ROOT
ATOM      1  C   UNL     1       2.087   7.797  19.153  0.00  0.00    +0.000 A 
ATOM      2  C   UNL     1       2.139   8.677  18.079  0.00  0.00    +0.000 A 
ATOM      3  C   UNL     1       1.485   9.910  18.163  0.00  0.00    +0.000 A 
ATOM      4  C   UNL     1       0.780  10.290  19.295  0.00  0.00    +0.000 A 
ATOM      5  N   UNL     1       0.139  11.466  19.287  0.00  0.00    +0.000 NA
ATOM      6  C   UNL     1      -0.570  11.802  20.389  0.00  0.00    +0.000 A 
ATOM      7  C   UNL     1      -0.662  11.036  21.546  0.00  0.00    +0.000 A 
ATOM      8  C   UNL     1       0.015   9.814  21.536  0.00  0.00    +0.000 A 
ATOM      9  C   UNL     1       0.751   9.416  20.399  0.00  0.00    +0.000 A 
ATOM     10  C   UNL     1       1.431   8.184  20.325  0.00  0.00    +0.000 A 
ENDROOT
BRANCH   7  11
ATOM     11  C   UNL     1      -1.481  11.441  22.701  0.00  0.00    +0.000 C 
ATOM     12  C   UNL     1      -2.524  12.285  22.608  0.00  0.00    +0.000 C 
BRANCH  12  13
ATOM     13  C   UNL     1      -3.324  12.636  23.804  0.00  0.00    +0.000 C 
ATOM     14  N   UNL     1      -3.113  13.907  24.245  0.00  0.00    +0.000 N 
ATOM     15  O   UNL     1      -4.106  11.876  24.351  0.00  0.00    +0.000 OA
ATOM     16  H   UNL     1      -2.472  14.559  23.818  0.00  0.00    +0.000 HD
ATOM     17  H   UNL     1      -3.628  14.206  25.061  0.00  0.00    +0.000 HD
ENDBRANCH  12  13
ENDBRANCH   7  11
BRANCH   1  18
ATOM     18  O   UNL     1       2.646   6.554  19.182  0.00  0.00    +0.000 OA
BRANCH  18  20
ATOM     19  C   UNL     1       1.962   4.632  17.763  0.00  0.00    +0.000 C 
ATOM     20  C   UNL     1       2.867   5.861  17.942  0.00  0.00    +0.000 C 
BRANCH  20  21
ATOM     21  C   UNL     1       4.345   5.475  17.914  0.00  0.00    +0.000 A 
ATOM     22  C   UNL     1       4.885   4.595  18.881  0.00  0.00    +0.000 A 
ATOM     23 CL   UNL     1       3.951   3.943  20.186  0.00  0.00    +0.000 Cl
ATOM     24  C   UNL     1       6.232   4.200  18.841  0.00  0.00    +0.000 A 
ATOM     25  C   UNL     1       7.075   4.681  17.848  0.00  0.00    +0.000 A 
ATOM     26  C   UNL     1       6.572   5.558  16.901  0.00  0.00    +0.000 A 
ATOM     27  F   UNL     1       7.407   6.019  15.959  0.00  0.00    +0.000 F 
ATOM     28  C   UNL     1       5.227   5.955  16.917  0.00  0.00    +0.000 A 
ATOM     29 CL   UNL     1       4.735   7.038  15.657  0.00  0.00    +0.000 Cl
ENDBRANCH  20  21
ENDBRANCH  18  20
ENDBRANCH   1  18
TORSDOF 5
ENDMDL
MODEL 7
REMARK VINA RESULT:      -8.0      1.967      2.792
REMARK  Name = 
REMARK  6 active torsions:
REMARK  status: ('A' for Active; 'I' for Inactive)
REMARK    1  A    between atoms: C_1  and  C_2
REMARK    2  A    between atoms: C_2  and  O_3
REMARK    3  A    between atoms: C_2  and  C_19
REMARK    4  A    between atoms: O_3  and  C_4
REMARK    5  A    between atoms: C_10  and  C_11
REMARK    6  A    between atoms: C_12  and  C_13
REMARK                            x       y       z     vdW  Elec       q    Type
REMARK                         _______ _______ _______ _____ _____    ______ ____
ROOT
ATOM      1  C   UNL     1       0.047  10.091  20.143  0.00  0.00    +0.000 A 
ATOM      2  C   UNL     1      -0.025   9.280  21.268  0.00  0.00    +0.000 A 
ATOM      3  C   UNL     1       0.733   8.107  21.325  0.00  0.00    +0.000 A 
ATOM      4  C   UNL     1       1.566   7.722  20.285  0.00  0.00    +0.000 A 
ATOM      5  N   UNL     1       2.226   6.561  20.388  0.00  0.00    +0.000 NA
ATOM      6  C   UNL     1       3.007   6.188  19.347  0.00  0.00    +0.000 A 
ATOM      7  C   UNL     1       3.204   6.931  18.188  0.00  0.00    +0.000 A 
ATOM      8  C   UNL     1       2.508   8.139  18.100  0.00  0.00    +0.000 A 
ATOM      9  C   UNL     1       1.668   8.557  19.155  0.00  0.00    +0.000 A 
ATOM     10  C   UNL     1       0.923   9.752  19.108  0.00  0.00    +0.000 A 
ENDROOT
BRANCH   7  11
ATOM     11  C   UNL     1       4.039   6.453  17.074  0.00  0.00    +0.000 C 
ATOM     12  C   UNL     1       5.024   5.549  17.223  0.00  0.00    +0.000 C 
BRANCH  12  13
ATOM     13  C   UNL     1       5.815   5.090  16.058  0.00  0.00    +0.000 C 
ATOM     14  N   UNL     1       5.993   3.741  16.022  0.00  0.00    +0.000 N 
ATOM     15  O   UNL     1       6.266   5.832  15.202  0.00  0.00    +0.000 OA
ATOM     16  H   UNL     1       5.637   3.100  16.714  0.00  0.00    +0.000 HD
ATOM     17  H   UNL     1       6.529   3.365  15.251  0.00  0.00    +0.000 HD
ENDBRANCH  12  13
ENDBRANCH   7  11
BRANCH   1  18
ATOM     18  O   UNL     1      -0.669  11.236  19.948  0.00  0.00    +0.000 OA
BRANCH  18  20
ATOM     19  C   UNL     1      -0.439  13.019  18.233  0.00  0.00    +0.000 C 
ATOM     20  C   UNL     1      -0.992  11.634  18.605  0.00  0.00    +0.000 C 
BRANCH  20  21
ATOM     21  C   UNL     1      -2.515  11.592  18.491  0.00  0.00    +0.000 A 
ATOM     22  C   UNL     1      -3.147  10.863  17.457  0.00  0.00    +0.000 A 
ATOM     23 CL   UNL     1      -2.266  10.024  16.223  0.00  0.00    +0.000 Cl
ATOM     24  C   UNL     1      -4.546  10.783  17.365  0.00  0.00    +0.000 A 
ATOM     25  C   UNL     1      -5.348  11.437  18.292  0.00  0.00    +0.000 A 
ATOM     26  C   UNL     1      -4.750  12.171  19.304  0.00  0.00    +0.000 A 
ATOM     27  F   UNL     1      -5.545  12.804  20.179  0.00  0.00    +0.000 F 
ATOM     28  C   UNL     1      -3.356  12.254  19.417  0.00  0.00    +0.000 A 
ATOM     29 CL   UNL     1      -2.752  13.189  20.745  0.00  0.00    +0.000 Cl
ENDBRANCH  20  21
ENDBRANCH  18  20
ENDBRANCH   1  18
TORSDOF 5
ENDMDL
MODEL 8
REMARK VINA RESULT:      -8.0      1.615      1.989
REMARK  Name = 
REMARK  6 active torsions:
REMARK  status: ('A' for Active; 'I' for Inactive)
REMARK    1  A    between atoms: C_1  and  C_2
REMARK    2  A    between atoms: C_2  and  O_3
REMARK    3  A    between atoms: C_2  and  C_19
REMARK    4  A    between atoms: O_3  and  C_4
REMARK    5  A    between atoms: C_10  and  C_11
REMARK    6  A    between atoms: C_12  and  C_13
REMARK                            x       y       z     vdW  Elec       q    Type
REMARK                         _______ _______ _______ _____ _____    ______ ____
ROOT
ATOM      1  C   UNL     1       1.530   6.390  20.458  0.00  0.00    +0.000 A 
ATOM      2  C   UNL     1       1.399   5.071  20.876  0.00  0.00    +0.000 A 
ATOM      3  C   UNL     1       2.083   4.059  20.196  0.00  0.00    +0.000 A 
ATOM      4  C   UNL     1       2.898   4.330  19.107  0.00  0.00    +0.000 A 
ATOM      5  N   UNL     1       3.485   3.305  18.475  0.00  0.00    +0.000 NA
ATOM      6  C   UNL     1       4.249   3.588  17.395  0.00  0.00    +0.000 A 
ATOM      7  C   UNL     1       4.500   4.865  16.904  0.00  0.00    +0.000 A 
ATOM      8  C   UNL     1       3.880   5.920  17.578  0.00  0.00    +0.000 A 
ATOM      9  C   UNL     1       3.060   5.668  18.699  0.00  0.00    +0.000 A 
ATOM     10  C   UNL     1       2.391   6.691  19.399  0.00  0.00    +0.000 A 
ENDROOT
BRANCH   7  11
ATOM     11  C   UNL     1       5.313   5.105  15.701  0.00  0.00    +0.000 C 
ATOM     12  C   UNL     1       6.079   4.162  15.125  0.00  0.00    +0.000 C 
BRANCH  12  13
ATOM     13  C   UNL     1       6.856   4.459  13.900  0.00  0.00    +0.000 C 
ATOM     14  N   UNL     1       7.809   5.415  14.080  0.00  0.00    +0.000 N 
ATOM     15  O   UNL     1       6.679   3.907  12.827  0.00  0.00    +0.000 OA
ATOM     16  H   UNL     1       7.979   5.892  14.953  0.00  0.00    +0.000 HD
ATOM     17  H   UNL     1       8.371   5.665  13.278  0.00  0.00    +0.000 HD
ENDBRANCH  12  13
ENDBRANCH   7  11
BRANCH   1  18
ATOM     18  O   UNL     1       0.887   7.459  21.009  0.00  0.00    +0.000 OA
BRANCH  18  20
ATOM     19  C   UNL     1       2.062   9.090  22.469  0.00  0.00    +0.000 C 
ATOM     20  C   UNL     1       1.565   8.726  21.062  0.00  0.00    +0.000 C 
BRANCH  20  21
ATOM     21  C   UNL     1       0.584   9.769  20.529  0.00  0.00    +0.000 A 
ATOM     22  C   UNL     1       0.616  10.173  19.174  0.00  0.00    +0.000 A 
ATOM     23 CL   UNL     1       1.786   9.579  18.043  0.00  0.00    +0.000 Cl
ATOM     24  C   UNL     1      -0.306  11.100  18.663  0.00  0.00    +0.000 A 
ATOM     25  C   UNL     1      -1.274  11.656  19.491  0.00  0.00    +0.000 A 
ATOM     26  C   UNL     1      -1.314  11.287  20.826  0.00  0.00    +0.000 A 
ATOM     27  F   UNL     1      -2.248  11.846  21.608  0.00  0.00    +0.000 F 
ATOM     28  C   UNL     1      -0.408  10.355  21.351  0.00  0.00    +0.000 A 
ATOM     29 CL   UNL     1      -0.593   9.975  23.032  0.00  0.00    +0.000 Cl
ENDBRANCH  20  21
ENDBRANCH  18  20
ENDBRANCH   1  18
TORSDOF 5
ENDMDL
MODEL 9
REMARK VINA RESULT:      -8.0      1.521      1.962
REMARK  Name = 
REMARK  6 active torsions:
REMARK  status: ('A' for Active; 'I' for Inactive)
REMARK    1  A    between atoms: C_1  and  C_2
REMARK    2  A    between atoms: C_2  and  O_3
REMARK    3  A    between atoms: C_2  and  C_19
REMARK    4  A    between atoms: O_3  and  C_4
REMARK    5  A    between atoms: C_10  and  C_11
REMARK    6  A    between atoms: C_12  and  C_13
REMARK                            x       y       z     vdW  Elec       q    Type
REMARK                         _______ _______ _______ _____ _____    ______ ____
ROOT
ATOM      1  C   UNL     1       0.688   9.316  20.134  0.00  0.00    +0.000 A 
ATOM      2  C   UNL     1       0.645   8.322  21.103  0.00  0.00    +0.000 A 
ATOM      3  C   UNL     1       1.429   7.174  20.952  0.00  0.00    +0.000 A 
ATOM      4  C   UNL     1       2.257   6.993  19.855  0.00  0.00    +0.000 A 
ATOM      5  N   UNL     1       2.944   5.847  19.752  0.00  0.00    +0.000 NA
ATOM      6  C   UNL     1       3.720   5.677  18.657  0.00  0.00    +0.000 A 
ATOM      7  C   UNL     1       3.889   6.612  17.641  0.00  0.00    +0.000 A 
ATOM      8  C   UNL     1       3.167   7.801  17.768  0.00  0.00    +0.000 A 
ATOM      9  C   UNL     1       2.329   8.012  18.885  0.00  0.00    +0.000 A 
ATOM     10  C   UNL     1       1.559   9.180  19.050  0.00  0.00    +0.000 A 
ENDROOT
BRANCH   7  11
ATOM     11  C   UNL     1       4.722   6.352  16.456  0.00  0.00    +0.000 C 
ATOM     12  C   UNL     1       5.158   5.127  16.113  0.00  0.00    +0.000 C 
BRANCH  12  13
ATOM     13  C   UNL     1       5.974   4.926  14.893  0.00  0.00    +0.000 C 
ATOM     14  N   UNL     1       7.170   5.577  14.927  0.00  0.00    +0.000 N 
ATOM     15  O   UNL     1       5.629   4.243  13.943  0.00  0.00    +0.000 OA
ATOM     16  H   UNL     1       7.484   6.151  15.695  0.00  0.00    +0.000 HD
ATOM     17  H   UNL     1       7.772   5.482  14.121  0.00  0.00    +0.000 HD
ENDBRANCH  12  13
ENDBRANCH   7  11
BRANCH   1  18
ATOM     18  O   UNL     1      -0.055  10.460  20.144  0.00  0.00    +0.000 OA
BRANCH  18  20
ATOM     19  C   UNL     1       0.527  12.391  18.693  0.00  0.00    +0.000 C 
ATOM     20  C   UNL     1      -0.322  11.127  18.900  0.00  0.00    +0.000 C 
BRANCH  20  21
ATOM     21  C   UNL     1      -1.815  11.451  18.889  0.00  0.00    +0.000 A 
ATOM     22  C   UNL     1      -2.678  10.871  17.929  0.00  0.00    +0.000 A 
ATOM     23 CL   UNL     1      -2.117   9.817  16.674  0.00  0.00    +0.000 Cl
ATOM     24  C   UNL     1      -4.059  11.129  17.934  0.00  0.00    +0.000 A 
ATOM     25  C   UNL     1      -4.610  11.978  18.885  0.00  0.00    +0.000 A 
ATOM     26  C   UNL     1      -3.781  12.570  19.824  0.00  0.00    +0.000 A 
ATOM     27  F   UNL     1      -4.334  13.395  20.725  0.00  0.00    +0.000 F 
ATOM     28  C   UNL     1      -2.403  12.317  19.842  0.00  0.00    +0.000 A 
ATOM     29 CL   UNL     1      -1.496  13.110  21.088  0.00  0.00    +0.000 Cl
ENDBRANCH  20  21
ENDBRANCH  18  20
ENDBRANCH   1  18
TORSDOF 5
ENDMDL
