MODEL 1
REMARK VINA RESULT:      -7.2      0.000      0.000
REMARK  Name = 
REMARK  0 active torsions:
REMARK  status: ('A' for Active; 'I' for Inactive)
REMARK                            x       y       z     vdW  Elec       q    Type
REMARK                         _______ _______ _______ _____ _____    ______ ____
ROOT
ATOM      1  C   UNL     1       0.769   8.875  19.856  0.00  0.00    +0.000 A 
ATOM      2  C   UNL     1       0.922   9.286  18.532  0.00  0.00    +0.000 A 
ATOM      3  C   UNL     1       1.989   8.800  17.782  0.00  0.00    +0.000 A 
ATOM      4  C   UNL     1       2.871   7.866  18.341  0.00  0.00    +0.000 A 
ATOM      5  C   UNL     1       2.647   7.332  19.634  0.00  0.00    +0.000 A 
ATOM      6  C   UNL     1       1.634   7.917  20.409  0.00  0.00    +0.000 A 
ATOM      7  N   UNL     1       3.339   6.163  20.145  0.00  0.00    +0.000 N 
ATOM      8  C   UNL     1       3.410   4.996  19.131  0.00  0.00    +0.000 C 
ATOM      9  C   UNL     1       1.906   4.719  18.729  0.00  0.00    +0.000 C 
ATOM     10  C   UNL     1       0.993   4.656  19.963  0.00  0.00    +0.000 C 
ATOM     11  C   UNL     1       0.442   3.276  20.162  0.00  0.00    +0.000 C 
ATOM     12  C   UNL     1       1.480   2.534  20.985  0.00  0.00    +0.000 C 
ATOM     13  C   UNL     1       2.833   2.395  20.239  0.00  0.00    +0.000 C 
ATOM     14  C   UNL     1       3.846   3.607  19.849  0.00  0.00    +0.000 C 
ATOM     15  N   UNL     1       4.335   5.493  17.996  0.00  0.00    +0.000 N 
ATOM     16  C   UNL     1       3.872   7.236  17.514  0.00  0.00    +0.000 A 
ATOM     17  N   UNL     1       4.301   7.411  15.843  0.00  0.00    +0.000 NA
ATOM     18  C   UNL     1       5.110   5.833  15.158  0.00  0.00    +0.000 A 
ATOM     19  C   UNL     1       5.719   5.489  13.968  0.00  0.00    +0.000 A 
ATOM     20  C   UNL     1       6.515   4.337  14.025  0.00  0.00    +0.000 A 
ATOM     21  C   UNL     1       6.619   3.460  15.149  0.00  0.00    +0.000 A 
ATOM     22  C   UNL     1       5.892   3.535  16.372  0.00  0.00    +0.000 A 
ATOM     23  C   UNL     1       5.075   4.644  16.531  0.00  0.00    +0.000 A 
ATOM     24  H   UNL     1       4.287   6.455  20.396  0.00  0.00    +0.000 HD
ENDROOT
TORSDOF 0
ENDMDL
MODEL 2
REMARK VINA RESULT:      -6.8      1.485      6.033
REMARK  Name = 
REMARK  0 active torsions:
REMARK  status: ('A' for Active; 'I' for Inactive)
REMARK                            x       y       z     vdW  Elec       q    Type
REMARK                         _______ _______ _______ _____ _____    ______ ____
ROOT
ATOM      1  C   UNL     1       2.754   2.190  20.674  0.00  0.00    +0.000 A 
ATOM      2  C   UNL     1       1.493   2.671  21.023  0.00  0.00    +0.000 A 
ATOM      3  C   UNL     1       1.260   4.044  21.031  0.00  0.00    +0.000 A 
ATOM      4  C   UNL     1       2.274   4.929  20.641  0.00  0.00    +0.000 A 
ATOM      5  C   UNL     1       3.512   4.450  20.149  0.00  0.00    +0.000 A 
ATOM      6  C   UNL     1       3.762   3.073  20.255  0.00  0.00    +0.000 A 
ATOM      7  N   UNL     1       4.476   5.290  19.461  0.00  0.00    +0.000 N 
ATOM      8  C   UNL     1       3.840   6.210  18.392  0.00  0.00    +0.000 C 
ATOM      9  C   UNL     1       3.052   5.231  17.434  0.00  0.00    +0.000 C 
ATOM     10  C   UNL     1       3.906   4.016  17.041  0.00  0.00    +0.000 C 
ATOM     11  C   UNL     1       4.232   4.030  15.577  0.00  0.00    +0.000 C 
ATOM     12  C   UNL     1       5.494   4.865  15.447  0.00  0.00    +0.000 C 
ATOM     13  C   UNL     1       5.276   6.334  15.894  0.00  0.00    +0.000 C 
ATOM     14  C   UNL     1       4.962   6.845  17.406  0.00  0.00    +0.000 C 
ATOM     15  N   UNL     1       2.979   7.223  19.183  0.00  0.00    +0.000 N 
ATOM     16  C   UNL     1       1.983   6.334  20.486  0.00  0.00    +0.000 A 
ATOM     17  N   UNL     1       0.546   7.274  20.730  0.00  0.00    +0.000 NA
ATOM     18  C   UNL     1       0.545   8.842  19.654  0.00  0.00    +0.000 A 
ATOM     19  C   UNL     1      -0.272   9.950  19.551  0.00  0.00    +0.000 A 
ATOM     20  C   UNL     1       0.304  11.048  18.896  0.00  0.00    +0.000 A 
ATOM     21  C   UNL     1       1.573  11.043  18.238  0.00  0.00    +0.000 A 
ATOM     22  C   UNL     1       2.445   9.931  18.052  0.00  0.00    +0.000 A 
ATOM     23  C   UNL     1       2.070   8.749  18.673  0.00  0.00    +0.000 A 
ATOM     24  H   UNL     1       4.943   5.861  20.169  0.00  0.00    +0.000 HD
ENDROOT
TORSDOF 0
ENDMDL
MODEL 3
REMARK VINA RESULT:      -6.5      6.659     10.059
REMARK  Name = 
REMARK  0 active torsions:
REMARK  status: ('A' for Active; 'I' for Inactive)
REMARK                            x       y       z     vdW  Elec       q    Type
REMARK                         _______ _______ _______ _____ _____    ______ ____
ROOT
ATOM      1  C   UNL     1      -7.512  12.093  19.874  0.00  0.00    +0.000 A 
ATOM      2  C   UNL     1      -7.111  10.917  19.240  0.00  0.00    +0.000 A 
ATOM      3  C   UNL     1      -5.813  10.812  18.746  0.00  0.00    +0.000 A 
ATOM      4  C   UNL     1      -4.906  11.863  18.932  0.00  0.00    +0.000 A 
ATOM      5  C   UNL     1      -5.254  13.004  19.696  0.00  0.00    +0.000 A 
ATOM      6  C   UNL     1      -6.596  13.136  20.088  0.00  0.00    +0.000 A 
ATOM      7  N   UNL     1      -4.284  13.974  20.170  0.00  0.00    +0.000 N 
ATOM      8  C   UNL     1      -3.019  13.331  20.787  0.00  0.00    +0.000 C 
ATOM      9  C   UNL     1      -3.566  12.373  21.920  0.00  0.00    +0.000 C 
ATOM     10  C   UNL     1      -4.618  13.074  22.794  0.00  0.00    +0.000 C 
ATOM     11  C   UNL     1      -4.120  13.267  24.195  0.00  0.00    +0.000 C 
ATOM     12  C   UNL     1      -3.362  14.583  24.183  0.00  0.00    +0.000 C 
ATOM     13  C   UNL     1      -2.126  14.541  23.248  0.00  0.00    +0.000 C 
ATOM     14  C   UNL     1      -2.148  14.412  21.627  0.00  0.00    +0.000 C 
ATOM     15  N   UNL     1      -2.293  12.641  19.609  0.00  0.00    +0.000 N 
ATOM     16  C   UNL     1      -3.519  11.689  18.573  0.00  0.00    +0.000 A 
ATOM     17  N   UNL     1      -2.641  10.372  17.863  0.00  0.00    +0.000 NA
ATOM     18  C   UNL     1      -0.802  10.417  18.344  0.00  0.00    +0.000 A 
ATOM     19  C   UNL     1       0.318   9.699  17.975  0.00  0.00    +0.000 A 
ATOM     20  C   UNL     1       1.539  10.311  18.286  0.00  0.00    +0.000 A 
ATOM     21  C   UNL     1       1.691  11.510  19.050  0.00  0.00    +0.000 A 
ATOM     22  C   UNL     1       0.664  12.256  19.698  0.00  0.00    +0.000 A 
ATOM     23  C   UNL     1      -0.637  11.833  19.469  0.00  0.00    +0.000 A 
ATOM     24  H   UNL     1      -4.017  14.554  19.370  0.00  0.00    +0.000 HD
ENDROOT
TORSDOF 0
ENDMDL
MODEL 4
REMARK VINA RESULT:      -6.5     10.458     13.221
REMARK  Name = 
REMARK  0 active torsions:
REMARK  status: ('A' for Active; 'I' for Inactive)
REMARK                            x       y       z     vdW  Elec       q    Type
REMARK                         _______ _______ _______ _____ _____    ______ ____
ROOT
ATOM      1  C   UNL     1      10.434  11.045  17.732  0.00  0.00    +0.000 A 
ATOM      2  C   UNL     1       9.401  10.633  18.573  0.00  0.00    +0.000 A 
ATOM      3  C   UNL     1       9.297  11.177  19.850  0.00  0.00    +0.000 A 
ATOM      4  C   UNL     1      10.197  12.168  20.264  0.00  0.00    +0.000 A 
ATOM      5  C   UNL     1      11.162  12.698  19.373  0.00  0.00    +0.000 A 
ATOM      6  C   UNL     1      11.319  12.059  18.134  0.00  0.00    +0.000 A 
ATOM      7  N   UNL     1      11.913  13.912  19.640  0.00  0.00    +0.000 N 
ATOM      8  C   UNL     1      11.040  15.073  20.174  0.00  0.00    +0.000 C 
ATOM      9  C   UNL     1       9.903  15.253  19.090  0.00  0.00    +0.000 C 
ATOM     10  C   UNL     1      10.478  15.270  17.665  0.00  0.00    +0.000 C 
ATOM     11  C   UNL     1      10.306  16.616  17.026  0.00  0.00    +0.000 C 
ATOM     12  C   UNL     1      11.520  17.427  17.445  0.00  0.00    +0.000 C 
ATOM     13  C   UNL     1      11.582  17.642  18.980  0.00  0.00    +0.000 C 
ATOM     14  C   UNL     1      11.824  16.491  20.104  0.00  0.00    +0.000 C 
ATOM     15  N   UNL     1      10.572  14.623  21.578  0.00  0.00    +0.000 N 
ATOM     16  C   UNL     1       9.988  12.851  21.518  0.00  0.00    +0.000 A 
ATOM     17  N   UNL     1       8.793  12.688  22.765  0.00  0.00    +0.000 NA
ATOM     18  C   UNL     1       8.569  14.308  23.736  0.00  0.00    +0.000 A 
ATOM     19  C   UNL     1       7.857  14.678  24.859  0.00  0.00    +0.000 A 
ATOM     20  C   UNL     1       8.275  15.877  25.452  0.00  0.00    +0.000 A 
ATOM     21  C   UNL     1       9.253  16.769  24.911  0.00  0.00    +0.000 A 
ATOM     22  C   UNL     1       9.921  16.659  23.658  0.00  0.00    +0.000 A 
ATOM     23  C   UNL     1       9.675  15.503  22.932  0.00  0.00    +0.000 A 
ATOM     24  H   UNL     1      12.632  13.680  20.330  0.00  0.00    +0.000 HD
ENDROOT
TORSDOF 0
ENDMDL
MODEL 5
REMARK VINA RESULT:      -6.4      9.843     12.174
REMARK  Name = 
REMARK  0 active torsions:
REMARK  status: ('A' for Active; 'I' for Inactive)
REMARK                            x       y       z     vdW  Elec       q    Type
REMARK                         _______ _______ _______ _____ _____    ______ ____
ROOT
ATOM      1  C   UNL     1      12.333  17.200  20.734  0.00  0.00    +0.000 A 
ATOM      2  C   UNL     1      11.359  18.025  21.295  0.00  0.00    +0.000 A 
ATOM      3  C   UNL     1      10.086  18.063  20.733  0.00  0.00    +0.000 A 
ATOM      4  C   UNL     1       9.776  17.240  19.643  0.00  0.00    +0.000 A 
ATOM      5  C   UNL     1      10.710  16.295  19.152  0.00  0.00    +0.000 A 
ATOM      6  C   UNL     1      12.017  16.352  19.660  0.00  0.00    +0.000 A 
ATOM      7  N   UNL     1      10.356  15.225  18.236  0.00  0.00    +0.000 N 
ATOM      8  C   UNL     1       9.057  14.481  18.629  0.00  0.00    +0.000 C 
ATOM      9  C   UNL     1       9.306  13.993  20.113  0.00  0.00    +0.000 C 
ATOM     10  C   UNL     1      10.686  13.336  20.268  0.00  0.00    +0.000 C 
ATOM     11  C   UNL     1      10.560  11.873  20.570  0.00  0.00    +0.000 C 
ATOM     12  C   UNL     1      10.466  11.182  19.221  0.00  0.00    +0.000 C 
ATOM     13  C   UNL     1       9.202  11.607  18.429  0.00  0.00    +0.000 C 
ATOM     14  C   UNL     1       8.900  13.085  17.818  0.00  0.00    +0.000 C 
ATOM     15  N   UNL     1       7.920  15.511  18.436  0.00  0.00    +0.000 N 
ATOM     16  C   UNL     1       8.415  17.154  19.169  0.00  0.00    +0.000 A 
ATOM     17  N   UNL     1       6.946  17.935  19.657  0.00  0.00    +0.000 NA
ATOM     18  C   UNL     1       5.419  16.886  19.227  0.00  0.00    +0.000 A 
ATOM     19  C   UNL     1       4.054  17.083  19.290  0.00  0.00    +0.000 A 
ATOM     20  C   UNL     1       3.295  16.195  18.517  0.00  0.00    +0.000 A 
ATOM     21  C   UNL     1       3.813  15.063  17.812  0.00  0.00    +0.000 A 
ATOM     22  C   UNL     1       5.153  14.581  17.820  0.00  0.00    +0.000 A 
ATOM     23  C   UNL     1       6.079  15.359  18.499  0.00  0.00    +0.000 A 
ATOM     24  H   UNL     1      10.243  15.642  17.309  0.00  0.00    +0.000 HD
ENDROOT
TORSDOF 0
ENDMDL
MODEL 6
REMARK VINA RESULT:      -6.4      4.261      7.841
REMARK  Name = 
REMARK  0 active torsions:
REMARK  status: ('A' for Active; 'I' for Inactive)
REMARK                            x       y       z     vdW  Elec       q    Type
REMARK                         _______ _______ _______ _____ _____    ______ ____
ROOT
ATOM      1  C   UNL     1      -1.850  13.617  22.733  0.00  0.00    +0.000 A 
ATOM      2  C   UNL     1      -1.748  12.433  23.462  0.00  0.00    +0.000 A 
ATOM      3  C   UNL     1      -1.358  11.262  22.818  0.00  0.00    +0.000 A 
ATOM      4  C   UNL     1      -1.022  11.289  21.458  0.00  0.00    +0.000 A 
ATOM      5  C   UNL     1      -0.984  12.508  20.739  0.00  0.00    +0.000 A 
ATOM      6  C   UNL     1      -1.486  13.653  21.377  0.00  0.00    +0.000 A 
ATOM      7  N   UNL     1      -0.367  12.645  19.431  0.00  0.00    +0.000 N 
ATOM      8  C   UNL     1       1.019  11.964  19.329  0.00  0.00    +0.000 C 
ATOM      9  C   UNL     1       1.868  12.600  20.502  0.00  0.00    +0.000 C 
ATOM     10  C   UNL     1       1.725  14.129  20.538  0.00  0.00    +0.000 C 
ATOM     11  C   UNL     1       3.020  14.804  20.199  0.00  0.00    +0.000 C 
ATOM     12  C   UNL     1       3.039  14.917  18.684  0.00  0.00    +0.000 C 
ATOM     13  C   UNL     1       3.039  13.530  17.991  0.00  0.00    +0.000 C 
ATOM     14  C   UNL     1       1.825  12.447  18.006  0.00  0.00    +0.000 C 
ATOM     15  N   UNL     1       0.740  10.447  19.439  0.00  0.00    +0.000 N 
ATOM     16  C   UNL     1      -0.457  10.118  20.833  0.00  0.00    +0.000 A 
ATOM     17  N   UNL     1      -0.100   8.525  21.419  0.00  0.00    +0.000 NA
ATOM     18  C   UNL     1       1.297   7.708  20.420  0.00  0.00    +0.000 A 
ATOM     19  C   UNL     1       1.870   6.453  20.395  0.00  0.00    +0.000 A 
ATOM     20  C   UNL     1       2.614   6.167  19.242  0.00  0.00    +0.000 A 
ATOM     21  C   UNL     1       2.918   7.102  18.203  0.00  0.00    +0.000 A 
ATOM     22  C   UNL     1       2.603   8.491  18.173  0.00  0.00    +0.000 A 
ATOM     23  C   UNL     1       1.820   8.964  19.216  0.00  0.00    +0.000 A 
ATOM     24  H   UNL     1      -1.004  12.226  18.749  0.00  0.00    +0.000 HD
ENDROOT
TORSDOF 0
ENDMDL
MODEL 7
REMARK VINA RESULT:      -6.4      4.727      9.638
REMARK  Name = 
REMARK  0 active torsions:
REMARK  status: ('A' for Active; 'I' for Inactive)
REMARK                            x       y       z     vdW  Elec       q    Type
REMARK                         _______ _______ _______ _____ _____    ______ ____
ROOT
ATOM      1  C   UNL     1       2.116   8.008  18.828  0.00  0.00    +0.000 A 
ATOM      2  C   UNL     1       1.852   7.758  20.174  0.00  0.00    +0.000 A 
ATOM      3  C   UNL     1       1.203   8.725  20.938  0.00  0.00    +0.000 A 
ATOM      4  C   UNL     1       0.776   9.918  20.340  0.00  0.00    +0.000 A 
ATOM      5  C   UNL     1       0.909  10.126  18.946  0.00  0.00    +0.000 A 
ATOM      6  C   UNL     1       1.662   9.190  18.220  0.00  0.00    +0.000 A 
ATOM      7  N   UNL     1       0.231  11.192  18.230  0.00  0.00    +0.000 N 
ATOM      8  C   UNL     1      -1.261  11.340  18.613  0.00  0.00    +0.000 C 
ATOM      9  C   UNL     1      -1.885   9.909  18.365  0.00  0.00    +0.000 C 
ATOM     10  C   UNL     1      -1.459   9.334  17.005  0.00  0.00    +0.000 C 
ATOM     11  C   UNL     1      -2.628   9.216  16.074  0.00  0.00    +0.000 C 
ATOM     12  C   UNL     1      -2.742  10.564  15.384  0.00  0.00    +0.000 C 
ATOM     13  C   UNL     1      -3.051  11.711  16.382  0.00  0.00    +0.000 C 
ATOM     14  C   UNL     1      -2.062  12.266  17.548  0.00  0.00    +0.000 C 
ATOM     15  N   UNL     1      -1.261  11.834  20.079  0.00  0.00    +0.000 N 
ATOM     16  C   UNL     1      -0.043  10.843  21.087  0.00  0.00    +0.000 A 
ATOM     17  N   UNL     1      -0.644  10.838  22.713  0.00  0.00    +0.000 NA
ATOM     18  C   UNL     1      -2.240  11.859  22.873  0.00  0.00    +0.000 A 
ATOM     19  C   UNL     1      -3.036  12.262  23.927  0.00  0.00    +0.000 A 
ATOM     20  C   UNL     1      -3.906  13.322  23.636  0.00  0.00    +0.000 A 
ATOM     21  C   UNL     1      -4.110  13.891  22.340  0.00  0.00    +0.000 A 
ATOM     22  C   UNL     1      -3.545  13.453  21.107  0.00  0.00    +0.000 A 
ATOM     23  C   UNL     1      -2.611  12.432  21.190  0.00  0.00    +0.000 A 
ATOM     24  H   UNL     1       0.725  12.063  18.439  0.00  0.00    +0.000 HD
ENDROOT
TORSDOF 0
ENDMDL
MODEL 8
REMARK VINA RESULT:      -6.3      9.546     12.463
REMARK  Name = 
REMARK  0 active torsions:
REMARK  status: ('A' for Active; 'I' for Inactive)
REMARK                            x       y       z     vdW  Elec       q    Type
REMARK                         _______ _______ _______ _____ _____    ______ ____
ROOT
ATOM      1  C   UNL     1      10.433  11.529  17.806  0.00  0.00    +0.000 A 
ATOM      2  C   UNL     1       9.545  10.644  18.416  0.00  0.00    +0.000 A 
ATOM      3  C   UNL     1       9.264  10.779  19.773  0.00  0.00    +0.000 A 
ATOM      4  C   UNL     1       9.833  11.830  20.504  0.00  0.00    +0.000 A 
ATOM      5  C   UNL     1      10.624  12.819  19.869  0.00  0.00    +0.000 A 
ATOM      6  C   UNL     1      10.981  12.600  18.530  0.00  0.00    +0.000 A 
ATOM      7  N   UNL     1      10.990  14.074  20.500  0.00  0.00    +0.000 N 
ATOM      8  C   UNL     1       9.810  14.769  21.222  0.00  0.00    +0.000 C 
ATOM      9  C   UNL     1       8.691  14.916  20.115  0.00  0.00    +0.000 C 
ATOM     10  C   UNL     1       9.265  15.467  18.800  0.00  0.00    +0.000 C 
ATOM     11  C   UNL     1       8.728  16.835  18.504  0.00  0.00    +0.000 C 
ATOM     12  C   UNL     1       9.650  17.803  19.225  0.00  0.00    +0.000 C 
ATOM     13  C   UNL     1       9.617  17.610  20.764  0.00  0.00    +0.000 C 
ATOM     14  C   UNL     1      10.157  16.312  21.583  0.00  0.00    +0.000 C 
ATOM     15  N   UNL     1       9.463  13.852  22.418  0.00  0.00    +0.000 N 
ATOM     16  C   UNL     1       9.413  12.071  21.863  0.00  0.00    +0.000 A 
ATOM     17  N   UNL     1       8.290  11.264  22.911  0.00  0.00    +0.000 NA
ATOM     18  C   UNL     1       7.592  12.443  24.230  0.00  0.00    +0.000 A 
ATOM     19  C   UNL     1       6.782  12.293  25.337  0.00  0.00    +0.000 A 
ATOM     20  C   UNL     1       6.827  13.357  26.248  0.00  0.00    +0.000 A 
ATOM     21  C   UNL     1       7.519  14.592  26.042  0.00  0.00    +0.000 A 
ATOM     22  C   UNL     1       8.215  15.005  24.869  0.00  0.00    +0.000 A 
ATOM     23  C   UNL     1       8.325  14.062  23.858  0.00  0.00    +0.000 A 
ATOM     24  H   UNL     1      11.731  13.871  21.176  0.00  0.00    +0.000 HD
ENDROOT
TORSDOF 0
ENDMDL
MODEL 9
REMARK VINA RESULT:      -6.3      9.703     12.568
REMARK  Name = 
REMARK  0 active torsions:
REMARK  status: ('A' for Active; 'I' for Inactive)
REMARK                            x       y       z     vdW  Elec       q    Type
REMARK                         _______ _______ _______ _____ _____    ______ ____
ROOT
ATOM      1  C   UNL     1      11.665  12.600  17.522  0.00  0.00    +0.000 A 
ATOM      2  C   UNL     1      10.890  11.488  17.852  0.00  0.00    +0.000 A 
ATOM      3  C   UNL     1      10.349  11.384  19.130  0.00  0.00    +0.000 A 
ATOM      4  C   UNL     1      10.544  12.414  20.060  0.00  0.00    +0.000 A 
ATOM      5  C   UNL     1      11.208  13.611  19.696  0.00  0.00    +0.000 A 
ATOM      6  C   UNL     1      11.837  13.647  18.441  0.00  0.00    +0.000 A 
ATOM      7  N   UNL     1      11.182  14.816  20.505  0.00  0.00    +0.000 N 
ATOM      8  C   UNL     1       9.773  15.172  21.037  0.00  0.00    +0.000 C 
ATOM      9  C   UNL     1       8.864  15.253  19.746  0.00  0.00    +0.000 C 
ATOM     10  C   UNL     1       9.534  16.075  18.634  0.00  0.00    +0.000 C 
ATOM     11  C   UNL     1       8.781  17.345  18.368  0.00  0.00    +0.000 C 
ATOM     12  C   UNL     1       9.335  18.363  19.350  0.00  0.00    +0.000 C 
ATOM     13  C   UNL     1       9.069  17.961  20.824  0.00  0.00    +0.000 C 
ATOM     14  C   UNL     1       9.716  16.690  21.607  0.00  0.00    +0.000 C 
ATOM     15  N   UNL     1       9.420  14.053  22.045  0.00  0.00    +0.000 N 
ATOM     16  C   UNL     1       9.846  12.386  21.323  0.00  0.00    +0.000 A 
ATOM     17  N   UNL     1       8.751  11.248  22.039  0.00  0.00    +0.000 NA
ATOM     18  C   UNL     1       7.596  12.085  23.296  0.00  0.00    +0.000 A 
ATOM     19  C   UNL     1       6.651  11.637  24.198  0.00  0.00    +0.000 A 
ATOM     20  C   UNL     1       6.307  12.557  25.197  0.00  0.00    +0.000 A 
ATOM     21  C   UNL     1       6.749  13.916  25.255  0.00  0.00    +0.000 A 
ATOM     22  C   UNL     1       7.539  14.608  24.292  0.00  0.00    +0.000 A 
ATOM     23  C   UNL     1       8.024  13.849  23.238  0.00  0.00    +0.000 A 
ATOM     24  H   UNL     1      11.817  14.667  21.294  0.00  0.00    +0.000 HD
ENDROOT
TORSDOF 0
ENDMDL
