MODEL 1
REMARK VINA RESULT:      -8.8      0.000      0.000
REMARK  Name = 
REMARK  7 active torsions:
REMARK  status: ('A' for Active; 'I' for Inactive)
REMARK    1  A    between atoms: C_1  and  C_2
REMARK    2  A    between atoms: C_2  and  C_3
REMARK    3  A    between atoms: C_3  and  O_4
REMARK    4  A    between atoms: C_3  and  N_5
REMARK    5  A    between atoms: C_3  and  C_24
REMARK    6  A    between atoms: N_5  and  C_6
REMARK    7  A    between atoms: C_10  and  C_12
REMARK                            x       y       z     vdW  Elec       q    Type
REMARK                         _______ _______ _______ _____ _____    ______ ____
ROOT
ATOM      1  C   UNL     1       2.355   4.747  19.330  0.00  0.00    +0.000 C 
ATOM      2  C   UNL     1       2.211   5.679  18.117  0.00  0.00    +0.000 C 
ATOM      3  C   UNL     1       2.542   7.125  18.428  0.00  0.00    +0.000 C 
ATOM      4  N   UNL     1       1.679   7.650  19.472  0.00  0.00    +0.000 N 
ATOM      5  C   UNL     1       1.501   9.039  19.434  0.00  0.00    +0.000 C 
ATOM      6  O   UNL     1       2.020   9.760  18.576  0.00  0.00    +0.000 OA
ATOM      7  C   UNL     1       1.652   6.845  20.704  0.00  0.00    +0.000 C 
ATOM      8  C   UNL     1       1.459   5.343  20.445  0.00  0.00    +0.000 C 
ENDROOT
BRANCH   5   9
ATOM      9  C   UNL     1       0.656   9.716  20.444  0.00  0.00    +0.000 A 
ATOM     10  C   UNL     1       0.712   9.373  21.795  0.00  0.00    +0.000 A 
ATOM     11  C   UNL     1      -0.077  10.062  22.717  0.00  0.00    +0.000 A 
ATOM     12  C   UNL     1      -0.972  11.056  22.292  0.00  0.00    +0.000 A 
ATOM     13  C   UNL     1      -1.760  11.764  23.209  0.00  0.00    +0.000 A 
ATOM     14  C   UNL     1      -2.671  12.726  22.772  0.00  0.00    +0.000 A 
ATOM     15  C   UNL     1      -2.812  12.987  21.412  0.00  0.00    +0.000 A 
ATOM     16  C   UNL     1      -2.027  12.299  20.486  0.00  0.00    +0.000 A 
ATOM     17  C   UNL     1      -1.095  11.342  20.912  0.00  0.00    +0.000 A 
ATOM     18  C   UNL     1      -0.274  10.666  20.000  0.00  0.00    +0.000 A 
ENDBRANCH   5   9
BRANCH   1  19
ATOM     19  N   UNL     1       3.724   4.477  19.836  0.00  0.00    +0.000 NA
ATOM     20  H   UNL     1       4.176   5.346  20.099  0.00  0.00    +0.000 HD
BRANCH  19  21
ATOM     21  C   UNL     1       4.616   3.699  18.956  0.00  0.00    +0.000 C 
BRANCH  21  22
ATOM     22  C   UNL     1       5.727   4.534  18.281  0.00  0.00    +0.000 A 
ATOM     23  C   UNL     1       5.749   4.641  16.871  0.00  0.00    +0.000 A 
ATOM     24  C   UNL     1       6.550   5.581  16.218  0.00  0.00    +0.000 A 
ATOM     25  C   UNL     1       7.357   6.432  16.961  0.00  0.00    +0.000 A 
ATOM     26  C   UNL     1       7.386   6.323  18.349  0.00  0.00    +0.000 A 
ATOM     27  C   UNL     1       6.586   5.376  19.007  0.00  0.00    +0.000 A 
ENDBRANCH  21  22
BRANCH  21  29
ATOM     28  C   UNL     1       3.487   1.507  18.142  0.00  0.00    +0.000 C 
ATOM     29  C   UNL     1       3.941   2.924  17.796  0.00  0.00    +0.000 C 
ENDBRANCH  21  29
BRANCH  21  30
ATOM     30  O   UNL     1       5.272   2.751  19.786  0.00  0.00    +0.000 OA
ATOM     31  H   UNL     1       6.163   3.127  19.882  0.00  0.00    +0.000 HD
ENDBRANCH  21  30
ENDBRANCH  19  21
ENDBRANCH   1  19
TORSDOF 6
ENDMDL
MODEL 2
REMARK VINA RESULT:      -8.7      0.876      1.507
REMARK  Name = 
REMARK  7 active torsions:
REMARK  status: ('A' for Active; 'I' for Inactive)
REMARK    1  A    between atoms: C_1  and  C_2
REMARK    2  A    between atoms: C_2  and  C_3
REMARK    3  A    between atoms: C_3  and  O_4
REMARK    4  A    between atoms: C_3  and  N_5
REMARK    5  A    between atoms: C_3  and  C_24
REMARK    6  A    between atoms: N_5  and  C_6
REMARK    7  A    between atoms: C_10  and  C_12
REMARK                            x       y       z     vdW  Elec       q    Type
REMARK                         _______ _______ _______ _____ _____    ______ ____
ROOT
ATOM      1  C   UNL     1       2.344   4.778  19.519  0.00  0.00    +0.000 C 
ATOM      2  C   UNL     1       2.089   5.331  18.108  0.00  0.00    +0.000 C 
ATOM      3  C   UNL     1       2.575   6.755  17.925  0.00  0.00    +0.000 C 
ATOM      4  N   UNL     1       1.925   7.658  18.859  0.00  0.00    +0.000 N 
ATOM      5  C   UNL     1       1.851   8.988  18.425  0.00  0.00    +0.000 C 
ATOM      6  O   UNL     1       2.287   9.363  17.333  0.00  0.00    +0.000 OA
ATOM      7  C   UNL     1       2.024   7.251  20.270  0.00  0.00    +0.000 C 
ATOM      8  C   UNL     1       1.677   5.772  20.502  0.00  0.00    +0.000 C 
ENDROOT
BRANCH   5   9
ATOM      9  C   UNL     1       1.225  10.022  19.279  0.00  0.00    +0.000 A 
ATOM     10  C   UNL     1       1.357  11.383  19.000  0.00  0.00    +0.000 A 
ATOM     11  C   UNL     1       0.719  12.321  19.811  0.00  0.00    +0.000 A 
ATOM     12  C   UNL     1      -0.006  11.915  20.942  0.00  0.00    +0.000 A 
ATOM     13  C   UNL     1      -0.662  12.847  21.758  0.00  0.00    +0.000 A 
ATOM     14  C   UNL     1      -1.350  12.434  22.899  0.00  0.00    +0.000 A 
ATOM     15  C   UNL     1      -1.385  11.086  23.244  0.00  0.00    +0.000 A 
ATOM     16  C   UNL     1      -0.747  10.144  22.437  0.00  0.00    +0.000 A 
ATOM     17  C   UNL     1      -0.066  10.542  21.278  0.00  0.00    +0.000 A 
ATOM     18  C   UNL     1       0.552   9.607  20.437  0.00  0.00    +0.000 A 
ENDBRANCH   5   9
BRANCH   1  19
ATOM     19  N   UNL     1       3.749   4.504  19.910  0.00  0.00    +0.000 NA
ATOM     20  H   UNL     1       4.230   5.374  20.112  0.00  0.00    +0.000 HD
BRANCH  19  21
ATOM     21  C   UNL     1       4.554   3.696  18.976  0.00  0.00    +0.000 C 
BRANCH  21  22
ATOM     22  C   UNL     1       5.651   4.490  18.233  0.00  0.00    +0.000 A 
ATOM     23  C   UNL     1       5.616   4.561  16.821  0.00  0.00    +0.000 A 
ATOM     24  C   UNL     1       6.406   5.468  16.110  0.00  0.00    +0.000 A 
ATOM     25  C   UNL     1       7.261   6.320  16.796  0.00  0.00    +0.000 A 
ATOM     26  C   UNL     1       7.347   6.245  18.185  0.00  0.00    +0.000 A 
ATOM     27  C   UNL     1       6.558   5.331  18.900  0.00  0.00    +0.000 A 
ENDBRANCH  21  22
BRANCH  21  29
ATOM     28  C   UNL     1       3.454   1.488  18.161  0.00  0.00    +0.000 C 
ATOM     29  C   UNL     1       3.779   2.950  17.859  0.00  0.00    +0.000 C 
ENDBRANCH  21  29
BRANCH  21  30
ATOM     30  O   UNL     1       5.224   2.720  19.761  0.00  0.00    +0.000 OA
ATOM     31  H   UNL     1       4.549   2.464  20.411  0.00  0.00    +0.000 HD
ENDBRANCH  21  30
ENDBRANCH  19  21
ENDBRANCH   1  19
TORSDOF 6
ENDMDL
MODEL 3
REMARK VINA RESULT:      -8.7      1.957      9.253
REMARK  Name = 
REMARK  7 active torsions:
REMARK  status: ('A' for Active; 'I' for Inactive)
REMARK    1  A    between atoms: C_1  and  C_2
REMARK    2  A    between atoms: C_2  and  C_3
REMARK    3  A    between atoms: C_3  and  O_4
REMARK    4  A    between atoms: C_3  and  N_5
REMARK    5  A    between atoms: C_3  and  C_24
REMARK    6  A    between atoms: N_5  and  C_6
REMARK    7  A    between atoms: C_10  and  C_12
REMARK                            x       y       z     vdW  Elec       q    Type
REMARK                         _______ _______ _______ _____ _____    ______ ____
ROOT
ATOM      1  C   UNL     1       1.542   6.749  19.721  0.00  0.00    +0.000 C 
ATOM      2  C   UNL     1       1.865   5.291  20.081  0.00  0.00    +0.000 C 
ATOM      3  C   UNL     1       3.348   4.977  20.044  0.00  0.00    +0.000 C 
ATOM      4  N   UNL     1       3.904   5.221  18.725  0.00  0.00    +0.000 N 
ATOM      5  C   UNL     1       5.043   4.463  18.425  0.00  0.00    +0.000 C 
ATOM      6  O   UNL     1       5.528   3.641  19.208  0.00  0.00    +0.000 OA
ATOM      7  C   UNL     1       3.643   6.569  18.192  0.00  0.00    +0.000 C 
ATOM      8  C   UNL     1       2.175   7.003  18.331  0.00  0.00    +0.000 C 
ENDROOT
BRANCH   5   9
ATOM      9  C   UNL     1       5.724   4.615  17.120  0.00  0.00    +0.000 A 
ATOM     10  C   UNL     1       6.863   5.408  16.975  0.00  0.00    +0.000 A 
ATOM     11  C   UNL     1       7.494   5.494  15.734  0.00  0.00    +0.000 A 
ATOM     12  C   UNL     1       6.961   4.839  14.613  0.00  0.00    +0.000 A 
ATOM     13  C   UNL     1       7.591   4.907  13.363  0.00  0.00    +0.000 A 
ATOM     14  C   UNL     1       7.033   4.281  12.248  0.00  0.00    +0.000 A 
ATOM     15  C   UNL     1       5.833   3.586  12.366  0.00  0.00    +0.000 A 
ATOM     16  C   UNL     1       5.198   3.499  13.605  0.00  0.00    +0.000 A 
ATOM     17  C   UNL     1       5.756   4.108  14.738  0.00  0.00    +0.000 A 
ATOM     18  C   UNL     1       5.150   4.003  15.997  0.00  0.00    +0.000 A 
ENDBRANCH   5   9
BRANCH   1  19
ATOM     19  N   UNL     1       1.939   7.804  20.688  0.00  0.00    +0.000 NA
ATOM     20  H   UNL     1       2.436   7.390  21.469  0.00  0.00    +0.000 HD
BRANCH  19  21
ATOM     21  C   UNL     1       0.867   8.684  21.188  0.00  0.00    +0.000 C 
BRANCH  21  22
ATOM     22  C   UNL     1       0.545   9.879  20.263  0.00  0.00    +0.000 A 
ATOM     23  C   UNL     1      -0.627   9.843  19.472  0.00  0.00    +0.000 A 
ATOM     24  C   UNL     1      -1.113  10.982  18.826  0.00  0.00    +0.000 A 
ATOM     25  C   UNL     1      -0.431  12.186  18.947  0.00  0.00    +0.000 A 
ATOM     26  C   UNL     1       0.749  12.242  19.686  0.00  0.00    +0.000 A 
ATOM     27  C   UNL     1       1.241  11.097  20.332  0.00  0.00    +0.000 A 
ENDBRANCH  21  22
BRANCH  21  29
ATOM     28  C   UNL     1      -0.196   9.685  23.335  0.00  0.00    +0.000 C 
ATOM     29  C   UNL     1       1.083   9.313  22.588  0.00  0.00    +0.000 C 
ENDBRANCH  21  29
BRANCH  21  30
ATOM     30  O   UNL     1      -0.310   7.891  21.247  0.00  0.00    +0.000 OA
ATOM     31  H   UNL     1      -0.008   7.029  20.915  0.00  0.00    +0.000 HD
ENDBRANCH  21  30
ENDBRANCH  19  21
ENDBRANCH   1  19
TORSDOF 6
ENDMDL
MODEL 4
REMARK VINA RESULT:      -8.6      1.057      1.852
REMARK  Name = 
REMARK  7 active torsions:
REMARK  status: ('A' for Active; 'I' for Inactive)
REMARK    1  A    between atoms: C_1  and  C_2
REMARK    2  A    between atoms: C_2  and  C_3
REMARK    3  A    between atoms: C_3  and  O_4
REMARK    4  A    between atoms: C_3  and  N_5
REMARK    5  A    between atoms: C_3  and  C_24
REMARK    6  A    between atoms: N_5  and  C_6
REMARK    7  A    between atoms: C_10  and  C_12
REMARK                            x       y       z     vdW  Elec       q    Type
REMARK                         _______ _______ _______ _____ _____    ______ ____
ROOT
ATOM      1  C   UNL     1       2.316   4.767  19.426  0.00  0.00    +0.000 C 
ATOM      2  C   UNL     1       1.935   5.315  18.042  0.00  0.00    +0.000 C 
ATOM      3  C   UNL     1       2.415   6.733  17.805  0.00  0.00    +0.000 C 
ATOM      4  N   UNL     1       1.864   7.647  18.790  0.00  0.00    +0.000 N 
ATOM      5  C   UNL     1       1.763   8.976  18.357  0.00  0.00    +0.000 C 
ATOM      6  O   UNL     1       2.098   9.341  17.226  0.00  0.00    +0.000 OA
ATOM      7  C   UNL     1       2.092   7.247  20.188  0.00  0.00    +0.000 C 
ATOM      8  C   UNL     1       1.755   5.773  20.461  0.00  0.00    +0.000 C 
ENDROOT
BRANCH   5   9
ATOM      9  C   UNL     1       1.229  10.021  19.259  0.00  0.00    +0.000 A 
ATOM     10  C   UNL     1       1.522  11.372  19.070  0.00  0.00    +0.000 A 
ATOM     11  C   UNL     1       0.968  12.326  19.923  0.00  0.00    +0.000 A 
ATOM     12  C   UNL     1       0.166  11.937  21.008  0.00  0.00    +0.000 A 
ATOM     13  C   UNL     1      -0.407  12.886  21.866  0.00  0.00    +0.000 A 
ATOM     14  C   UNL     1      -1.173  12.486  22.961  0.00  0.00    +0.000 A 
ATOM     15  C   UNL     1      -1.369  11.133  23.219  0.00  0.00    +0.000 A 
ATOM     16  C   UNL     1      -0.815  10.175  22.369  0.00  0.00    +0.000 A 
ATOM     17  C   UNL     1      -0.057  10.562  21.254  0.00  0.00    +0.000 A 
ATOM     18  C   UNL     1       0.479   9.615  20.371  0.00  0.00    +0.000 A 
ENDBRANCH   5   9
BRANCH   1  19
ATOM     19  N   UNL     1       3.749   4.480  19.685  0.00  0.00    +0.000 NA
ATOM     20  H   UNL     1       4.268   5.348  19.769  0.00  0.00    +0.000 HD
BRANCH  19  21
ATOM     21  C   UNL     1       4.430   3.583  18.735  0.00  0.00    +0.000 C 
BRANCH  21  22
ATOM     22  C   UNL     1       5.223   4.315  17.628  0.00  0.00    +0.000 A 
ATOM     23  C   UNL     1       6.224   5.243  17.996  0.00  0.00    +0.000 A 
ATOM     24  C   UNL     1       7.147   5.734  17.070  0.00  0.00    +0.000 A 
ATOM     25  C   UNL     1       7.084   5.315  15.747  0.00  0.00    +0.000 A 
ATOM     26  C   UNL     1       6.083   4.432  15.347  0.00  0.00    +0.000 A 
ATOM     27  C   UNL     1       5.152   3.942  16.275  0.00  0.00    +0.000 A 
ENDBRANCH  21  22
BRANCH  21  29
ATOM     28  C   UNL     1       3.383   1.208  18.656  0.00  0.00    +0.000 C 
ATOM     29  C   UNL     1       3.537   2.568  17.977  0.00  0.00    +0.000 C 
ENDBRANCH  21  29
BRANCH  21  30
ATOM     30  O   UNL     1       5.381   2.843  19.489  0.00  0.00    +0.000 OA
ATOM     31  H   UNL     1       6.221   3.058  19.049  0.00  0.00    +0.000 HD
ENDBRANCH  21  30
ENDBRANCH  19  21
ENDBRANCH   1  19
TORSDOF 6
ENDMDL
MODEL 5
REMARK VINA RESULT:      -8.6      0.975      1.000
REMARK  Name = 
REMARK  7 active torsions:
REMARK  status: ('A' for Active; 'I' for Inactive)
REMARK    1  A    between atoms: C_1  and  C_2
REMARK    2  A    between atoms: C_2  and  C_3
REMARK    3  A    between atoms: C_3  and  O_4
REMARK    4  A    between atoms: C_3  and  N_5
REMARK    5  A    between atoms: C_3  and  C_24
REMARK    6  A    between atoms: N_5  and  C_6
REMARK    7  A    between atoms: C_10  and  C_12
REMARK                            x       y       z     vdW  Elec       q    Type
REMARK                         _______ _______ _______ _____ _____    ______ ____
ROOT
ATOM      1  C   UNL     1       2.385   4.786  19.448  0.00  0.00    +0.000 C 
ATOM      2  C   UNL     1       2.158   5.597  18.163  0.00  0.00    +0.000 C 
ATOM      3  C   UNL     1       2.526   7.061  18.303  0.00  0.00    +0.000 C 
ATOM      4  N   UNL     1       1.750   7.700  19.352  0.00  0.00    +0.000 N 
ATOM      5  C   UNL     1       1.582   9.082  19.189  0.00  0.00    +0.000 C 
ATOM      6  O   UNL     1       2.041   9.705  18.228  0.00  0.00    +0.000 OA
ATOM      7  C   UNL     1       1.810   7.020  20.656  0.00  0.00    +0.000 C 
ATOM      8  C   UNL     1       1.583   5.504  20.562  0.00  0.00    +0.000 C 
ENDROOT
BRANCH   5   9
ATOM      9  C   UNL     1       0.823   9.868  20.187  0.00  0.00    +0.000 A 
ATOM     10  C   UNL     1      -0.112   9.271  21.033  0.00  0.00    +0.000 A 
ATOM     11  C   UNL     1      -0.779  10.044  21.984  0.00  0.00    +0.000 A 
ATOM     12  C   UNL     1      -0.563  11.430  22.059  0.00  0.00    +0.000 A 
ATOM     13  C   UNL     1      -1.217  12.216  23.017  0.00  0.00    +0.000 A 
ATOM     14  C   UNL     1      -1.021  13.597  23.060  0.00  0.00    +0.000 A 
ATOM     15  C   UNL     1      -0.176  14.211  22.140  0.00  0.00    +0.000 A 
ATOM     16  C   UNL     1       0.491  13.441  21.186  0.00  0.00    +0.000 A 
ATOM     17  C   UNL     1       0.318  12.050  21.142  0.00  0.00    +0.000 A 
ATOM     18  C   UNL     1       1.005  11.258  20.213  0.00  0.00    +0.000 A 
ENDBRANCH   5   9
BRANCH   1  19
ATOM     19  N   UNL     1       3.787   4.544  19.874  0.00  0.00    +0.000 NA
ATOM     20  H   UNL     1       4.240   5.424  20.095  0.00  0.00    +0.000 HD
BRANCH  19  21
ATOM     21  C   UNL     1       4.635   3.764  18.955  0.00  0.00    +0.000 C 
BRANCH  21  22
ATOM     22  C   UNL     1       5.752   4.584  18.273  0.00  0.00    +0.000 A 
ATOM     23  C   UNL     1       5.755   4.709  16.864  0.00  0.00    +0.000 A 
ATOM     24  C   UNL     1       6.564   5.640  16.210  0.00  0.00    +0.000 A 
ATOM     25  C   UNL     1       7.401   6.465  16.950  0.00  0.00    +0.000 A 
ATOM     26  C   UNL     1       7.450   6.336  18.337  0.00  0.00    +0.000 A 
ATOM     27  C   UNL     1       6.641   5.398  18.995  0.00  0.00    +0.000 A 
ENDBRANCH  21  22
BRANCH  21  29
ATOM     28  C   UNL     1       3.452   1.613  18.107  0.00  0.00    +0.000 C 
ATOM     29  C   UNL     1       3.912   3.035  17.793  0.00  0.00    +0.000 C 
ENDBRANCH  21  29
BRANCH  21  30
ATOM     30  O   UNL     1       5.284   2.777  19.745  0.00  0.00    +0.000 OA
ATOM     31  H   UNL     1       5.674   3.300  20.466  0.00  0.00    +0.000 HD
ENDBRANCH  21  30
ENDBRANCH  19  21
ENDBRANCH   1  19
TORSDOF 6
ENDMDL
MODEL 6
REMARK VINA RESULT:      -8.5      2.553      4.259
REMARK  Name = 
REMARK  7 active torsions:
REMARK  status: ('A' for Active; 'I' for Inactive)
REMARK    1  A    between atoms: C_1  and  C_2
REMARK    2  A    between atoms: C_2  and  C_3
REMARK    3  A    between atoms: C_3  and  O_4
REMARK    4  A    between atoms: C_3  and  N_5
REMARK    5  A    between atoms: C_3  and  C_24
REMARK    6  A    between atoms: N_5  and  C_6
REMARK    7  A    between atoms: C_10  and  C_12
REMARK                            x       y       z     vdW  Elec       q    Type
REMARK                         _______ _______ _______ _____ _____    ______ ____
ROOT
ATOM      1  C   UNL     1       3.195   6.536  18.394  0.00  0.00    +0.000 C 
ATOM      2  C   UNL     1       2.975   6.681  19.908  0.00  0.00    +0.000 C 
ATOM      3  C   UNL     1       1.636   7.297  20.264  0.00  0.00    +0.000 C 
ATOM      4  N   UNL     1       1.496   8.622  19.686  0.00  0.00    +0.000 N 
ATOM      5  C   UNL     1       0.622   9.469  20.381  0.00  0.00    +0.000 C 
ATOM      6  O   UNL     1       0.031   9.127  21.409  0.00  0.00    +0.000 OA
ATOM      7  C   UNL     1       1.727   8.682  18.233  0.00  0.00    +0.000 C 
ATOM      8  C   UNL     1       3.004   7.950  17.791  0.00  0.00    +0.000 C 
ENDROOT
BRANCH   5   9
ATOM      9  C   UNL     1       0.373  10.847  19.900  0.00  0.00    +0.000 A 
ATOM     10  C   UNL     1      -0.747  11.164  19.131  0.00  0.00    +0.000 A 
ATOM     11  C   UNL     1      -0.961  12.483  18.731  0.00  0.00    +0.000 A 
ATOM     12  C   UNL     1      -0.030  13.486  19.042  0.00  0.00    +0.000 A 
ATOM     13  C   UNL     1      -0.239  14.817  18.657  0.00  0.00    +0.000 A 
ATOM     14  C   UNL     1       0.710  15.799  18.943  0.00  0.00    +0.000 A 
ATOM     15  C   UNL     1       1.885  15.462  19.609  0.00  0.00    +0.000 A 
ATOM     16  C   UNL     1       2.104  14.143  20.009  0.00  0.00    +0.000 A 
ATOM     17  C   UNL     1       1.151  13.149  19.745  0.00  0.00    +0.000 A 
ATOM     18  C   UNL     1       1.339  11.827  20.169  0.00  0.00    +0.000 A 
ENDBRANCH   5   9
BRANCH   1  19
ATOM     19  N   UNL     1       2.376   5.533  17.669  0.00  0.00    +0.000 NA
ATOM     20  H   UNL     1       1.405   5.603  17.956  0.00  0.00    +0.000 HD
BRANCH  19  21
ATOM     21  C   UNL     1       2.819   4.129  17.750  0.00  0.00    +0.000 C 
BRANCH  21  22
ATOM     22  C   UNL     1       2.436   3.419  19.068  0.00  0.00    +0.000 A 
ATOM     23  C   UNL     1       3.461   2.968  19.932  0.00  0.00    +0.000 A 
ATOM     24  C   UNL     1       3.194   2.565  21.242  0.00  0.00    +0.000 A 
ATOM     25  C   UNL     1       1.889   2.593  21.718  0.00  0.00    +0.000 A 
ATOM     26  C   UNL     1       0.853   2.994  20.877  0.00  0.00    +0.000 A 
ATOM     27  C   UNL     1       1.120   3.395  19.559  0.00  0.00    +0.000 A 
ENDBRANCH  21  22
BRANCH  21  29
ATOM     28  C   UNL     1       4.909   4.211  16.212  0.00  0.00    +0.000 C 
ATOM     29  C   UNL     1       4.339   3.871  17.587  0.00  0.00    +0.000 C 
ENDBRANCH  21  29
BRANCH  21  30
ATOM     30  O   UNL     1       2.148   3.434  16.708  0.00  0.00    +0.000 OA
ATOM     31  H   UNL     1       2.422   2.513  16.851  0.00  0.00    +0.000 HD
ENDBRANCH  21  30
ENDBRANCH  19  21
ENDBRANCH   1  19
TORSDOF 6
ENDMDL
MODEL 7
REMARK VINA RESULT:      -8.4      0.643      1.170
REMARK  Name = 
REMARK  7 active torsions:
REMARK  status: ('A' for Active; 'I' for Inactive)
REMARK    1  A    between atoms: C_1  and  C_2
REMARK    2  A    between atoms: C_2  and  C_3
REMARK    3  A    between atoms: C_3  and  O_4
REMARK    4  A    between atoms: C_3  and  N_5
REMARK    5  A    between atoms: C_3  and  C_24
REMARK    6  A    between atoms: N_5  and  C_6
REMARK    7  A    between atoms: C_10  and  C_12
REMARK                            x       y       z     vdW  Elec       q    Type
REMARK                         _______ _______ _______ _____ _____    ______ ____
ROOT
ATOM      1  C   UNL     1       2.209   4.627  19.174  0.00  0.00    +0.000 C 
ATOM      2  C   UNL     1       2.087   5.595  17.987  0.00  0.00    +0.000 C 
ATOM      3  C   UNL     1       2.478   7.019  18.330  0.00  0.00    +0.000 C 
ATOM      4  N   UNL     1       1.649   7.549  19.398  0.00  0.00    +0.000 N 
ATOM      5  C   UNL     1       1.525   8.945  19.398  0.00  0.00    +0.000 C 
ATOM      6  O   UNL     1       2.062   9.667  18.552  0.00  0.00    +0.000 OA
ATOM      7  C   UNL     1       1.605   6.715  20.610  0.00  0.00    +0.000 C 
ATOM      8  C   UNL     1       1.350   5.228  20.315  0.00  0.00    +0.000 C 
ENDROOT
BRANCH   5   9
ATOM      9  C   UNL     1       0.719   9.627  20.435  0.00  0.00    +0.000 A 
ATOM     10  C   UNL     1       0.808   9.275  21.782  0.00  0.00    +0.000 A 
ATOM     11  C   UNL     1       0.056   9.969  22.730  0.00  0.00    +0.000 A 
ATOM     12  C   UNL     1      -0.835  10.981  22.337  0.00  0.00    +0.000 A 
ATOM     13  C   UNL     1      -1.587  11.694  23.280  0.00  0.00    +0.000 A 
ATOM     14  C   UNL     1      -2.494  12.673  22.875  0.00  0.00    +0.000 A 
ATOM     15  C   UNL     1      -2.670  12.944  21.521  0.00  0.00    +0.000 A 
ATOM     16  C   UNL     1      -1.922  12.251  20.569  0.00  0.00    +0.000 A 
ATOM     17  C   UNL     1      -0.993  11.277  20.962  0.00  0.00    +0.000 A 
ATOM     18  C   UNL     1      -0.209  10.595  20.023  0.00  0.00    +0.000 A 
ENDBRANCH   5   9
BRANCH   1  19
ATOM     19  N   UNL     1       3.572   4.291  19.655  0.00  0.00    +0.000 NA
ATOM     20  H   UNL     1       4.106   5.140  19.810  0.00  0.00    +0.000 HD
BRANCH  19  21
ATOM     21  C   UNL     1       4.356   3.354  18.829  0.00  0.00    +0.000 C 
BRANCH  21  22
ATOM     22  C   UNL     1       5.186   4.032  17.716  0.00  0.00    +0.000 A 
ATOM     23  C   UNL     1       6.428   4.622  18.044  0.00  0.00    +0.000 A 
ATOM     24  C   UNL     1       7.341   5.009  17.060  0.00  0.00    +0.000 A 
ATOM     25  C   UNL     1       7.027   4.825  15.719  0.00  0.00    +0.000 A 
ATOM     26  C   UNL     1       5.792   4.283  15.365  0.00  0.00    +0.000 A 
ATOM     27  C   UNL     1       4.873   3.898  16.353  0.00  0.00    +0.000 A 
ENDBRANCH  21  22
BRANCH  21  29
ATOM     28  C   UNL     1       2.380   1.670  18.893  0.00  0.00    +0.000 C 
ATOM     29  C   UNL     1       3.562   2.235  18.108  0.00  0.00    +0.000 C 
ENDBRANCH  21  29
BRANCH  21  30
ATOM     30  O   UNL     1       5.287   2.729  19.702  0.00  0.00    +0.000 OA
ATOM     31  H   UNL     1       4.876   1.866  19.875  0.00  0.00    +0.000 HD
ENDBRANCH  21  30
ENDBRANCH  19  21
ENDBRANCH   1  19
TORSDOF 6
ENDMDL
MODEL 8
REMARK VINA RESULT:      -8.4      1.476      1.838
REMARK  Name = 
REMARK  7 active torsions:
REMARK  status: ('A' for Active; 'I' for Inactive)
REMARK    1  A    between atoms: C_1  and  C_2
REMARK    2  A    between atoms: C_2  and  C_3
REMARK    3  A    between atoms: C_3  and  O_4
REMARK    4  A    between atoms: C_3  and  N_5
REMARK    5  A    between atoms: C_3  and  C_24
REMARK    6  A    between atoms: N_5  and  C_6
REMARK    7  A    between atoms: C_10  and  C_12
REMARK                            x       y       z     vdW  Elec       q    Type
REMARK                         _______ _______ _______ _____ _____    ______ ____
ROOT
ATOM      1  C   UNL     1       2.379   4.999  19.272  0.00  0.00    +0.000 C 
ATOM      2  C   UNL     1       1.989   5.649  17.936  0.00  0.00    +0.000 C 
ATOM      3  C   UNL     1       2.386   7.109  17.840  0.00  0.00    +0.000 C 
ATOM      4  N   UNL     1       1.763   7.893  18.891  0.00  0.00    +0.000 N 
ATOM      5  C   UNL     1       1.589   9.248  18.579  0.00  0.00    +0.000 C 
ATOM      6  O   UNL     1       1.921   9.735  17.494  0.00  0.00    +0.000 OA
ATOM      7  C   UNL     1       1.990   7.380  20.253  0.00  0.00    +0.000 C 
ATOM      8  C   UNL     1       1.739   5.870  20.382  0.00  0.00    +0.000 C 
ENDROOT
BRANCH   5   9
ATOM      9  C   UNL     1       0.977  10.172  19.560  0.00  0.00    +0.000 A 
ATOM     10  C   UNL     1      -0.090   9.781  20.369  0.00  0.00    +0.000 A 
ATOM     11  C   UNL     1      -0.613  10.673  21.306  0.00  0.00    +0.000 A 
ATOM     12  C   UNL     1      -0.116  11.982  21.403  0.00  0.00    +0.000 A 
ATOM     13  C   UNL     1      -0.623  12.884  22.347  0.00  0.00    +0.000 A 
ATOM     14  C   UNL     1      -0.145  14.193  22.411  0.00  0.00    +0.000 A 
ATOM     15  C   UNL     1       0.840  14.621  21.525  0.00  0.00    +0.000 A 
ATOM     16  C   UNL     1       1.363  13.732  20.585  0.00  0.00    +0.000 A 
ATOM     17  C   UNL     1       0.906  12.409  20.521  0.00  0.00    +0.000 A 
ATOM     18  C   UNL     1       1.443  11.493  19.607  0.00  0.00    +0.000 A 
ENDBRANCH   5   9
BRANCH   1  19
ATOM     19  N   UNL     1       3.822   4.775  19.538  0.00  0.00    +0.000 NA
ATOM     20  H   UNL     1       4.320   5.658  19.522  0.00  0.00    +0.000 HD
BRANCH  19  21
ATOM     21  C   UNL     1       4.513   3.799  18.675  0.00  0.00    +0.000 C 
BRANCH  21  22
ATOM     22  C   UNL     1       5.306   4.433  17.511  0.00  0.00    +0.000 A 
ATOM     23  C   UNL     1       6.276   5.422  17.794  0.00  0.00    +0.000 A 
ATOM     24  C   UNL     1       7.204   5.838  16.836  0.00  0.00    +0.000 A 
ATOM     25  C   UNL     1       7.177   5.282  15.564  0.00  0.00    +0.000 A 
ATOM     26  C   UNL     1       6.206   4.335  15.244  0.00  0.00    +0.000 A 
ATOM     27  C   UNL     1       5.271   3.919  16.204  0.00  0.00    +0.000 A 
ENDBRANCH  21  22
BRANCH  21  29
ATOM     28  C   UNL     1       3.597   1.370  18.733  0.00  0.00    +0.000 C 
ATOM     29  C   UNL     1       3.629   2.714  18.009  0.00  0.00    +0.000 C 
ENDBRANCH  21  29
BRANCH  21  30
ATOM     30  O   UNL     1       5.463   3.137  19.497  0.00  0.00    +0.000 OA
ATOM     31  H   UNL     1       5.722   3.827  20.130  0.00  0.00    +0.000 HD
ENDBRANCH  21  30
ENDBRANCH  19  21
ENDBRANCH   1  19
TORSDOF 6
ENDMDL
MODEL 9
REMARK VINA RESULT:      -8.3      1.092      1.548
REMARK  Name = 
REMARK  7 active torsions:
REMARK  status: ('A' for Active; 'I' for Inactive)
REMARK    1  A    between atoms: C_1  and  C_2
REMARK    2  A    between atoms: C_2  and  C_3
REMARK    3  A    between atoms: C_3  and  O_4
REMARK    4  A    between atoms: C_3  and  N_5
REMARK    5  A    between atoms: C_3  and  C_24
REMARK    6  A    between atoms: N_5  and  C_6
REMARK    7  A    between atoms: C_10  and  C_12
REMARK                            x       y       z     vdW  Elec       q    Type
REMARK                         _______ _______ _______ _____ _____    ______ ____
ROOT
ATOM      1  C   UNL     1       2.673   5.632  19.193  0.00  0.00    +0.000 C 
ATOM      2  C   UNL     1       2.451   6.440  17.905  0.00  0.00    +0.000 C 
ATOM      3  C   UNL     1       2.633   7.933  18.094  0.00  0.00    +0.000 C 
ATOM      4  N   UNL     1       1.710   8.454  19.086  0.00  0.00    +0.000 N 
ATOM      5  C   UNL     1       1.395   9.811  18.931  0.00  0.00    +0.000 C 
ATOM      6  O   UNL     1       1.850  10.505  18.017  0.00  0.00    +0.000 OA
ATOM      7  C   UNL     1       1.749   7.757  20.383  0.00  0.00    +0.000 C 
ATOM      8  C   UNL     1       1.709   6.226  20.250  0.00  0.00    +0.000 C 
ENDROOT
BRANCH   5   9
ATOM      9  C   UNL     1       0.475  10.481  19.876  0.00  0.00    +0.000 A 
ATOM     10  C   UNL     1       0.714  10.489  21.251  0.00  0.00    +0.000 A 
ATOM     11  C   UNL     1      -0.161  11.163  22.102  0.00  0.00    +0.000 A 
ATOM     12  C   UNL     1      -1.314  11.786  21.598  0.00  0.00    +0.000 A 
ATOM     13  C   UNL     1      -2.195  12.478  22.440  0.00  0.00    +0.000 A 
ATOM     14  C   UNL     1      -3.355  13.062  21.932  0.00  0.00    +0.000 A 
ATOM     15  C   UNL     1      -3.655  12.955  20.577  0.00  0.00    +0.000 A 
ATOM     16  C   UNL     1      -2.784  12.279  19.722  0.00  0.00    +0.000 A 
ATOM     17  C   UNL     1      -1.605  11.702  20.215  0.00  0.00    +0.000 A 
ATOM     18  C   UNL     1      -0.702  11.048  19.367  0.00  0.00    +0.000 A 
ENDBRANCH   5   9
BRANCH   1  19
ATOM     19  N   UNL     1       4.057   5.544  19.724  0.00  0.00    +0.000 NA
ATOM     20  H   UNL     1       4.512   6.448  19.661  0.00  0.00    +0.000 HD
BRANCH  19  21
ATOM     21  C   UNL     1       4.927   4.507  19.142  0.00  0.00    +0.000 C 
BRANCH  21  22
ATOM     22  C   UNL     1       5.357   4.785  17.684  0.00  0.00    +0.000 A 
ATOM     23  C   UNL     1       6.386   5.723  17.435  0.00  0.00    +0.000 A 
ATOM     24  C   UNL     1       7.000   5.826  16.184  0.00  0.00    +0.000 A 
ATOM     25  C   UNL     1       6.591   4.999  15.147  0.00  0.00    +0.000 A 
ATOM     26  C   UNL     1       5.551   4.094  15.351  0.00  0.00    +0.000 A 
ATOM     27  C   UNL     1       4.931   3.992  16.605  0.00  0.00    +0.000 A 
ENDBRANCH  21  22
BRANCH  21  29
ATOM     28  C   UNL     1       3.844   2.551  20.462  0.00  0.00    +0.000 C 
ATOM     29  C   UNL     1       4.367   3.062  19.121  0.00  0.00    +0.000 C 
ENDBRANCH  21  29
BRANCH  21  30
ATOM     30  O   UNL     1       6.117   4.497  19.918  0.00  0.00    +0.000 OA
ATOM     31  H   UNL     1       6.646   3.799  19.496  0.00  0.00    +0.000 HD
ENDBRANCH  21  30
ENDBRANCH  19  21
ENDBRANCH   1  19
TORSDOF 6
ENDMDL
