MODEL 1
REMARK VINA RESULT:      -7.5      0.000      0.000
REMARK  Name = 
REMARK  5 active torsions:
REMARK  status: ('A' for Active; 'I' for Inactive)
REMARK    1  A    between atoms: C_1  and  O_2
REMARK    2  A    between atoms: O_2  and  C_3
REMARK    3  A    between atoms: C_8  and  C_9
REMARK    4  A    between atoms: C_9  and  N_10
REMARK    5  A    between atoms: C_12  and  O_13
REMARK                            x       y       z     vdW  Elec       q    Type
REMARK                         _______ _______ _______ _____ _____    ______ ____
ROOT
ATOM      1  C   UNL     1       6.295   5.050  18.430  0.00  0.00    +0.000 A 
ATOM      2  C   UNL     1       7.254   4.854  17.427  0.00  0.00    +0.000 A 
ATOM      3  C   UNL     1       6.823   4.728  16.126  0.00  0.00    +0.000 A 
ATOM      4  C   UNL     1       5.490   4.763  15.801  0.00  0.00    +0.000 A 
ATOM      5  C   UNL     1       4.517   4.912  16.762  0.00  0.00    +0.000 A 
ATOM      6  C   UNL     1       4.909   5.046  18.110  0.00  0.00    +0.000 A 
ATOM      7  O   UNL     1       5.284   4.650  14.462  0.00  0.00    +0.000 OA
ATOM      8  C   UNL     1       6.643   4.573  13.982  0.00  0.00    +0.000 C 
ATOM      9  O   UNL     1       7.625   4.567  15.041  0.00  0.00    +0.000 OA
ENDROOT
BRANCH   1  11
ATOM     10  C   UNL     1       7.991   5.628  19.994  0.00  0.00    +0.000 C 
ATOM     11  O   UNL     1       6.638   5.233  19.752  0.00  0.00    +0.000 OA
ENDBRANCH   1  11
BRANCH   6  12
ATOM     12  C   UNL     1       3.834   5.289  19.155  0.00  0.00    +0.000 C 
BRANCH  12  13
ATOM     13  N   UNL     1       3.354   4.063  19.835  0.00  0.00    +0.000 NA
ATOM     14  C   UNL     1       2.472   4.383  20.973  0.00  0.00    +0.000 C 
ATOM     15  C   UNL     1       1.394   3.293  21.034  0.00  0.00    +0.000 C 
ATOM     16  C   UNL     1       1.542   2.486  19.750  0.00  0.00    +0.000 C 
ATOM     17  F   UNL     1       0.349   2.437  19.097  0.00  0.00    +0.000 F 
ATOM     18  C   UNL     1       2.547   3.253  18.906  0.00  0.00    +0.000 C 
BRANCH  15  19
ATOM     19  O   UNL     1       1.548   2.458  22.184  0.00  0.00    +0.000 OA
ATOM     20  H   UNL     1       0.762   2.581  22.745  0.00  0.00    +0.000 HD
ENDBRANCH  15  19
ENDBRANCH  12  13
ENDBRANCH   6  12
TORSDOF 4
ENDMDL
MODEL 2
REMARK VINA RESULT:      -7.3      1.124      1.396
REMARK  Name = 
REMARK  5 active torsions:
REMARK  status: ('A' for Active; 'I' for Inactive)
REMARK    1  A    between atoms: C_1  and  O_2
REMARK    2  A    between atoms: O_2  and  C_3
REMARK    3  A    between atoms: C_8  and  C_9
REMARK    4  A    between atoms: C_9  and  N_10
REMARK    5  A    between atoms: C_12  and  O_13
REMARK                            x       y       z     vdW  Elec       q    Type
REMARK                         _______ _______ _______ _____ _____    ______ ____
ROOT
ATOM      1  C   UNL     1       6.467   5.155  18.576  0.00  0.00    +0.000 A 
ATOM      2  C   UNL     1       7.403   5.007  17.542  0.00  0.00    +0.000 A 
ATOM      3  C   UNL     1       6.938   4.881  16.254  0.00  0.00    +0.000 A 
ATOM      4  C   UNL     1       5.596   4.871  15.968  0.00  0.00    +0.000 A 
ATOM      5  C   UNL     1       4.647   4.970  16.959  0.00  0.00    +0.000 A 
ATOM      6  C   UNL     1       5.074   5.102  18.297  0.00  0.00    +0.000 A 
ATOM      7  O   UNL     1       5.355   4.766  14.634  0.00  0.00    +0.000 OA
ATOM      8  C   UNL     1       6.701   4.746  14.114  0.00  0.00    +0.000 C 
ATOM      9  O   UNL     1       7.713   4.764  15.143  0.00  0.00    +0.000 OA
ENDROOT
BRANCH   1  11
ATOM     10  C   UNL     1       8.241   5.529  20.116  0.00  0.00    +0.000 C 
ATOM     11  O   UNL     1       6.843   5.334  19.890  0.00  0.00    +0.000 OA
ENDBRANCH   1  11
BRANCH   6  12
ATOM     12  C   UNL     1       4.022   5.292  19.376  0.00  0.00    +0.000 C 
BRANCH  12  13
ATOM     13  N   UNL     1       2.786   4.500  19.170  0.00  0.00    +0.000 NA
ATOM     14  C   UNL     1       3.081   3.063  19.014  0.00  0.00    +0.000 C 
ATOM     15  C   UNL     1       1.933   2.288  19.675  0.00  0.00    +0.000 C 
ATOM     16  C   UNL     1       1.108   3.325  20.427  0.00  0.00    +0.000 C 
ATOM     17  F   UNL     1       0.977   2.952  21.729  0.00  0.00    +0.000 F 
ATOM     18  C   UNL     1       1.911   4.613  20.350  0.00  0.00    +0.000 C 
BRANCH  15  19
ATOM     19  O   UNL     1       1.135   1.598  18.711  0.00  0.00    +0.000 OA
ATOM     20  H   UNL     1       0.796   0.790  19.134  0.00  0.00    +0.000 HD
ENDBRANCH  15  19
ENDBRANCH  12  13
ENDBRANCH   6  12
TORSDOF 4
ENDMDL
MODEL 3
REMARK VINA RESULT:      -7.3      1.477      1.670
REMARK  Name = 
REMARK  5 active torsions:
REMARK  status: ('A' for Active; 'I' for Inactive)
REMARK    1  A    between atoms: C_1  and  O_2
REMARK    2  A    between atoms: O_2  and  C_3
REMARK    3  A    between atoms: C_8  and  C_9
REMARK    4  A    between atoms: C_9  and  N_10
REMARK    5  A    between atoms: C_12  and  O_13
REMARK                            x       y       z     vdW  Elec       q    Type
REMARK                         _______ _______ _______ _____ _____    ______ ____
ROOT
ATOM      1  C   UNL     1       6.621   4.870  18.063  0.00  0.00    +0.000 A 
ATOM      2  C   UNL     1       7.408   5.322  16.993  0.00  0.00    +0.000 A 
ATOM      3  C   UNL     1       7.036   4.971  15.716  0.00  0.00    +0.000 A 
ATOM      4  C   UNL     1       5.943   4.177  15.474  0.00  0.00    +0.000 A 
ATOM      5  C   UNL     1       5.172   3.680  16.499  0.00  0.00    +0.000 A 
ATOM      6  C   UNL     1       5.512   4.013  17.827  0.00  0.00    +0.000 A 
ATOM      7  O   UNL     1       5.737   3.976  14.145  0.00  0.00    +0.000 OA
ATOM      8  C   UNL     1       6.808   4.763  13.581  0.00  0.00    +0.000 C 
ATOM      9  O   UNL     1       7.670   5.354  14.576  0.00  0.00    +0.000 OA
ENDROOT
BRANCH   1  11
ATOM     10  C   UNL     1       8.142   5.864  19.598  0.00  0.00    +0.000 C 
ATOM     11  O   UNL     1       6.891   5.211  19.371  0.00  0.00    +0.000 OA
ENDBRANCH   1  11
BRANCH   6  12
ATOM     12  C   UNL     1       4.609   3.526  18.947  0.00  0.00    +0.000 C 
BRANCH  12  13
ATOM     13  N   UNL     1       3.174   3.453  18.588  0.00  0.00    +0.000 NA
ATOM     14  C   UNL     1       2.622   2.105  18.823  0.00  0.00    +0.000 C 
ATOM     15  C   UNL     1       1.174   2.283  19.298  0.00  0.00    +0.000 C 
ATOM     16  C   UNL     1       1.001   3.773  19.564  0.00  0.00    +0.000 C 
ATOM     17  F   UNL     1       0.542   3.964  20.831  0.00  0.00    +0.000 F 
ATOM     18  C   UNL     1       2.393   4.369  19.437  0.00  0.00    +0.000 C 
BRANCH  15  19
ATOM     19  O   UNL     1       0.235   1.824  18.322  0.00  0.00    +0.000 OA
ATOM     20  H   UNL     1      -0.604   2.293  18.477  0.00  0.00    +0.000 HD
ENDBRANCH  15  19
ENDBRANCH  12  13
ENDBRANCH   6  12
TORSDOF 4
ENDMDL
MODEL 4
REMARK VINA RESULT:      -7.1      1.571      1.652
REMARK  Name = 
REMARK  5 active torsions:
REMARK  status: ('A' for Active; 'I' for Inactive)
REMARK    1  A    between atoms: C_1  and  O_2
REMARK    2  A    between atoms: O_2  and  C_3
REMARK    3  A    between atoms: C_8  and  C_9
REMARK    4  A    between atoms: C_9  and  N_10
REMARK    5  A    between atoms: C_12  and  O_13
REMARK                            x       y       z     vdW  Elec       q    Type
REMARK                         _______ _______ _______ _____ _____    ______ ____
ROOT
ATOM      1  C   UNL     1       6.419   5.154  18.467  0.00  0.00    +0.000 A 
ATOM      2  C   UNL     1       7.378   5.007  17.455  0.00  0.00    +0.000 A 
ATOM      3  C   UNL     1       6.943   4.884  16.155  0.00  0.00    +0.000 A 
ATOM      4  C   UNL     1       5.607   4.875  15.839  0.00  0.00    +0.000 A 
ATOM      5  C   UNL     1       4.636   4.974  16.807  0.00  0.00    +0.000 A 
ATOM      6  C   UNL     1       5.032   5.104  18.155  0.00  0.00    +0.000 A 
ATOM      7  O   UNL     1       5.397   4.774  14.500  0.00  0.00    +0.000 OA
ATOM      8  C   UNL     1       6.755   4.753  14.010  0.00  0.00    +0.000 C 
ATOM      9  O   UNL     1       7.743   4.768  15.063  0.00  0.00    +0.000 OA
ENDROOT
BRANCH   1  11
ATOM     10  C   UNL     1       8.150   5.572  20.043  0.00  0.00    +0.000 C 
ATOM     11  O   UNL     1       6.764   5.330  19.789  0.00  0.00    +0.000 OA
ENDBRANCH   1  11
BRANCH   6  12
ATOM     12  C   UNL     1       3.955   5.293  19.210  0.00  0.00    +0.000 C 
BRANCH  12  13
ATOM     13  N   UNL     1       3.132   4.087  19.465  0.00  0.00    +0.000 NA
ATOM     14  C   UNL     1       2.135   3.874  18.399  0.00  0.00    +0.000 C 
ATOM     15  C   UNL     1       1.992   2.358  18.206  0.00  0.00    +0.000 C 
ATOM     16  C   UNL     1       3.116   1.726  19.017  0.00  0.00    +0.000 C 
ATOM     17  F   UNL     1       3.849   0.900  18.222  0.00  0.00    +0.000 F 
ATOM     18  C   UNL     1       3.985   2.886  19.475  0.00  0.00    +0.000 C 
BRANCH  15  19
ATOM     19  O   UNL     1       0.716   1.886  18.644  0.00  0.00    +0.000 OA
ATOM     20  H   UNL     1       0.752   0.914  18.662  0.00  0.00    +0.000 HD
ENDBRANCH  15  19
ENDBRANCH  12  13
ENDBRANCH   6  12
TORSDOF 4
ENDMDL
MODEL 5
REMARK VINA RESULT:      -6.8      1.891      2.572
REMARK  Name = 
REMARK  5 active torsions:
REMARK  status: ('A' for Active; 'I' for Inactive)
REMARK    1  A    between atoms: C_1  and  O_2
REMARK    2  A    between atoms: O_2  and  C_3
REMARK    3  A    between atoms: C_8  and  C_9
REMARK    4  A    between atoms: C_9  and  N_10
REMARK    5  A    between atoms: C_12  and  O_13
REMARK                            x       y       z     vdW  Elec       q    Type
REMARK                         _______ _______ _______ _____ _____    ______ ____
ROOT
ATOM      1  C   UNL     1       4.386   6.500  17.588  0.00  0.00    +0.000 A 
ATOM      2  C   UNL     1       4.909   6.736  16.309  0.00  0.00    +0.000 A 
ATOM      3  C   UNL     1       5.591   5.718  15.684  0.00  0.00    +0.000 A 
ATOM      4  C   UNL     1       5.789   4.503  16.291  0.00  0.00    +0.000 A 
ATOM      5  C   UNL     1       5.329   4.247  17.561  0.00  0.00    +0.000 A 
ATOM      6  C   UNL     1       4.622   5.260  18.243  0.00  0.00    +0.000 A 
ATOM      7  O   UNL     1       6.460   3.632  15.491  0.00  0.00    +0.000 OA
ATOM      8  C   UNL     1       6.630   4.430  14.300  0.00  0.00    +0.000 C 
ATOM      9  O   UNL     1       6.128   5.776  14.437  0.00  0.00    +0.000 OA
ENDROOT
BRANCH   1  11
ATOM     10  C   UNL     1       2.583   8.050  17.535  0.00  0.00    +0.000 C 
ATOM     11  O   UNL     1       3.650   7.445  18.269  0.00  0.00    +0.000 OA
ENDBRANCH   1  11
BRANCH   6  12
ATOM     12  C   UNL     1       4.048   4.943  19.613  0.00  0.00    +0.000 C 
BRANCH  12  13
ATOM     13  N   UNL     1       2.638   4.485  19.594  0.00  0.00    +0.000 NA
ATOM     14  C   UNL     1       2.504   3.166  18.946  0.00  0.00    +0.000 C 
ATOM     15  C   UNL     1       1.396   2.406  19.686  0.00  0.00    +0.000 C 
ATOM     16  C   UNL     1       1.079   3.232  20.926  0.00  0.00    +0.000 C 
ATOM     17  F   UNL     1       1.183   2.452  22.037  0.00  0.00    +0.000 F 
ATOM     18  C   UNL     1       2.143   4.317  20.971  0.00  0.00    +0.000 C 
BRANCH  15  19
ATOM     19  O   UNL     1       0.234   2.237  18.872  0.00  0.00    +0.000 OA
ATOM     20  H   UNL     1      -0.043   1.307  18.943  0.00  0.00    +0.000 HD
ENDBRANCH  15  19
ENDBRANCH  12  13
ENDBRANCH   6  12
TORSDOF 4
ENDMDL
MODEL 6
REMARK VINA RESULT:      -6.8      2.116      2.589
REMARK  Name = 
REMARK  5 active torsions:
REMARK  status: ('A' for Active; 'I' for Inactive)
REMARK    1  A    between atoms: C_1  and  O_2
REMARK    2  A    between atoms: O_2  and  C_3
REMARK    3  A    between atoms: C_8  and  C_9
REMARK    4  A    between atoms: C_9  and  N_10
REMARK    5  A    between atoms: C_12  and  O_13
REMARK                            x       y       z     vdW  Elec       q    Type
REMARK                         _______ _______ _______ _____ _____    ______ ____
ROOT
ATOM      1  C   UNL     1       3.806   6.289  17.690  0.00  0.00    +0.000 A 
ATOM      2  C   UNL     1       5.036   6.666  17.132  0.00  0.00    +0.000 A 
ATOM      3  C   UNL     1       5.699   5.759  16.339  0.00  0.00    +0.000 A 
ATOM      4  C   UNL     1       5.201   4.501  16.109  0.00  0.00    +0.000 A 
ATOM      5  C   UNL     1       4.019   4.079  16.672  0.00  0.00    +0.000 A 
ATOM      6  C   UNL     1       3.301   4.974  17.493  0.00  0.00    +0.000 A 
ATOM      7  O   UNL     1       5.996   3.777  15.277  0.00  0.00    +0.000 OA
ATOM      8  C   UNL     1       7.034   4.738  14.986  0.00  0.00    +0.000 C 
ATOM      9  O   UNL     1       6.879   5.982  15.702  0.00  0.00    +0.000 OA
ENDROOT
BRANCH   1  11
ATOM     10  C   UNL     1       2.513   8.283  17.774  0.00  0.00    +0.000 C 
ATOM     11  O   UNL     1       3.050   7.148  18.458  0.00  0.00    +0.000 OA
ENDBRANCH   1  11
BRANCH   6  12
ATOM     12  C   UNL     1       1.958   4.528  18.045  0.00  0.00    +0.000 C 
BRANCH  12  13
ATOM     13  N   UNL     1       1.946   4.298  19.509  0.00  0.00    +0.000 NA
ATOM     14  C   UNL     1       1.038   3.195  19.878  0.00  0.00    +0.000 C 
ATOM     15  C   UNL     1       1.677   2.457  21.062  0.00  0.00    +0.000 C 
ATOM     16  C   UNL     1       3.088   3.017  21.192  0.00  0.00    +0.000 C 
ATOM     17  F   UNL     1       3.991   1.999  21.169  0.00  0.00    +0.000 F 
ATOM     18  C   UNL     1       3.287   3.896  19.969  0.00  0.00    +0.000 C 
BRANCH  15  19
ATOM     19  O   UNL     1       0.936   2.649  22.269  0.00  0.00    +0.000 OA
ATOM     20  H   UNL     1       0.037   2.930  22.021  0.00  0.00    +0.000 HD
ENDBRANCH  15  19
ENDBRANCH  12  13
ENDBRANCH   6  12
TORSDOF 4
ENDMDL
MODEL 7
REMARK VINA RESULT:      -6.8      1.549      1.762
REMARK  Name = 
REMARK  5 active torsions:
REMARK  status: ('A' for Active; 'I' for Inactive)
REMARK    1  A    between atoms: C_1  and  O_2
REMARK    2  A    between atoms: O_2  and  C_3
REMARK    3  A    between atoms: C_8  and  C_9
REMARK    4  A    between atoms: C_9  and  N_10
REMARK    5  A    between atoms: C_12  and  O_13
REMARK                            x       y       z     vdW  Elec       q    Type
REMARK                         _______ _______ _______ _____ _____    ______ ____
ROOT
ATOM      1  C   UNL     1       6.238   4.520  17.860  0.00  0.00    +0.000 A 
ATOM      2  C   UNL     1       7.188   5.068  16.986  0.00  0.00    +0.000 A 
ATOM      3  C   UNL     1       7.010   4.892  15.633  0.00  0.00    +0.000 A 
ATOM      4  C   UNL     1       5.950   4.178  15.132  0.00  0.00    +0.000 A 
ATOM      5  C   UNL     1       5.021   3.589  15.957  0.00  0.00    +0.000 A 
ATOM      6  C   UNL     1       5.160   3.742  17.353  0.00  0.00    +0.000 A 
ATOM      7  O   UNL     1       5.947   4.150  13.772  0.00  0.00    +0.000 OA
ATOM      8  C   UNL     1       7.107   4.957  13.479  0.00  0.00    +0.000 C 
ATOM      9  O   UNL     1       7.819   5.386  14.659  0.00  0.00    +0.000 OA
ENDROOT
BRANCH   1  11
ATOM     10  C   UNL     1       7.345   5.556  19.692  0.00  0.00    +0.000 C 
ATOM     11  O   UNL     1       6.310   4.686  19.225  0.00  0.00    +0.000 OA
ENDBRANCH   1  11
BRANCH   6  12
ATOM     12  C   UNL     1       4.087   3.158  18.254  0.00  0.00    +0.000 C 
BRANCH  12  13
ATOM     13  N   UNL     1       3.723   4.015  19.407  0.00  0.00    +0.000 NA
ATOM     14  C   UNL     1       2.696   5.009  19.043  0.00  0.00    +0.000 C 
ATOM     15  C   UNL     1       1.785   5.190  20.265  0.00  0.00    +0.000 C 
ATOM     16  C   UNL     1       2.175   4.090  21.244  0.00  0.00    +0.000 C 
ATOM     17  F   UNL     1       1.072   3.373  21.593  0.00  0.00    +0.000 F 
ATOM     18  C   UNL     1       3.137   3.194  20.482  0.00  0.00    +0.000 C 
BRANCH  15  19
ATOM     19  O   UNL     1       1.944   6.482  20.856  0.00  0.00    +0.000 OA
ATOM     20  H   UNL     1       2.856   6.544  21.190  0.00  0.00    +0.000 HD
ENDBRANCH  15  19
ENDBRANCH  12  13
ENDBRANCH   6  12
TORSDOF 4
ENDMDL
MODEL 8
REMARK VINA RESULT:      -6.7      2.104      2.496
REMARK  Name = 
REMARK  5 active torsions:
REMARK  status: ('A' for Active; 'I' for Inactive)
REMARK    1  A    between atoms: C_1  and  O_2
REMARK    2  A    between atoms: O_2  and  C_3
REMARK    3  A    between atoms: C_8  and  C_9
REMARK    4  A    between atoms: C_9  and  N_10
REMARK    5  A    between atoms: C_12  and  O_13
REMARK                            x       y       z     vdW  Elec       q    Type
REMARK                         _______ _______ _______ _____ _____    ______ ____
ROOT
ATOM      1  C   UNL     1       3.813   5.902  17.598  0.00  0.00    +0.000 A 
ATOM      2  C   UNL     1       4.988   6.423  17.036  0.00  0.00    +0.000 A 
ATOM      3  C   UNL     1       5.717   5.622  16.188  0.00  0.00    +0.000 A 
ATOM      4  C   UNL     1       5.337   4.333  15.907  0.00  0.00    +0.000 A 
ATOM      5  C   UNL     1       4.215   3.773  16.471  0.00  0.00    +0.000 A 
ATOM      6  C   UNL     1       3.433   4.555  17.347  0.00  0.00    +0.000 A 
ATOM      7  O   UNL     1       6.178   3.730  15.026  0.00  0.00    +0.000 OA
ATOM      8  C   UNL     1       7.111   4.799  14.763  0.00  0.00    +0.000 C 
ATOM      9  O   UNL     1       6.855   5.987  15.540  0.00  0.00    +0.000 OA
ENDROOT
BRANCH   1  11
ATOM     10  C   UNL     1       2.707   7.974  17.972  0.00  0.00    +0.000 C 
ATOM     11  O   UNL     1       2.997   6.647  18.421  0.00  0.00    +0.000 OA
ENDBRANCH   1  11
BRANCH   6  12
ATOM     12  C   UNL     1       2.153   3.956  17.903  0.00  0.00    +0.000 C 
BRANCH  12  13
ATOM     13  N   UNL     1       2.363   2.934  18.955  0.00  0.00    +0.000 NA
ATOM     14  C   UNL     1       3.439   3.325  19.885  0.00  0.00    +0.000 C 
ATOM     15  C   UNL     1       3.039   2.823  21.280  0.00  0.00    +0.000 C 
ATOM     16  C   UNL     1       1.594   2.358  21.158  0.00  0.00    +0.000 C 
ATOM     17  F   UNL     1       0.829   2.981  22.096  0.00  0.00    +0.000 F 
ATOM     18  C   UNL     1       1.146   2.792  19.773  0.00  0.00    +0.000 C 
BRANCH  15  19
ATOM     19  O   UNL     1       3.885   1.760  21.723  0.00  0.00    +0.000 OA
ATOM     20  H   UNL     1       3.698   0.983  21.167  0.00  0.00    +0.000 HD
ENDBRANCH  15  19
ENDBRANCH  12  13
ENDBRANCH   6  12
TORSDOF 4
ENDMDL
MODEL 9
REMARK VINA RESULT:      -6.7      3.185      6.305
REMARK  Name = 
REMARK  5 active torsions:
REMARK  status: ('A' for Active; 'I' for Inactive)
REMARK    1  A    between atoms: C_1  and  O_2
REMARK    2  A    between atoms: O_2  and  C_3
REMARK    3  A    between atoms: C_8  and  C_9
REMARK    4  A    between atoms: C_9  and  N_10
REMARK    5  A    between atoms: C_12  and  O_13
REMARK                            x       y       z     vdW  Elec       q    Type
REMARK                         _______ _______ _______ _____ _____    ______ ____
ROOT
ATOM      1  C   UNL     1       5.191   4.055  18.481  0.00  0.00    +0.000 A 
ATOM      2  C   UNL     1       4.505   3.338  19.471  0.00  0.00    +0.000 A 
ATOM      3  C   UNL     1       3.182   3.027  19.255  0.00  0.00    +0.000 A 
ATOM      4  C   UNL     1       2.524   3.423  18.117  0.00  0.00    +0.000 A 
ATOM      5  C   UNL     1       3.151   4.164  17.142  0.00  0.00    +0.000 A 
ATOM      6  C   UNL     1       4.508   4.507  17.318  0.00  0.00    +0.000 A 
ATOM      7  O   UNL     1       1.236   2.988  18.090  0.00  0.00    +0.000 OA
ATOM      8  C   UNL     1       1.173   2.246  19.327  0.00  0.00    +0.000 C 
ATOM      9  O   UNL     1       2.391   2.313  20.098  0.00  0.00    +0.000 OA
ENDROOT
BRANCH   1  11
ATOM     10  C   UNL     1       6.832   5.520  19.384  0.00  0.00    +0.000 C 
ATOM     11  O   UNL     1       6.528   4.370  18.591  0.00  0.00    +0.000 OA
ENDBRANCH   1  11
BRANCH   6  12
ATOM     12  C   UNL     1       5.214   5.256  16.201  0.00  0.00    +0.000 C 
BRANCH  12  13
ATOM     13  N   UNL     1       5.995   4.393  15.285  0.00  0.00    +0.000 NA
ATOM     14  C   UNL     1       5.245   4.090  14.050  0.00  0.00    +0.000 C 
ATOM     15  C   UNL     1       6.262   4.034  12.903  0.00  0.00    +0.000 C 
ATOM     16  C   UNL     1       7.571   4.557  13.478  0.00  0.00    +0.000 C 
ATOM     17  F   UNL     1       8.037   5.578  12.707  0.00  0.00    +0.000 F 
ATOM     18  C   UNL     1       7.222   5.088  14.858  0.00  0.00    +0.000 C 
BRANCH  15  19
ATOM     19  O   UNL     1       6.418   2.705  12.398  0.00  0.00    +0.000 OA
ATOM     20  H   UNL     1       6.044   2.094  13.057  0.00  0.00    +0.000 HD
ENDBRANCH  15  19
ENDBRANCH  12  13
ENDBRANCH   6  12
TORSDOF 4
ENDMDL
