MODEL 1
REMARK VINA RESULT:      -6.2      0.000      0.000
REMARK  Name = 
REMARK  8 active torsions:
REMARK  status: ('A' for Active; 'I' for Inactive)
REMARK    1  A    between atoms: C_1  and  C_2
REMARK    2  A    between atoms: C_3  and  C_4
REMARK    3  A    between atoms: C_4  and  O_5
REMARK    4  A    between atoms: O_5  and  C_6
REMARK    5  A    between atoms: C_9  and  S_10
REMARK    6  A    between atoms: S_10  and  C_13
REMARK    7  A    between atoms: C_13  and  C_14
REMARK    8  A    between atoms: C_14  and  S_15
REMARK                            x       y       z     vdW  Elec       q    Type
REMARK                         _______ _______ _______ _____ _____    ______ ____
ROOT
ATOM      1  C   UNL     1       6.185   4.371  14.663  0.00  0.00    +0.000 A 
ATOM      2  C   UNL     1       7.144   4.823  15.580  0.00  0.00    +0.000 A 
ATOM      3  C   UNL     1       6.875   4.843  16.957  0.00  0.00    +0.000 A 
ATOM      4  C   UNL     1       5.597   4.519  17.416  0.00  0.00    +0.000 A 
ATOM      5  C   UNL     1       4.631   4.066  16.511  0.00  0.00    +0.000 A 
ATOM      6  C   UNL     1       4.929   3.998  15.142  0.00  0.00    +0.000 A 
ENDROOT
BRANCH   4   7
ATOM      7  S   UNL     1       5.236   4.701  19.162  0.00  0.00    +0.000 S 
ATOM      8  O   UNL     1       6.518   4.866  19.839  0.00  0.00    +0.000 OA
ATOM      9  O   UNL     1       4.207   5.702  19.264  0.00  0.00    +0.000 OA
BRANCH   7  10
ATOM     10  C   UNL     1       4.541   3.146  19.708  0.00  0.00    +0.000 C 
BRANCH  10  11
ATOM     11  C   UNL     1       3.074   3.324  20.091  0.00  0.00    +0.000 C 
BRANCH  11  12
ATOM     12  S   UNL     1       1.961   2.566  18.853  0.00  0.00    +0.000 S 
ATOM     13  H   UNL     1       0.917   2.310  19.657  0.00  0.00    +0.000 HD
ENDBRANCH  11  12
ENDBRANCH  10  11
ENDBRANCH   7  10
ENDBRANCH   4   7
BRANCH   1  14
ATOM     14  O   UNL     1       6.579   4.300  13.351  0.00  0.00    +0.000 OA
BRANCH  14  15
ATOM     15  C   UNL     1       6.261   3.078  12.654  0.00  0.00    +0.000 C 
BRANCH  15  18
ATOM     16  C   UNL     1       2.945   3.792   9.943  0.00  0.00    +0.000 C 
ATOM     17  C   UNL     1       4.106   3.543  10.892  0.00  0.00    +0.000 C 
ATOM     18  C   UNL     1       5.101   3.328  11.706  0.00  0.00    +0.000 C 
ENDBRANCH  15  18
ENDBRANCH  14  15
ENDBRANCH   1  14
TORSDOF 7
ENDMDL
MODEL 2
REMARK VINA RESULT:      -6.0      3.640      6.019
REMARK  Name = 
REMARK  8 active torsions:
REMARK  status: ('A' for Active; 'I' for Inactive)
REMARK    1  A    between atoms: C_1  and  C_2
REMARK    2  A    between atoms: C_3  and  C_4
REMARK    3  A    between atoms: C_4  and  O_5
REMARK    4  A    between atoms: O_5  and  C_6
REMARK    5  A    between atoms: C_9  and  S_10
REMARK    6  A    between atoms: S_10  and  C_13
REMARK    7  A    between atoms: C_13  and  C_14
REMARK    8  A    between atoms: C_14  and  S_15
REMARK                            x       y       z     vdW  Elec       q    Type
REMARK                         _______ _______ _______ _____ _____    ______ ____
ROOT
ATOM      1  C   UNL     1       6.683   6.086  17.869  0.00  0.00    +0.000 A 
ATOM      2  C   UNL     1       6.314   5.433  19.053  0.00  0.00    +0.000 A 
ATOM      3  C   UNL     1       5.254   4.513  19.071  0.00  0.00    +0.000 A 
ATOM      4  C   UNL     1       4.478   4.330  17.925  0.00  0.00    +0.000 A 
ATOM      5  C   UNL     1       4.836   4.977  16.737  0.00  0.00    +0.000 A 
ATOM      6  C   UNL     1       5.933   5.852  16.716  0.00  0.00    +0.000 A 
ENDROOT
BRANCH   4   7
ATOM      7  S   UNL     1       3.038   3.268  18.019  0.00  0.00    +0.000 S 
ATOM      8  O   UNL     1       2.391   3.322  16.713  0.00  0.00    +0.000 OA
ATOM      9  O   UNL     1       3.487   2.019  18.577  0.00  0.00    +0.000 OA
BRANCH   7  10
ATOM     10  C   UNL     1       1.921   4.020  19.198  0.00  0.00    +0.000 C 
BRANCH  10  11
ATOM     11  C   UNL     1       1.122   2.948  19.933  0.00  0.00    +0.000 C 
BRANCH  11  12
ATOM     12  S   UNL     1       1.727   2.713  21.643  0.00  0.00    +0.000 S 
ATOM     13  H   UNL     1       1.735   1.371  21.667  0.00  0.00    +0.000 HD
ENDBRANCH  11  12
ENDBRANCH  10  11
ENDBRANCH   7  10
ENDBRANCH   4   7
BRANCH   1  14
ATOM     14  O   UNL     1       7.792   6.891  17.935  0.00  0.00    +0.000 OA
BRANCH  14  15
ATOM     15  C   UNL     1       7.644   8.226  17.409  0.00  0.00    +0.000 C 
BRANCH  15  18
ATOM     16  C   UNL     1       9.883  11.002  19.889  0.00  0.00    +0.000 C 
ATOM     17  C   UNL     1       9.099  10.030  19.021  0.00  0.00    +0.000 C 
ATOM     18  C   UNL     1       8.427   9.197  18.276  0.00  0.00    +0.000 C 
ENDBRANCH  15  18
ENDBRANCH  14  15
ENDBRANCH   1  14
TORSDOF 7
ENDMDL
MODEL 3
REMARK VINA RESULT:      -6.0      1.665      1.976
REMARK  Name = 
REMARK  8 active torsions:
REMARK  status: ('A' for Active; 'I' for Inactive)
REMARK    1  A    between atoms: C_1  and  C_2
REMARK    2  A    between atoms: C_3  and  C_4
REMARK    3  A    between atoms: C_4  and  O_5
REMARK    4  A    between atoms: O_5  and  C_6
REMARK    5  A    between atoms: C_9  and  S_10
REMARK    6  A    between atoms: S_10  and  C_13
REMARK    7  A    between atoms: C_13  and  C_14
REMARK    8  A    between atoms: C_14  and  S_15
REMARK                            x       y       z     vdW  Elec       q    Type
REMARK                         _______ _______ _______ _____ _____    ______ ____
ROOT
ATOM      1  C   UNL     1       5.593   5.224  15.326  0.00  0.00    +0.000 A 
ATOM      2  C   UNL     1       5.225   6.490  15.801  0.00  0.00    +0.000 A 
ATOM      3  C   UNL     1       4.461   6.629  16.971  0.00  0.00    +0.000 A 
ATOM      4  C   UNL     1       3.960   5.493  17.609  0.00  0.00    +0.000 A 
ATOM      5  C   UNL     1       4.322   4.224  17.145  0.00  0.00    +0.000 A 
ATOM      6  C   UNL     1       5.132   4.096  16.006  0.00  0.00    +0.000 A 
ENDROOT
BRANCH   4   7
ATOM      7  S   UNL     1       2.862   5.704  19.009  0.00  0.00    +0.000 S 
ATOM      8  O   UNL     1       3.548   5.143  20.168  0.00  0.00    +0.000 OA
ATOM      9  O   UNL     1       2.435   7.078  18.989  0.00  0.00    +0.000 OA
BRANCH   7  10
ATOM     10  C   UNL     1       1.426   4.683  18.694  0.00  0.00    +0.000 C 
BRANCH  10  11
ATOM     11  C   UNL     1       1.281   3.620  19.778  0.00  0.00    +0.000 C 
BRANCH  11  12
ATOM     12  S   UNL     1       1.903   1.995  19.213  0.00  0.00    +0.000 S 
ATOM     13  H   UNL     1       2.567   2.407  18.122  0.00  0.00    +0.000 HD
ENDBRANCH  11  12
ENDBRANCH  10  11
ENDBRANCH   7  10
ENDBRANCH   4   7
BRANCH   1  14
ATOM     14  O   UNL     1       6.420   5.198  14.232  0.00  0.00    +0.000 OA
BRANCH  14  15
ATOM     15  C   UNL     1       6.629   3.909  13.620  0.00  0.00    +0.000 C 
BRANCH  15  18
ATOM     16  C   UNL     1       3.498   3.184  10.698  0.00  0.00    +0.000 C 
ATOM     17  C   UNL     1       4.593   3.438  11.721  0.00  0.00    +0.000 C 
ATOM     18  C   UNL     1       5.534   3.656  12.597  0.00  0.00    +0.000 C 
ENDBRANCH  15  18
ENDBRANCH  14  15
ENDBRANCH   1  14
TORSDOF 7
ENDMDL
MODEL 4
REMARK VINA RESULT:      -5.9      1.289      1.554
REMARK  Name = 
REMARK  8 active torsions:
REMARK  status: ('A' for Active; 'I' for Inactive)
REMARK    1  A    between atoms: C_1  and  C_2
REMARK    2  A    between atoms: C_3  and  C_4
REMARK    3  A    between atoms: C_4  and  O_5
REMARK    4  A    between atoms: O_5  and  C_6
REMARK    5  A    between atoms: C_9  and  S_10
REMARK    6  A    between atoms: S_10  and  C_13
REMARK    7  A    between atoms: C_13  and  C_14
REMARK    8  A    between atoms: C_14  and  S_15
REMARK                            x       y       z     vdW  Elec       q    Type
REMARK                         _______ _______ _______ _____ _____    ______ ____
ROOT
ATOM      1  C   UNL     1       5.861   4.822  14.809  0.00  0.00    +0.000 A 
ATOM      2  C   UNL     1       5.627   3.786  15.723  0.00  0.00    +0.000 A 
ATOM      3  C   UNL     1       4.947   4.024  16.928  0.00  0.00    +0.000 A 
ATOM      4  C   UNL     1       4.601   5.330  17.279  0.00  0.00    +0.000 A 
ATOM      5  C   UNL     1       4.829   6.373  16.375  0.00  0.00    +0.000 A 
ATOM      6  C   UNL     1       5.459   6.114  15.148  0.00  0.00    +0.000 A 
ENDROOT
BRANCH   4   7
ATOM      7  S   UNL     1       3.875   5.625  18.890  0.00  0.00    +0.000 S 
ATOM      8  O   UNL     1       4.933   5.414  19.872  0.00  0.00    +0.000 OA
ATOM      9  O   UNL     1       3.181   6.883  18.802  0.00  0.00    +0.000 OA
BRANCH   7  10
ATOM     10  C   UNL     1       2.650   4.345  19.144  0.00  0.00    +0.000 C 
BRANCH  10  11
ATOM     11  C   UNL     1       2.214   4.308  20.606  0.00  0.00    +0.000 C 
BRANCH  11  12
ATOM     12  S   UNL     1       1.525   2.675  21.060  0.00  0.00    +0.000 S 
ATOM     13  H   UNL     1       2.600   2.176  21.690  0.00  0.00    +0.000 HD
ENDBRANCH  11  12
ENDBRANCH  10  11
ENDBRANCH   7  10
ENDBRANCH   4   7
BRANCH   1  14
ATOM     14  O   UNL     1       6.446   4.469  13.619  0.00  0.00    +0.000 OA
BRANCH  14  15
ATOM     15  C   UNL     1       6.062   3.190  13.075  0.00  0.00    +0.000 C 
BRANCH  15  18
ATOM     16  C   UNL     1       3.099   3.787   9.956  0.00  0.00    +0.000 C 
ATOM     17  C   UNL     1       4.136   3.578  11.048  0.00  0.00    +0.000 C 
ATOM     18  C   UNL     1       5.026   3.399  11.984  0.00  0.00    +0.000 C 
ENDBRANCH  15  18
ENDBRANCH  14  15
ENDBRANCH   1  14
TORSDOF 7
ENDMDL
MODEL 5
REMARK VINA RESULT:      -5.9      3.845      5.749
REMARK  Name = 
REMARK  8 active torsions:
REMARK  status: ('A' for Active; 'I' for Inactive)
REMARK    1  A    between atoms: C_1  and  C_2
REMARK    2  A    between atoms: C_3  and  C_4
REMARK    3  A    between atoms: C_4  and  O_5
REMARK    4  A    between atoms: O_5  and  C_6
REMARK    5  A    between atoms: C_9  and  S_10
REMARK    6  A    between atoms: S_10  and  C_13
REMARK    7  A    between atoms: C_13  and  C_14
REMARK    8  A    between atoms: C_14  and  S_15
REMARK                            x       y       z     vdW  Elec       q    Type
REMARK                         _______ _______ _______ _____ _____    ______ ____
ROOT
ATOM      1  C   UNL     1       5.697   6.395  17.206  0.00  0.00    +0.000 A 
ATOM      2  C   UNL     1       6.025   5.034  17.281  0.00  0.00    +0.000 A 
ATOM      3  C   UNL     1       5.029   4.059  17.449  0.00  0.00    +0.000 A 
ATOM      4  C   UNL     1       3.707   4.451  17.663  0.00  0.00    +0.000 A 
ATOM      5  C   UNL     1       3.367   5.806  17.589  0.00  0.00    +0.000 A 
ATOM      6  C   UNL     1       4.363   6.769  17.365  0.00  0.00    +0.000 A 
ENDROOT
BRANCH   4   7
ATOM      7  S   UNL     1       2.483   3.194  18.028  0.00  0.00    +0.000 S 
ATOM      8  O   UNL     1       1.230   3.642  17.430  0.00  0.00    +0.000 OA
ATOM      9  O   UNL     1       3.073   1.932  17.664  0.00  0.00    +0.000 OA
BRANCH   7  10
ATOM     10  C   UNL     1       2.257   3.197  19.803  0.00  0.00    +0.000 C 
BRANCH  10  11
ATOM     11  C   UNL     1       1.093   4.105  20.190  0.00  0.00    +0.000 C 
BRANCH  11  12
ATOM     12  S   UNL     1       1.681   5.684  20.902  0.00  0.00    +0.000 S 
ATOM     13  H   UNL     1       1.079   5.596  22.099  0.00  0.00    +0.000 HD
ENDBRANCH  11  12
ENDBRANCH  10  11
ENDBRANCH   7  10
ENDBRANCH   4   7
BRANCH   1  14
ATOM     14  O   UNL     1       6.729   7.259  16.944  0.00  0.00    +0.000 OA
BRANCH  14  15
ATOM     15  C   UNL     1       7.780   7.316  17.929  0.00  0.00    +0.000 C 
BRANCH  15  18
ATOM     16  C   UNL     1       9.162  11.415  18.320  0.00  0.00    +0.000 C 
ATOM     17  C   UNL     1       8.679   9.980  18.183  0.00  0.00    +0.000 C 
ATOM     18  C   UNL     1       8.264   8.750  18.066  0.00  0.00    +0.000 C 
ENDBRANCH  15  18
ENDBRANCH  14  15
ENDBRANCH   1  14
TORSDOF 7
ENDMDL
MODEL 6
REMARK VINA RESULT:      -5.8      1.451      1.919
REMARK  Name = 
REMARK  8 active torsions:
REMARK  status: ('A' for Active; 'I' for Inactive)
REMARK    1  A    between atoms: C_1  and  C_2
REMARK    2  A    between atoms: C_3  and  C_4
REMARK    3  A    between atoms: C_4  and  O_5
REMARK    4  A    between atoms: O_5  and  C_6
REMARK    5  A    between atoms: C_9  and  S_10
REMARK    6  A    between atoms: S_10  and  C_13
REMARK    7  A    between atoms: C_13  and  C_14
REMARK    8  A    between atoms: C_14  and  S_15
REMARK                            x       y       z     vdW  Elec       q    Type
REMARK                         _______ _______ _______ _____ _____    ______ ____
ROOT
ATOM      1  C   UNL     1       6.461   5.154  15.521  0.00  0.00    +0.000 A 
ATOM      2  C   UNL     1       5.103   5.476  15.653  0.00  0.00    +0.000 A 
ATOM      3  C   UNL     1       4.414   5.220  16.849  0.00  0.00    +0.000 A 
ATOM      4  C   UNL     1       5.052   4.532  17.882  0.00  0.00    +0.000 A 
ATOM      5  C   UNL     1       6.407   4.206  17.762  0.00  0.00    +0.000 A 
ATOM      6  C   UNL     1       7.102   4.516  16.583  0.00  0.00    +0.000 A 
ENDROOT
BRANCH   4   7
ATOM      7  S   UNL     1       4.103   4.083  19.334  0.00  0.00    +0.000 S 
ATOM      8  O   UNL     1       4.864   3.052  20.031  0.00  0.00    +0.000 OA
ATOM      9  O   UNL     1       3.748   5.316  19.987  0.00  0.00    +0.000 OA
BRANCH   7  10
ATOM     10  C   UNL     1       2.592   3.324  18.747  0.00  0.00    +0.000 C 
BRANCH  10  11
ATOM     11  C   UNL     1       1.422   3.696  19.654  0.00  0.00    +0.000 C 
BRANCH  11  12
ATOM     12  S   UNL     1       1.491   2.792  21.243  0.00  0.00    +0.000 S 
ATOM     13  H   UNL     1       0.422   2.000  21.065  0.00  0.00    +0.000 HD
ENDBRANCH  11  12
ENDBRANCH  10  11
ENDBRANCH   7  10
ENDBRANCH   4   7
BRANCH   1  14
ATOM     14  O   UNL     1       7.068   5.531  14.350  0.00  0.00    +0.000 OA
BRANCH  14  15
ATOM     15  C   UNL     1       7.478   4.465  13.471  0.00  0.00    +0.000 C 
BRANCH  15  18
ATOM     16  C   UNL     1       4.031   3.024  11.255  0.00  0.00    +0.000 C 
ATOM     17  C   UNL     1       5.237   3.528  12.031  0.00  0.00    +0.000 C 
ATOM     18  C   UNL     1       6.272   3.961  12.696  0.00  0.00    +0.000 C 
ENDBRANCH  15  18
ENDBRANCH  14  15
ENDBRANCH   1  14
TORSDOF 7
ENDMDL
MODEL 7
REMARK VINA RESULT:      -5.8      4.010      6.355
REMARK  Name = 
REMARK  8 active torsions:
REMARK  status: ('A' for Active; 'I' for Inactive)
REMARK    1  A    between atoms: C_1  and  C_2
REMARK    2  A    between atoms: C_3  and  C_4
REMARK    3  A    between atoms: C_4  and  O_5
REMARK    4  A    between atoms: O_5  and  C_6
REMARK    5  A    between atoms: C_9  and  S_10
REMARK    6  A    between atoms: S_10  and  C_13
REMARK    7  A    between atoms: C_13  and  C_14
REMARK    8  A    between atoms: C_14  and  S_15
REMARK                            x       y       z     vdW  Elec       q    Type
REMARK                         _______ _______ _______ _____ _____    ______ ____
ROOT
ATOM      1  C   UNL     1       7.392   7.161  17.636  0.00  0.00    +0.000 A 
ATOM      2  C   UNL     1       6.137   7.071  17.018  0.00  0.00    +0.000 A 
ATOM      3  C   UNL     1       5.218   6.076  17.389  0.00  0.00    +0.000 A 
ATOM      4  C   UNL     1       5.598   5.091  18.302  0.00  0.00    +0.000 A 
ATOM      5  C   UNL     1       6.847   5.171  18.926  0.00  0.00    +0.000 A 
ATOM      6  C   UNL     1       7.737   6.202  18.588  0.00  0.00    +0.000 A 
ENDROOT
BRANCH   4   7
ATOM      7  S   UNL     1       4.462   3.747  18.641  0.00  0.00    +0.000 S 
ATOM      8  O   UNL     1       4.219   3.074  17.370  0.00  0.00    +0.000 OA
ATOM      9  O   UNL     1       4.998   3.034  19.771  0.00  0.00    +0.000 OA
BRANCH   7  10
ATOM     10  C   UNL     1       2.919   4.495  19.151  0.00  0.00    +0.000 C 
BRANCH  10  11
ATOM     11  C   UNL     1       1.782   4.047  18.238  0.00  0.00    +0.000 C 
BRANCH  11  12
ATOM     12  S   UNL     1       0.981   2.524  18.859  0.00  0.00    +0.000 S 
ATOM     13  H   UNL     1       0.224   2.247  17.785  0.00  0.00    +0.000 HD
ENDBRANCH  11  12
ENDBRANCH  10  11
ENDBRANCH   7  10
ENDBRANCH   4   7
BRANCH   1  14
ATOM     14  O   UNL     1       8.178   8.225  17.272  0.00  0.00    +0.000 OA
BRANCH  14  15
ATOM     15  C   UNL     1       7.764   9.519  17.754  0.00  0.00    +0.000 C 
BRANCH  15  18
ATOM     16  C   UNL     1      11.157  11.523  19.581  0.00  0.00    +0.000 C 
ATOM     17  C   UNL     1       9.970  10.821  18.942  0.00  0.00    +0.000 C 
ATOM     18  C   UNL     1       8.951  10.220  18.393  0.00  0.00    +0.000 C 
ENDBRANCH  15  18
ENDBRANCH  14  15
ENDBRANCH   1  14
TORSDOF 7
ENDMDL
MODEL 8
REMARK VINA RESULT:      -5.8      3.926      5.691
REMARK  Name = 
REMARK  8 active torsions:
REMARK  status: ('A' for Active; 'I' for Inactive)
REMARK    1  A    between atoms: C_1  and  C_2
REMARK    2  A    between atoms: C_3  and  C_4
REMARK    3  A    between atoms: C_4  and  O_5
REMARK    4  A    between atoms: O_5  and  C_6
REMARK    5  A    between atoms: C_9  and  S_10
REMARK    6  A    between atoms: S_10  and  C_13
REMARK    7  A    between atoms: C_13  and  C_14
REMARK    8  A    between atoms: C_14  and  S_15
REMARK                            x       y       z     vdW  Elec       q    Type
REMARK                         _______ _______ _______ _____ _____    ______ ____
ROOT
ATOM      1  C   UNL     1       5.728   6.322  17.521  0.00  0.00    +0.000 A 
ATOM      2  C   UNL     1       6.166   5.467  18.542  0.00  0.00    +0.000 A 
ATOM      3  C   UNL     1       5.422   4.333  18.904  0.00  0.00    +0.000 A 
ATOM      4  C   UNL     1       4.172   4.112  18.323  0.00  0.00    +0.000 A 
ATOM      5  C   UNL     1       3.725   4.957  17.302  0.00  0.00    +0.000 A 
ATOM      6  C   UNL     1       4.502   6.058  16.910  0.00  0.00    +0.000 A 
ENDROOT
BRANCH   4   7
ATOM      7  S   UNL     1       3.177   2.743  18.913  0.00  0.00    +0.000 S 
ATOM      8  O   UNL     1       2.782   1.975  17.738  0.00  0.00    +0.000 OA
ATOM      9  O   UNL     1       3.917   2.134  19.987  0.00  0.00    +0.000 OA
BRANCH   7  10
ATOM     10  C   UNL     1       1.690   3.452  19.611  0.00  0.00    +0.000 C 
BRANCH  10  11
ATOM     11  C   UNL     1       2.026   4.294  20.839  0.00  0.00    +0.000 C 
BRANCH  11  12
ATOM     12  S   UNL     1       1.834   6.081  20.501  0.00  0.00    +0.000 S 
ATOM     13  H   UNL     1       0.549   6.071  20.112  0.00  0.00    +0.000 HD
ENDBRANCH  11  12
ENDBRANCH  10  11
ENDBRANCH   7  10
ENDBRANCH   4   7
BRANCH   1  14
ATOM     14  O   UNL     1       6.572   7.347  17.178  0.00  0.00    +0.000 OA
BRANCH  14  15
ATOM     15  C   UNL     1       7.840   7.386  17.863  0.00  0.00    +0.000 C 
BRANCH  15  18
ATOM     16  C   UNL     1       9.126  11.515  18.268  0.00  0.00    +0.000 C 
ATOM     17  C   UNL     1       8.676  10.070  18.126  0.00  0.00    +0.000 C 
ATOM     18  C   UNL     1       8.290   8.830  18.004  0.00  0.00    +0.000 C 
ENDBRANCH  15  18
ENDBRANCH  14  15
ENDBRANCH   1  14
TORSDOF 7
ENDMDL
MODEL 9
REMARK VINA RESULT:      -5.8      3.705      5.870
REMARK  Name = 
REMARK  8 active torsions:
REMARK  status: ('A' for Active; 'I' for Inactive)
REMARK    1  A    between atoms: C_1  and  C_2
REMARK    2  A    between atoms: C_3  and  C_4
REMARK    3  A    between atoms: C_4  and  O_5
REMARK    4  A    between atoms: O_5  and  C_6
REMARK    5  A    between atoms: C_9  and  S_10
REMARK    6  A    between atoms: S_10  and  C_13
REMARK    7  A    between atoms: C_13  and  C_14
REMARK    8  A    between atoms: C_14  and  S_15
REMARK                            x       y       z     vdW  Elec       q    Type
REMARK                         _______ _______ _______ _____ _____    ______ ____
ROOT
ATOM      1  C   UNL     1       6.304   6.383  17.481  0.00  0.00    +0.000 A 
ATOM      2  C   UNL     1       5.351   6.151  16.479  0.00  0.00    +0.000 A 
ATOM      3  C   UNL     1       4.274   5.277  16.694  0.00  0.00    +0.000 A 
ATOM      4  C   UNL     1       4.210   4.536  17.875  0.00  0.00    +0.000 A 
ATOM      5  C   UNL     1       5.155   4.759  18.883  0.00  0.00    +0.000 A 
ATOM      6  C   UNL     1       6.196   5.677  18.679  0.00  0.00    +0.000 A 
ENDROOT
BRANCH   4   7
ATOM      7  S   UNL     1       2.911   3.316  18.058  0.00  0.00    +0.000 S 
ATOM      8  O   UNL     1       2.244   3.217  16.764  0.00  0.00    +0.000 OA
ATOM      9  O   UNL     1       3.517   2.163  18.673  0.00  0.00    +0.000 OA
BRANCH   7  10
ATOM     10  C   UNL     1       1.728   3.993  19.217  0.00  0.00    +0.000 C 
BRANCH  10  11
ATOM     11  C   UNL     1       1.096   2.878  20.045  0.00  0.00    +0.000 C 
BRANCH  11  12
ATOM     12  S   UNL     1       1.847   2.769  21.709  0.00  0.00    +0.000 S 
ATOM     13  H   UNL     1       1.058   3.654  22.340  0.00  0.00    +0.000 HD
ENDBRANCH  11  12
ENDBRANCH  10  11
ENDBRANCH   7  10
ENDBRANCH   4   7
BRANCH   1  14
ATOM     14  O   UNL     1       7.261   7.326  17.208  0.00  0.00    +0.000 OA
BRANCH  14  15
ATOM     15  C   UNL     1       8.173   7.639  18.280  0.00  0.00    +0.000 C 
BRANCH  15  18
ATOM     16  C   UNL     1       9.134  11.873  18.159  0.00  0.00    +0.000 C 
ATOM     17  C   UNL     1       8.798  10.391  18.202  0.00  0.00    +0.000 C 
ATOM     18  C   UNL     1       8.509   9.120  18.238  0.00  0.00    +0.000 C 
ENDBRANCH  15  18
ENDBRANCH  14  15
ENDBRANCH   1  14
TORSDOF 7
ENDMDL
