MODEL 1
REMARK VINA RESULT:      -8.2      0.000      0.000
REMARK  Name = 
REMARK  8 active torsions:
REMARK  status: ('A' for Active; 'I' for Inactive)
REMARK    1  A    between atoms: C_1  and  C_2
REMARK    2  A    between atoms: C_2  and  C_3
REMARK    3  A    between atoms: C_3  and  N_4
REMARK    4  A    between atoms: N_7  and  C_8
REMARK    5  A    between atoms: C_16  and  N_17
REMARK    6  A    between atoms: N_20  and  C_21
REMARK    7  A    between atoms: C_21  and  C_22
REMARK    8  A    between atoms: C_22  and  C_23
REMARK                            x       y       z     vdW  Elec       q    Type
REMARK                         _______ _______ _______ _____ _____    ______ ____
ROOT
ATOM      1  C   UNL     1       4.024   5.911  17.746  0.00  0.00    +0.000 A 
ATOM      2  C   UNL     1       3.722   5.312  18.976  0.00  0.00    +0.000 A 
ATOM      3  C   UNL     1       2.883   5.948  19.886  0.00  0.00    +0.000 A 
ATOM      4  C   UNL     1       2.330   7.198  19.579  0.00  0.00    +0.000 A 
ATOM      5  C   UNL     1       1.518   7.883  20.491  0.00  0.00    +0.000 A 
ATOM      6  C   UNL     1       1.020   9.149  20.169  0.00  0.00    +0.000 A 
ATOM      7  C   UNL     1       0.251   9.887  21.076  0.00  0.00    +0.000 A 
ATOM      8  C   UNL     1      -0.209  11.164  20.738  0.00  0.00    +0.000 A 
ATOM      9  C   UNL     1       0.075  11.719  19.484  0.00  0.00    +0.000 A 
ATOM     10  C   UNL     1       0.847  10.954  18.594  0.00  0.00    +0.000 A 
ATOM     11  C   UNL     1       1.328   9.682  18.906  0.00  0.00    +0.000 A 
ATOM     12  N   UNL     1       2.083   9.015  18.015  0.00  0.00    +0.000 NA
ATOM     13  C   UNL     1       2.597   7.812  18.342  0.00  0.00    +0.000 A 
ATOM     14  C   UNL     1       3.433   7.146  17.450  0.00  0.00    +0.000 A 
ENDROOT
BRANCH   1  18
ATOM     15  N   UNL     1       6.733   4.821  15.565  0.00  0.00    +0.000 N 
ATOM     16  C   UNL     1       6.091   5.705  16.381  0.00  0.00    +0.000 C 
ATOM     17  N   UNL     1       6.640   6.835  16.670  0.00  0.00    +0.000 NA
ATOM     18  N   UNL     1       4.901   5.245  16.866  0.00  0.00    +0.000 N 
ATOM     19  H   UNL     1       7.676   5.074  15.300  0.00  0.00    +0.000 HD
ATOM     20  H   UNL     1       7.526   6.935  16.182  0.00  0.00    +0.000 HD
ATOM     21  H   UNL     1       4.853   4.240  16.922  0.00  0.00    +0.000 HD
BRANCH  15  22
ATOM     22  C   UNL     1       6.050   3.944  14.625  0.00  0.00    +0.000 C 
BRANCH  22  24
ATOM     23  C   UNL     1       5.879   3.221  12.192  0.00  0.00    +0.000 C 
ATOM     24  C   UNL     1       6.596   4.102  13.207  0.00  0.00    +0.000 C 
ENDBRANCH  22  24
ENDBRANCH  15  22
ENDBRANCH   1  18
BRANCH   9  25
ATOM     25  N   UNL     1      -0.430  13.001  19.170  0.00  0.00    +0.000 N 
ATOM     26  C   UNL     1       0.184  14.210  19.342  0.00  0.00    +0.000 C 
ATOM     27  N   UNL     1       1.319  14.458  19.897  0.00  0.00    +0.000 NA
ATOM     28  N   UNL     1      -0.538  15.224  18.763  0.00  0.00    +0.000 N 
ATOM     29  H   UNL     1      -1.042  13.005  18.364  0.00  0.00    +0.000 HD
ATOM     30  H   UNL     1       1.746  13.596  20.230  0.00  0.00    +0.000 HD
ATOM     31  H   UNL     1      -1.468  15.306  19.162  0.00  0.00    +0.000 HD
BRANCH  28  32
ATOM     32  C   UNL     1       0.120  16.518  18.576  0.00  0.00    +0.000 C 
BRANCH  32  33
ATOM     33  C   UNL     1      -0.744  17.531  17.833  0.00  0.00    +0.000 C 
ATOM     34  C   UNL     1      -0.005  18.301  16.752  0.00  0.00    +0.000 C 
ENDBRANCH  32  33
ENDBRANCH  28  32
ENDBRANCH   9  25
TORSDOF 6
ENDMDL
MODEL 2
REMARK VINA RESULT:      -7.8      0.837      1.011
REMARK  Name = 
REMARK  8 active torsions:
REMARK  status: ('A' for Active; 'I' for Inactive)
REMARK    1  A    between atoms: C_1  and  C_2
REMARK    2  A    between atoms: C_2  and  C_3
REMARK    3  A    between atoms: C_3  and  N_4
REMARK    4  A    between atoms: N_7  and  C_8
REMARK    5  A    between atoms: C_16  and  N_17
REMARK    6  A    between atoms: N_20  and  C_21
REMARK    7  A    between atoms: C_21  and  C_22
REMARK    8  A    between atoms: C_22  and  C_23
REMARK                            x       y       z     vdW  Elec       q    Type
REMARK                         _______ _______ _______ _____ _____    ______ ____
ROOT
ATOM      1  C   UNL     1       4.459   6.018  17.526  0.00  0.00    +0.000 A 
ATOM      2  C   UNL     1       4.182   5.312  18.704  0.00  0.00    +0.000 A 
ATOM      3  C   UNL     1       3.273   5.811  19.632  0.00  0.00    +0.000 A 
ATOM      4  C   UNL     1       2.623   7.030  19.396  0.00  0.00    +0.000 A 
ATOM      5  C   UNL     1       1.737   7.579  20.330  0.00  0.00    +0.000 A 
ATOM      6  C   UNL     1       1.141   8.819  20.081  0.00  0.00    +0.000 A 
ATOM      7  C   UNL     1       0.292   9.425  21.015  0.00  0.00    +0.000 A 
ATOM      8  C   UNL     1      -0.266  10.681  20.753  0.00  0.00    +0.000 A 
ATOM      9  C   UNL     1      -0.002  11.344  19.548  0.00  0.00    +0.000 A 
ATOM     10  C   UNL     1       0.850  10.710  18.629  0.00  0.00    +0.000 A 
ATOM     11  C   UNL     1       1.430   9.464  18.867  0.00  0.00    +0.000 A 
ATOM     12  N   UNL     1       2.258   8.925  17.954  0.00  0.00    +0.000 NA
ATOM     13  C   UNL     1       2.865   7.749  18.211  0.00  0.00    +0.000 A 
ATOM     14  C   UNL     1       3.773   7.219  17.299  0.00  0.00    +0.000 A 
ENDROOT
BRANCH   1  18
ATOM     15  N   UNL     1       7.427   4.913  15.723  0.00  0.00    +0.000 N 
ATOM     16  C   UNL     1       6.767   5.535  16.742  0.00  0.00    +0.000 C 
ATOM     17  N   UNL     1       7.428   6.052  17.721  0.00  0.00    +0.000 NA
ATOM     18  N   UNL     1       5.407   5.491  16.627  0.00  0.00    +0.000 N 
ATOM     19  H   UNL     1       8.426   4.809  15.847  0.00  0.00    +0.000 HD
ATOM     20  H   UNL     1       8.428   5.950  17.567  0.00  0.00    +0.000 HD
ATOM     21  H   UNL     1       5.076   4.700  16.098  0.00  0.00    +0.000 HD
BRANCH  15  22
ATOM     22  C   UNL     1       6.984   4.937  14.337  0.00  0.00    +0.000 C 
BRANCH  22  24
ATOM     23  C   UNL     1       6.042   3.500  12.461  0.00  0.00    +0.000 C 
ATOM     24  C   UNL     1       6.228   3.663  13.964  0.00  0.00    +0.000 C 
ENDBRANCH  22  24
ENDBRANCH  15  22
ENDBRANCH   1  18
BRANCH   9  25
ATOM     25  N   UNL     1      -0.607  12.599  19.308  0.00  0.00    +0.000 N 
ATOM     26  C   UNL     1      -0.038  13.837  19.411  0.00  0.00    +0.000 C 
ATOM     27  N   UNL     1       1.143  14.143  19.822  0.00  0.00    +0.000 NA
ATOM     28  N   UNL     1      -0.877  14.813  18.934  0.00  0.00    +0.000 N 
ATOM     29  H   UNL     1      -1.314  12.572  18.584  0.00  0.00    +0.000 HD
ATOM     30  H   UNL     1       1.651  13.303  20.093  0.00  0.00    +0.000 HD
ATOM     31  H   UNL     1      -1.753  14.848  19.446  0.00  0.00    +0.000 HD
BRANCH  28  32
ATOM     32  C   UNL     1      -0.314  16.140  18.676  0.00  0.00    +0.000 C 
BRANCH  32  33
ATOM     33  C   UNL     1      -1.153  17.273  19.254  0.00  0.00    +0.000 C 
ATOM     34  C   UNL     1      -0.741  17.700  20.652  0.00  0.00    +0.000 C 
ENDBRANCH  32  33
ENDBRANCH  28  32
ENDBRANCH   9  25
TORSDOF 6
ENDMDL
MODEL 3
REMARK VINA RESULT:      -7.8      1.273      1.418
REMARK  Name = 
REMARK  8 active torsions:
REMARK  status: ('A' for Active; 'I' for Inactive)
REMARK    1  A    between atoms: C_1  and  C_2
REMARK    2  A    between atoms: C_2  and  C_3
REMARK    3  A    between atoms: C_3  and  N_4
REMARK    4  A    between atoms: N_7  and  C_8
REMARK    5  A    between atoms: C_16  and  N_17
REMARK    6  A    between atoms: N_20  and  C_21
REMARK    7  A    between atoms: C_21  and  C_22
REMARK    8  A    between atoms: C_22  and  C_23
REMARK                            x       y       z     vdW  Elec       q    Type
REMARK                         _______ _______ _______ _____ _____    ______ ____
ROOT
ATOM      1  C   UNL     1       4.016   5.453  17.776  0.00  0.00    +0.000 A 
ATOM      2  C   UNL     1       3.672   4.653  18.873  0.00  0.00    +0.000 A 
ATOM      3  C   UNL     1       2.831   5.142  19.869  0.00  0.00    +0.000 A 
ATOM      4  C   UNL     1       2.319   6.443  19.782  0.00  0.00    +0.000 A 
ATOM      5  C   UNL     1       1.506   6.978  20.788  0.00  0.00    +0.000 A 
ATOM      6  C   UNL     1       1.050   8.296  20.690  0.00  0.00    +0.000 A 
ATOM      7  C   UNL     1       0.282   8.883  21.702  0.00  0.00    +0.000 A 
ATOM      8  C   UNL     1      -0.136  10.214  21.592  0.00  0.00    +0.000 A 
ATOM      9  C   UNL     1       0.191  10.975  20.463  0.00  0.00    +0.000 A 
ATOM     10  C   UNL     1       0.961  10.359  19.463  0.00  0.00    +0.000 A 
ATOM     11  C   UNL     1       1.400   9.037  19.549  0.00  0.00    +0.000 A 
ATOM     12  N   UNL     1       2.155   8.517  18.566  0.00  0.00    +0.000 NA
ATOM     13  C   UNL     1       2.630   7.260  18.680  0.00  0.00    +0.000 A 
ATOM     14  C   UNL     1       3.466   6.739  17.696  0.00  0.00    +0.000 A 
ENDROOT
BRANCH   1  18
ATOM     15  N   UNL     1       6.741   3.949  15.878  0.00  0.00    +0.000 N 
ATOM     16  C   UNL     1       6.137   4.404  17.013  0.00  0.00    +0.000 C 
ATOM     17  N   UNL     1       6.721   4.272  18.155  0.00  0.00    +0.000 NA
ATOM     18  N   UNL     1       4.894   4.929  16.805  0.00  0.00    +0.000 N 
ATOM     19  H   UNL     1       7.601   3.434  16.015  0.00  0.00    +0.000 HD
ATOM     20  H   UNL     1       7.639   3.848  18.038  0.00  0.00    +0.000 HD
ATOM     21  H   UNL     1       4.431   4.550  15.995  0.00  0.00    +0.000 HD
BRANCH  15  22
ATOM     22  C   UNL     1       6.620   4.599  14.581  0.00  0.00    +0.000 C 
BRANCH  22  24
ATOM     23  C   UNL     1       6.470   3.533  12.276  0.00  0.00    +0.000 C 
ATOM     24  C   UNL     1       5.778   3.771  13.612  0.00  0.00    +0.000 C 
ENDBRANCH  22  24
ENDBRANCH  15  22
ENDBRANCH   1  18
BRANCH   9  25
ATOM     25  N   UNL     1      -0.272  12.308  20.375  0.00  0.00    +0.000 N 
ATOM     26  C   UNL     1       0.368  13.446  20.778  0.00  0.00    +0.000 C 
ATOM     27  N   UNL     1       1.492  13.555  21.395  0.00  0.00    +0.000 NA
ATOM     28  N   UNL     1      -0.312  14.569  20.377  0.00  0.00    +0.000 N 
ATOM     29  H   UNL     1      -0.861  12.476  19.570  0.00  0.00    +0.000 HD
ATOM     30  H   UNL     1       1.888  12.635  21.575  0.00  0.00    +0.000 HD
ATOM     31  H   UNL     1      -1.250  14.606  20.763  0.00  0.00    +0.000 HD
BRANCH  28  32
ATOM     32  C   UNL     1       0.384  15.855  20.444  0.00  0.00    +0.000 C 
BRANCH  32  33
ATOM     33  C   UNL     1       0.674  16.455  19.072  0.00  0.00    +0.000 C 
ATOM     34  C   UNL     1       2.136  16.794  18.840  0.00  0.00    +0.000 C 
ENDBRANCH  32  33
ENDBRANCH  28  32
ENDBRANCH   9  25
TORSDOF 6
ENDMDL
MODEL 4
REMARK VINA RESULT:      -7.8      1.301      9.970
REMARK  Name = 
REMARK  8 active torsions:
REMARK  status: ('A' for Active; 'I' for Inactive)
REMARK    1  A    between atoms: C_1  and  C_2
REMARK    2  A    between atoms: C_2  and  C_3
REMARK    3  A    between atoms: C_3  and  N_4
REMARK    4  A    between atoms: N_7  and  C_8
REMARK    5  A    between atoms: C_16  and  N_17
REMARK    6  A    between atoms: N_20  and  C_21
REMARK    7  A    between atoms: C_21  and  C_22
REMARK    8  A    between atoms: C_22  and  C_23
REMARK                            x       y       z     vdW  Elec       q    Type
REMARK                         _______ _______ _______ _____ _____    ______ ____
ROOT
ATOM      1  C   UNL     1      -0.214  11.842  20.992  0.00  0.00    +0.000 A 
ATOM      2  C   UNL     1      -0.511  11.190  22.197  0.00  0.00    +0.000 A 
ATOM      3  C   UNL     1      -0.124   9.869  22.401  0.00  0.00    +0.000 A 
ATOM      4  C   UNL     1       0.568   9.175  21.399  0.00  0.00    +0.000 A 
ATOM      5  C   UNL     1       0.932   7.833  21.556  0.00  0.00    +0.000 A 
ATOM      6  C   UNL     1       1.582   7.159  20.518  0.00  0.00    +0.000 A 
ATOM      7  C   UNL     1       1.912   5.803  20.617  0.00  0.00    +0.000 A 
ATOM      8  C   UNL     1       2.535   5.146  19.551  0.00  0.00    +0.000 A 
ATOM      9  C   UNL     1       2.855   5.836  18.375  0.00  0.00    +0.000 A 
ATOM     10  C   UNL     1       2.514   7.196  18.304  0.00  0.00    +0.000 A 
ATOM     11  C   UNL     1       1.883   7.875  19.347  0.00  0.00    +0.000 A 
ATOM     12  N   UNL     1       1.562   9.174  19.204  0.00  0.00    +0.000 NA
ATOM     13  C   UNL     1       0.899   9.812  20.189  0.00  0.00    +0.000 A 
ATOM     14  C   UNL     1       0.505  11.137  20.019  0.00  0.00    +0.000 A 
ENDROOT
BRANCH   1  18
ATOM     15  N   UNL     1      -1.925  14.948  20.148  0.00  0.00    +0.000 N 
ATOM     16  C   UNL     1      -1.743  13.597  20.118  0.00  0.00    +0.000 C 
ATOM     17  N   UNL     1      -2.594  12.842  19.511  0.00  0.00    +0.000 NA
ATOM     18  N   UNL     1      -0.650  13.171  20.817  0.00  0.00    +0.000 N 
ATOM     19  H   UNL     1      -2.796  15.282  19.757  0.00  0.00    +0.000 HD
ATOM     20  H   UNL     1      -3.318  13.405  19.072  0.00  0.00    +0.000 HD
ATOM     21  H   UNL     1      -0.388  13.791  21.567  0.00  0.00    +0.000 HD
BRANCH  15  22
ATOM     22  C   UNL     1      -0.835  15.912  20.119  0.00  0.00    +0.000 C 
BRANCH  22  24
ATOM     23  C   UNL     1      -0.782  17.389  18.049  0.00  0.00    +0.000 C 
ATOM     24  C   UNL     1      -0.290  16.106  18.706  0.00  0.00    +0.000 C 
ENDBRANCH  22  24
ENDBRANCH  15  22
ENDBRANCH   1  18
BRANCH   9  25
ATOM     25  N   UNL     1       3.509   5.144  17.329  0.00  0.00    +0.000 N 
ATOM     26  C   UNL     1       4.778   5.338  16.862  0.00  0.00    +0.000 C 
ATOM     27  N   UNL     1       5.631   6.237  17.211  0.00  0.00    +0.000 NA
ATOM     28  N   UNL     1       5.130   4.367  15.957  0.00  0.00    +0.000 N 
ATOM     29  H   UNL     1       3.225   4.176  17.249  0.00  0.00    +0.000 HD
ATOM     30  H   UNL     1       5.231   6.846  17.922  0.00  0.00    +0.000 HD
ATOM     31  H   UNL     1       4.517   4.358  15.148  0.00  0.00    +0.000 HD
BRANCH  28  32
ATOM     32  C   UNL     1       6.545   4.238  15.602  0.00  0.00    +0.000 C 
BRANCH  32  33
ATOM     33  C   UNL     1       6.838   4.608  14.152  0.00  0.00    +0.000 C 
ATOM     34  C   UNL     1       6.162   3.707  13.133  0.00  0.00    +0.000 C 
ENDBRANCH  32  33
ENDBRANCH  28  32
ENDBRANCH   9  25
TORSDOF 6
ENDMDL
MODEL 5
REMARK VINA RESULT:      -7.8      1.369      9.717
REMARK  Name = 
REMARK  8 active torsions:
REMARK  status: ('A' for Active; 'I' for Inactive)
REMARK    1  A    between atoms: C_1  and  C_2
REMARK    2  A    between atoms: C_2  and  C_3
REMARK    3  A    between atoms: C_3  and  N_4
REMARK    4  A    between atoms: N_7  and  C_8
REMARK    5  A    between atoms: C_16  and  N_17
REMARK    6  A    between atoms: N_20  and  C_21
REMARK    7  A    between atoms: C_21  and  C_22
REMARK    8  A    between atoms: C_22  and  C_23
REMARK                            x       y       z     vdW  Elec       q    Type
REMARK                         _______ _______ _______ _____ _____    ______ ____
ROOT
ATOM      1  C   UNL     1       0.284  10.716  20.181  0.00  0.00    +0.000 A 
ATOM      2  C   UNL     1       0.011  10.028  21.371  0.00  0.00    +0.000 A 
ATOM      3  C   UNL     1       0.495   8.739  21.570  0.00  0.00    +0.000 A 
ATOM      4  C   UNL     1       1.263   8.114  20.577  0.00  0.00    +0.000 A 
ATOM      5  C   UNL     1       1.728   6.803  20.729  0.00  0.00    +0.000 A 
ATOM      6  C   UNL     1       2.453   6.195  19.700  0.00  0.00    +0.000 A 
ATOM      7  C   UNL     1       2.886   4.867  19.792  0.00  0.00    +0.000 A 
ATOM      8  C   UNL     1       3.583   4.276  18.733  0.00  0.00    +0.000 A 
ATOM      9  C   UNL     1       3.876   5.003  17.573  0.00  0.00    +0.000 A 
ATOM     10  C   UNL     1       3.430   6.334  17.510  0.00  0.00    +0.000 A 
ATOM     11  C   UNL     1       2.724   6.948  18.544  0.00  0.00    +0.000 A 
ATOM     12  N   UNL     1       2.306   8.219  18.408  0.00  0.00    +0.000 NA
ATOM     13  C   UNL     1       1.571   8.791  19.383  0.00  0.00    +0.000 A 
ATOM     14  C   UNL     1       1.080  10.082  19.218  0.00  0.00    +0.000 A 
ENDROOT
BRANCH   1  18
ATOM     15  N   UNL     1      -1.343  13.779  19.058  0.00  0.00    +0.000 N 
ATOM     16  C   UNL     1      -0.921  12.489  18.922  0.00  0.00    +0.000 C 
ATOM     17  N   UNL     1      -1.210  11.822  17.857  0.00  0.00    +0.000 NA
ATOM     18  N   UNL     1      -0.250  12.010  20.010  0.00  0.00    +0.000 N 
ATOM     19  H   UNL     1      -1.958  14.118  18.330  0.00  0.00    +0.000 HD
ATOM     20  H   UNL     1      -1.719  12.407  17.199  0.00  0.00    +0.000 HD
ATOM     21  H   UNL     1      -0.508  12.464  20.872  0.00  0.00    +0.000 HD
BRANCH  15  22
ATOM     22  C   UNL     1      -0.580  14.813  19.741  0.00  0.00    +0.000 C 
BRANCH  22  24
ATOM     23  C   UNL     1       1.726  15.144  18.720  0.00  0.00    +0.000 C 
ATOM     24  C   UNL     1       0.279  15.617  18.767  0.00  0.00    +0.000 C 
ENDBRANCH  22  24
ENDBRANCH  15  22
ENDBRANCH   1  18
BRANCH   9  25
ATOM     25  N   UNL     1       4.606   4.379  16.537  0.00  0.00    +0.000 N 
ATOM     26  C   UNL     1       5.341   4.976  15.551  0.00  0.00    +0.000 C 
ATOM     27  N   UNL     1       5.468   6.232  15.298  0.00  0.00    +0.000 NA
ATOM     28  N   UNL     1       6.051   4.051  14.827  0.00  0.00    +0.000 N 
ATOM     29  H   UNL     1       4.998   3.485  16.803  0.00  0.00    +0.000 HD
ATOM     30  H   UNL     1       4.916   6.782  15.954  0.00  0.00    +0.000 HD
ATOM     31  H   UNL     1       5.446   3.374  14.374  0.00  0.00    +0.000 HD
BRANCH  28  32
ATOM     32  C   UNL     1       7.121   4.535  13.953  0.00  0.00    +0.000 C 
BRANCH  32  33
ATOM     33  C   UNL     1       6.896   4.200  12.483  0.00  0.00    +0.000 C 
ATOM     34  C   UNL     1       5.741   3.245  12.234  0.00  0.00    +0.000 C 
ENDBRANCH  32  33
ENDBRANCH  28  32
ENDBRANCH   9  25
TORSDOF 6
ENDMDL
MODEL 6
REMARK VINA RESULT:      -7.7      0.944      1.026
REMARK  Name = 
REMARK  8 active torsions:
REMARK  status: ('A' for Active; 'I' for Inactive)
REMARK    1  A    between atoms: C_1  and  C_2
REMARK    2  A    between atoms: C_2  and  C_3
REMARK    3  A    between atoms: C_3  and  N_4
REMARK    4  A    between atoms: N_7  and  C_8
REMARK    5  A    between atoms: C_16  and  N_17
REMARK    6  A    between atoms: N_20  and  C_21
REMARK    7  A    between atoms: C_21  and  C_22
REMARK    8  A    between atoms: C_22  and  C_23
REMARK                            x       y       z     vdW  Elec       q    Type
REMARK                         _______ _______ _______ _____ _____    ______ ____
ROOT
ATOM      1  C   UNL     1       3.616   5.684  18.496  0.00  0.00    +0.000 A 
ATOM      2  C   UNL     1       3.253   5.205  19.762  0.00  0.00    +0.000 A 
ATOM      3  C   UNL     1       2.417   5.950  20.588  0.00  0.00    +0.000 A 
ATOM      4  C   UNL     1       1.928   7.191  20.159  0.00  0.00    +0.000 A 
ATOM      5  C   UNL     1       1.120   7.984  20.983  0.00  0.00    +0.000 A 
ATOM      6  C   UNL     1       0.686   9.237  20.540  0.00  0.00    +0.000 A 
ATOM      7  C   UNL     1      -0.076  10.080  21.356  0.00  0.00    +0.000 A 
ATOM      8  C   UNL     1      -0.470  11.342  20.898  0.00  0.00    +0.000 A 
ATOM      9  C   UNL     1      -0.127  11.775  19.611  0.00  0.00    +0.000 A 
ATOM     10  C   UNL     1       0.637  10.906  18.814  0.00  0.00    +0.000 A 
ATOM     11  C   UNL     1       1.053   9.648  19.247  0.00  0.00    +0.000 A 
ATOM     12  N   UNL     1       1.803   8.876  18.441  0.00  0.00    +0.000 NA
ATOM     13  C   UNL     1       2.256   7.686  18.884  0.00  0.00    +0.000 A 
ATOM     14  C   UNL     1       3.088   6.913  18.078  0.00  0.00    +0.000 A 
ENDROOT
BRANCH   1  18
ATOM     15  N   UNL     1       6.426   4.093  16.805  0.00  0.00    +0.000 N 
ATOM     16  C   UNL     1       5.850   4.996  17.650  0.00  0.00    +0.000 C 
ATOM     17  N   UNL     1       6.586   5.794  18.346  0.00  0.00    +0.000 NA
ATOM     18  N   UNL     1       4.488   4.911  17.704  0.00  0.00    +0.000 N 
ATOM     19  H   UNL     1       7.435   4.039  16.845  0.00  0.00    +0.000 HD
ATOM     20  H   UNL     1       7.568   5.655  18.123  0.00  0.00    +0.000 HD
ATOM     21  H   UNL     1       4.135   3.993  17.482  0.00  0.00    +0.000 HD
BRANCH  15  22
ATOM     22  C   UNL     1       5.843   3.686  15.535  0.00  0.00    +0.000 C 
BRANCH  22  24
ATOM     23  C   UNL     1       6.153   3.723  13.011  0.00  0.00    +0.000 C 
ATOM     24  C   UNL     1       6.578   4.311  14.351  0.00  0.00    +0.000 C 
ENDBRANCH  22  24
ENDBRANCH  15  22
ENDBRANCH   1  18
BRANCH   9  25
ATOM     25  N   UNL     1      -0.567  13.045  19.174  0.00  0.00    +0.000 N 
ATOM     26  C   UNL     1       0.009  14.261  19.415  0.00  0.00    +0.000 C 
ATOM     27  N   UNL     1       1.029  14.531  20.152  0.00  0.00    +0.000 NA
ATOM     28  N   UNL     1      -0.599  15.254  18.687  0.00  0.00    +0.000 N 
ATOM     29  H   UNL     1      -1.028  13.022  18.273  0.00  0.00    +0.000 HD
ATOM     30  H   UNL     1       1.389  13.681  20.581  0.00  0.00    +0.000 HD
ATOM     31  H   UNL     1      -1.584  15.345  18.914  0.00  0.00    +0.000 HD
BRANCH  28  32
ATOM     32  C   UNL     1       0.084  16.545  18.579  0.00  0.00    +0.000 C 
BRANCH  32  33
ATOM     33  C   UNL     1      -0.643  17.672  19.304  0.00  0.00    +0.000 C 
ATOM     34  C   UNL     1      -2.092  17.848  18.883  0.00  0.00    +0.000 C 
ENDBRANCH  32  33
ENDBRANCH  28  32
ENDBRANCH   9  25
TORSDOF 6
ENDMDL
MODEL 7
REMARK VINA RESULT:      -7.7      3.823     11.380
REMARK  Name = 
REMARK  8 active torsions:
REMARK  status: ('A' for Active; 'I' for Inactive)
REMARK    1  A    between atoms: C_1  and  C_2
REMARK    2  A    between atoms: C_2  and  C_3
REMARK    3  A    between atoms: C_3  and  N_4
REMARK    4  A    between atoms: N_7  and  C_8
REMARK    5  A    between atoms: C_16  and  N_17
REMARK    6  A    between atoms: N_20  and  C_21
REMARK    7  A    between atoms: C_21  and  C_22
REMARK    8  A    between atoms: C_22  and  C_23
REMARK                            x       y       z     vdW  Elec       q    Type
REMARK                         _______ _______ _______ _____ _____    ______ ____
ROOT
ATOM      1  C   UNL     1      -1.617  12.644  22.454  0.00  0.00    +0.000 A 
ATOM      2  C   UNL     1      -1.700  13.251  21.193  0.00  0.00    +0.000 A 
ATOM      3  C   UNL     1      -1.123  12.650  20.079  0.00  0.00    +0.000 A 
ATOM      4  C   UNL     1      -0.451  11.427  20.207  0.00  0.00    +0.000 A 
ATOM      5  C   UNL     1       0.177  10.818  19.114  0.00  0.00    +0.000 A 
ATOM      6  C   UNL     1       0.877   9.621  19.288  0.00  0.00    +0.000 A 
ATOM      7  C   UNL     1       1.563   9.012  18.231  0.00  0.00    +0.000 A 
ATOM      8  C   UNL     1       2.281   7.830  18.441  0.00  0.00    +0.000 A 
ATOM      9  C   UNL     1       2.311   7.226  19.704  0.00  0.00    +0.000 A 
ATOM     10  C   UNL     1       1.612   7.858  20.745  0.00  0.00    +0.000 A 
ATOM     11  C   UNL     1       0.896   9.042  20.568  0.00  0.00    +0.000 A 
ATOM     12  N   UNL     1       0.268   9.608  21.615  0.00  0.00    +0.000 NA
ATOM     13  C   UNL     1      -0.372  10.784  21.456  0.00  0.00    +0.000 A 
ATOM     14  C   UNL     1      -0.967  11.406  22.550  0.00  0.00    +0.000 A 
ENDROOT
BRANCH   1  18
ATOM     15  N   UNL     1      -3.747  13.975  25.095  0.00  0.00    +0.000 N 
ATOM     16  C   UNL     1      -3.493  13.251  23.967  0.00  0.00    +0.000 C 
ATOM     17  N   UNL     1      -4.432  12.561  23.415  0.00  0.00    +0.000 NA
ATOM     18  N   UNL     1      -2.190  13.301  23.560  0.00  0.00    +0.000 N 
ATOM     19  H   UNL     1      -4.666  13.850  25.498  0.00  0.00    +0.000 HD
ATOM     20  H   UNL     1      -5.309  12.692  23.914  0.00  0.00    +0.000 HD
ATOM     21  H   UNL     1      -1.543  13.481  24.312  0.00  0.00    +0.000 HD
BRANCH  15  22
ATOM     22  C   UNL     1      -3.119  15.254  25.395  0.00  0.00    +0.000 C 
BRANCH  22  24
ATOM     23  C   UNL     1      -5.086  16.700  24.683  0.00  0.00    +0.000 C 
ATOM     24  C   UNL     1      -3.618  16.360  24.466  0.00  0.00    +0.000 C 
ENDBRANCH  22  24
ENDBRANCH  15  22
ENDBRANCH   1  18
BRANCH   9  25
ATOM     25  N   UNL     1       3.025   6.017  19.870  0.00  0.00    +0.000 N 
ATOM     26  C   UNL     1       2.516   4.763  20.064  0.00  0.00    +0.000 C 
ATOM     27  N   UNL     1       1.287   4.414  20.218  0.00  0.00    +0.000 NA
ATOM     28  N   UNL     1       3.503   3.810  20.011  0.00  0.00    +0.000 N 
ATOM     29  H   UNL     1       3.896   5.990  19.356  0.00  0.00    +0.000 HD
ATOM     30  H   UNL     1       0.681   5.231  20.185  0.00  0.00    +0.000 HD
ATOM     31  H   UNL     1       4.213   3.954  20.722  0.00  0.00    +0.000 HD
BRANCH  28  32
ATOM     32  C   UNL     1       3.101   2.409  19.881  0.00  0.00    +0.000 C 
BRANCH  32  33
ATOM     33  C   UNL     1       3.307   1.850  18.477  0.00  0.00    +0.000 C 
ATOM     34  C   UNL     1       3.063   2.858  17.367  0.00  0.00    +0.000 C 
ENDBRANCH  32  33
ENDBRANCH  28  32
ENDBRANCH   9  25
TORSDOF 6
ENDMDL
MODEL 8
REMARK VINA RESULT:      -7.6      3.243      4.316
REMARK  Name = 
REMARK  8 active torsions:
REMARK  status: ('A' for Active; 'I' for Inactive)
REMARK    1  A    between atoms: C_1  and  C_2
REMARK    2  A    between atoms: C_2  and  C_3
REMARK    3  A    between atoms: C_3  and  N_4
REMARK    4  A    between atoms: N_7  and  C_8
REMARK    5  A    between atoms: C_16  and  N_17
REMARK    6  A    between atoms: N_20  and  C_21
REMARK    7  A    between atoms: C_21  and  C_22
REMARK    8  A    between atoms: C_22  and  C_23
REMARK                            x       y       z     vdW  Elec       q    Type
REMARK                         _______ _______ _______ _____ _____    ______ ____
ROOT
ATOM      1  C   UNL     1       3.112   6.142  19.173  0.00  0.00    +0.000 A 
ATOM      2  C   UNL     1       3.315   6.708  17.907  0.00  0.00    +0.000 A 
ATOM      3  C   UNL     1       2.760   7.942  17.586  0.00  0.00    +0.000 A 
ATOM      4  C   UNL     1       1.989   8.634  18.530  0.00  0.00    +0.000 A 
ATOM      5  C   UNL     1       1.381   9.857  18.223  0.00  0.00    +0.000 A 
ATOM      6  C   UNL     1       0.582  10.498  19.174  0.00  0.00    +0.000 A 
ATOM      7  C   UNL     1      -0.086  11.694  18.886  0.00  0.00    +0.000 A 
ATOM      8  C   UNL     1      -0.904  12.297  19.847  0.00  0.00    +0.000 A 
ATOM      9  C   UNL     1      -1.055  11.728  21.117  0.00  0.00    +0.000 A 
ATOM     10  C   UNL     1      -0.371  10.530  21.379  0.00  0.00    +0.000 A 
ATOM     11  C   UNL     1       0.444   9.899  20.438  0.00  0.00    +0.000 A 
ATOM     12  N   UNL     1       1.050   8.740  20.747  0.00  0.00    +0.000 NA
ATOM     13  C   UNL     1       1.788   8.101  19.816  0.00  0.00    +0.000 A 
ATOM     14  C   UNL     1       2.363   6.868  20.109  0.00  0.00    +0.000 A 
ENDROOT
BRANCH   1  18
ATOM     15  N   UNL     1       5.165   3.147  19.493  0.00  0.00    +0.000 N 
ATOM     16  C   UNL     1       4.890   4.409  19.053  0.00  0.00    +0.000 C 
ATOM     17  N   UNL     1       5.770   5.066  18.377  0.00  0.00    +0.000 NA
ATOM     18  N   UNL     1       3.668   4.876  19.446  0.00  0.00    +0.000 N 
ATOM     19  H   UNL     1       6.112   2.825  19.335  0.00  0.00    +0.000 HD
ATOM     20  H   UNL     1       6.596   4.494  18.220  0.00  0.00    +0.000 HD
ATOM     21  H   UNL     1       3.335   4.456  20.299  0.00  0.00    +0.000 HD
BRANCH  15  22
ATOM     22  C   UNL     1       4.170   2.090  19.593  0.00  0.00    +0.000 C 
BRANCH  22  24
ATOM     23  C   UNL     1       2.150   2.043  18.047  0.00  0.00    +0.000 C 
ATOM     24  C   UNL     1       3.624   1.697  18.221  0.00  0.00    +0.000 C 
ENDBRANCH  22  24
ENDBRANCH  15  22
ENDBRANCH   1  18
BRANCH   9  25
ATOM     25  N   UNL     1      -1.868  12.382  22.071  0.00  0.00    +0.000 N 
ATOM     26  C   UNL     1      -1.541  13.448  22.861  0.00  0.00    +0.000 C 
ATOM     27  N   UNL     1      -0.405  14.043  22.972  0.00  0.00    +0.000 NA
ATOM     28  N   UNL     1      -2.638  13.922  23.538  0.00  0.00    +0.000 N 
ATOM     29  H   UNL     1      -2.850  12.386  21.826  0.00  0.00    +0.000 HD
ATOM     30  H   UNL     1       0.286  13.601  22.370  0.00  0.00    +0.000 HD
ATOM     31  H   UNL     1      -3.044  13.218  24.147  0.00  0.00    +0.000 HD
BRANCH  28  32
ATOM     32  C   UNL     1      -2.540  15.237  24.173  0.00  0.00    +0.000 C 
BRANCH  32  33
ATOM     33  C   UNL     1      -2.442  15.166  25.693  0.00  0.00    +0.000 C 
ATOM     34  C   UNL     1      -1.186  15.801  26.264  0.00  0.00    +0.000 C 
ENDBRANCH  32  33
ENDBRANCH  28  32
ENDBRANCH   9  25
TORSDOF 6
ENDMDL
MODEL 9
REMARK VINA RESULT:      -7.6      1.027      1.401
REMARK  Name = 
REMARK  8 active torsions:
REMARK  status: ('A' for Active; 'I' for Inactive)
REMARK    1  A    between atoms: C_1  and  C_2
REMARK    2  A    between atoms: C_2  and  C_3
REMARK    3  A    between atoms: C_3  and  N_4
REMARK    4  A    between atoms: N_7  and  C_8
REMARK    5  A    between atoms: C_16  and  N_17
REMARK    6  A    between atoms: N_20  and  C_21
REMARK    7  A    between atoms: C_21  and  C_22
REMARK    8  A    between atoms: C_22  and  C_23
REMARK                            x       y       z     vdW  Elec       q    Type
REMARK                         _______ _______ _______ _____ _____    ______ ____
ROOT
ATOM      1  C   UNL     1       3.587   6.302  18.172  0.00  0.00    +0.000 A 
ATOM      2  C   UNL     1       3.202   5.804  19.424  0.00  0.00    +0.000 A 
ATOM      3  C   UNL     1       2.349   6.535  20.245  0.00  0.00    +0.000 A 
ATOM      4  C   UNL     1       1.865   7.782  19.825  0.00  0.00    +0.000 A 
ATOM      5  C   UNL     1       1.041   8.561  20.645  0.00  0.00    +0.000 A 
ATOM      6  C   UNL     1       0.613   9.819  20.212  0.00  0.00    +0.000 A 
ATOM      7  C   UNL     1      -0.167  10.649  21.025  0.00  0.00    +0.000 A 
ATOM      8  C   UNL     1      -0.555  11.917  20.578  0.00  0.00    +0.000 A 
ATOM      9  C   UNL     1      -0.188  12.369  19.304  0.00  0.00    +0.000 A 
ATOM     10  C   UNL     1       0.592  11.514  18.509  0.00  0.00    +0.000 A 
ATOM     11  C   UNL     1       1.003  10.249  18.932  0.00  0.00    +0.000 A 
ATOM     12  N   UNL     1       1.770   9.491  18.129  0.00  0.00    +0.000 NA
ATOM     13  C   UNL     1       2.217   8.295  18.563  0.00  0.00    +0.000 A 
ATOM     14  C   UNL     1       3.065   7.535  17.762  0.00  0.00    +0.000 A 
ENDROOT
BRANCH   1  18
ATOM     15  N   UNL     1       5.503   3.729  16.441  0.00  0.00    +0.000 N 
ATOM     16  C   UNL     1       4.557   4.180  17.314  0.00  0.00    +0.000 C 
ATOM     17  N   UNL     1       3.804   3.343  17.942  0.00  0.00    +0.000 NA
ATOM     18  N   UNL     1       4.476   5.541  17.386  0.00  0.00    +0.000 N 
ATOM     19  H   UNL     1       5.496   2.733  16.263  0.00  0.00    +0.000 HD
ATOM     20  H   UNL     1       4.066   2.387  17.711  0.00  0.00    +0.000 HD
ATOM     21  H   UNL     1       4.780   6.005  16.545  0.00  0.00    +0.000 HD
BRANCH  15  22
ATOM     22  C   UNL     1       6.792   4.375  16.239  0.00  0.00    +0.000 C 
BRANCH  22  24
ATOM     23  C   UNL     1       6.184   3.955  13.805  0.00  0.00    +0.000 C 
ATOM     24  C   UNL     1       6.989   4.799  14.784  0.00  0.00    +0.000 C 
ENDBRANCH  22  24
ENDBRANCH  15  22
ENDBRANCH   1  18
BRANCH   9  25
ATOM     25  N   UNL     1      -0.622  13.645  18.877  0.00  0.00    +0.000 N 
ATOM     26  C   UNL     1      -0.216  14.866  19.336  0.00  0.00    +0.000 C 
ATOM     27  N   UNL     1       0.589  15.129  20.306  0.00  0.00    +0.000 NA
ATOM     28  N   UNL     1      -0.726  15.883  18.568  0.00  0.00    +0.000 N 
ATOM     29  H   UNL     1      -0.867  13.678  17.896  0.00  0.00    +0.000 HD
ATOM     30  H   UNL     1       0.913  14.266  20.740  0.00  0.00    +0.000 HD
ATOM     31  H   UNL     1      -1.741  15.891  18.569  0.00  0.00    +0.000 HD
BRANCH  28  32
ATOM     32  C   UNL     1      -0.144  17.218  18.719  0.00  0.00    +0.000 C 
BRANCH  32  33
ATOM     33  C   UNL     1       0.789  17.602  17.576  0.00  0.00    +0.000 C 
ATOM     34  C   UNL     1       0.182  18.573  16.579  0.00  0.00    +0.000 C 
ENDBRANCH  32  33
ENDBRANCH  28  32
ENDBRANCH   9  25
TORSDOF 6
ENDMDL
