MODEL 1
REMARK VINA RESULT:      -7.4      0.000      0.000
REMARK  Name = 
REMARK  6 active torsions:
REMARK  status: ('A' for Active; 'I' for Inactive)
REMARK    1  A    between atoms: C_2  and  C_3
REMARK    2  A    between atoms: C_3  and  C_4
REMARK    3  A    between atoms: C_4  and  C_5
REMARK    4  A    between atoms: C_5  and  N_6
REMARK    5  A    between atoms: N_13  and  C_14
REMARK    6  A    between atoms: C_17  and  C_18
REMARK                            x       y       z     vdW  Elec       q    Type
REMARK                         _______ _______ _______ _____ _____    ______ ____
ROOT
ATOM      1  O   UNL     1       5.413   7.288  17.304  0.00  0.00    +0.000 OA
ATOM      2  C   UNL     1       4.766   6.254  17.431  0.00  0.00    +0.000 C 
ATOM      3  N   UNL     1       3.533   6.109  18.055  0.00  0.00    +0.000 N 
ATOM      4  H   UNL     1       3.254   5.173  18.340  0.00  0.00    +0.000 HD
ENDROOT
BRANCH   3   5
ATOM      5  C   UNL     1       2.743   7.175  18.452  0.00  0.00    +0.000 A 
ATOM      6  C   UNL     1       2.414   8.334  17.779  0.00  0.00    +0.000 A 
ATOM      7  N   UNL     1       1.647   9.243  18.500  0.00  0.00    +0.000 NA
ATOM      8  C   UNL     1       1.390   8.759  19.702  0.00  0.00    +0.000 A 
ATOM      9  S   UNL     1       2.091   7.227  20.018  0.00  0.00    +0.000 S 
BRANCH   8  10
ATOM     10  C   UNL     1       0.646   9.448  20.766  0.00  0.00    +0.000 A 
ATOM     11  C   UNL     1      -0.108  10.613  20.527  0.00  0.00    +0.000 A 
ATOM     12  C   UNL     1      -0.826  11.229  21.554  0.00  0.00    +0.000 A 
ATOM     13  C   UNL     1      -0.796  10.693  22.839  0.00  0.00    +0.000 A 
ATOM     14  C   UNL     1      -0.056   9.540  23.094  0.00  0.00    +0.000 A 
ATOM     15  C   UNL     1       0.662   8.924  22.065  0.00  0.00    +0.000 A 
ENDBRANCH   8  10
ENDBRANCH   3   5
BRANCH   2  16
ATOM     16  C   UNL     1       5.359   4.959  16.937  0.00  0.00    +0.000 C 
BRANCH  16  17
ATOM     17  C   UNL     1       4.263   4.010  16.458  0.00  0.00    +0.000 C 
BRANCH  17  18
ATOM     18  C   UNL     1       4.071   2.794  17.376  0.00  0.00    +0.000 C 
BRANCH  18  19
ATOM     19  N   UNL     1       3.310   3.116  18.602  0.00  0.00    +0.000 NA
ATOM     20  C   UNL     1       1.953   2.552  18.555  0.00  0.00    +0.000 C 
ATOM     21  C   UNL     1       0.957   3.433  19.311  0.00  0.00    +0.000 C 
ATOM     22  C   UNL     1       0.950   3.235  20.819  0.00  0.00    +0.000 C 
ATOM     23  C   UNL     1       2.300   3.461  21.490  0.00  0.00    +0.000 C 
ATOM     24  C   UNL     1       3.334   2.416  21.087  0.00  0.00    +0.000 C 
ATOM     25  C   UNL     1       4.087   2.725  19.790  0.00  0.00    +0.000 C 
ENDBRANCH  18  19
ENDBRANCH  17  18
ENDBRANCH  16  17
ENDBRANCH   2  16
TORSDOF 6
ENDMDL
MODEL 2
REMARK VINA RESULT:      -7.3      5.626      8.989
REMARK  Name = 
REMARK  6 active torsions:
REMARK  status: ('A' for Active; 'I' for Inactive)
REMARK    1  A    between atoms: C_2  and  C_3
REMARK    2  A    between atoms: C_3  and  C_4
REMARK    3  A    between atoms: C_4  and  C_5
REMARK    4  A    between atoms: C_5  and  N_6
REMARK    5  A    between atoms: N_13  and  C_14
REMARK    6  A    between atoms: C_17  and  C_18
REMARK                            x       y       z     vdW  Elec       q    Type
REMARK                         _______ _______ _______ _____ _____    ______ ____
ROOT
ATOM      1  O   UNL     1       8.268   7.132  18.656  0.00  0.00    +0.000 OA
ATOM      2  C   UNL     1       7.767   7.881  17.825  0.00  0.00    +0.000 C 
ATOM      3  N   UNL     1       6.815   7.551  16.868  0.00  0.00    +0.000 N 
ATOM      4  H   UNL     1       6.704   8.178  16.074  0.00  0.00    +0.000 HD
ENDROOT
BRANCH   3   5
ATOM      5  C   UNL     1       6.127   6.349  16.850  0.00  0.00    +0.000 A 
ATOM      6  C   UNL     1       6.275   5.256  16.022  0.00  0.00    +0.000 A 
ATOM      7  N   UNL     1       5.364   4.226  16.227  0.00  0.00    +0.000 NA
ATOM      8  C   UNL     1       4.547   4.540  17.217  0.00  0.00    +0.000 A 
ATOM      9  S   UNL     1       4.818   6.089  17.898  0.00  0.00    +0.000 S 
BRANCH   8  10
ATOM     10  C   UNL     1       3.422   3.724  17.697  0.00  0.00    +0.000 A 
ATOM     11  C   UNL     1       3.554   2.351  17.980  0.00  0.00    +0.000 A 
ATOM     12  C   UNL     1       2.472   1.609  18.461  0.00  0.00    +0.000 A 
ATOM     13  C   UNL     1       1.240   2.229  18.661  0.00  0.00    +0.000 A 
ATOM     14  C   UNL     1       1.094   3.587  18.386  0.00  0.00    +0.000 A 
ATOM     15  C   UNL     1       2.176   4.328  17.905  0.00  0.00    +0.000 A 
ENDBRANCH   8  10
ENDBRANCH   3   5
BRANCH   2  16
ATOM     16  C   UNL     1       8.251   9.306  17.742  0.00  0.00    +0.000 C 
BRANCH  16  17
ATOM     17  C   UNL     1       9.046   9.680  18.990  0.00  0.00    +0.000 C 
BRANCH  17  18
ATOM     18  C   UNL     1       9.871  10.965  18.820  0.00  0.00    +0.000 C 
BRANCH  18  19
ATOM     19  N   UNL     1       9.415  12.060  19.701  0.00  0.00    +0.000 NA
ATOM     20  C   UNL     1      10.218  12.130  20.931  0.00  0.00    +0.000 C 
ATOM     21  C   UNL     1       9.385  12.629  22.113  0.00  0.00    +0.000 C 
ATOM     22  C   UNL     1       9.215  14.138  22.179  0.00  0.00    +0.000 C 
ATOM     23  C   UNL     1       8.586  14.757  20.936  0.00  0.00    +0.000 C 
ATOM     24  C   UNL     1       9.484  14.641  19.709  0.00  0.00    +0.000 C 
ATOM     25  C   UNL     1       9.358  13.321  18.943  0.00  0.00    +0.000 C 
ENDBRANCH  18  19
ENDBRANCH  17  18
ENDBRANCH  16  17
ENDBRANCH   2  16
TORSDOF 6
ENDMDL
MODEL 3
REMARK VINA RESULT:      -7.2      5.372      8.348
REMARK  Name = 
REMARK  6 active torsions:
REMARK  status: ('A' for Active; 'I' for Inactive)
REMARK    1  A    between atoms: C_2  and  C_3
REMARK    2  A    between atoms: C_3  and  C_4
REMARK    3  A    between atoms: C_4  and  C_5
REMARK    4  A    between atoms: C_5  and  N_6
REMARK    5  A    between atoms: N_13  and  C_14
REMARK    6  A    between atoms: C_17  and  C_18
REMARK                            x       y       z     vdW  Elec       q    Type
REMARK                         _______ _______ _______ _____ _____    ______ ____
ROOT
ATOM      1  O   UNL     1       7.919   6.762  18.630  0.00  0.00    +0.000 OA
ATOM      2  C   UNL     1       7.564   7.397  17.642  0.00  0.00    +0.000 C 
ATOM      3  N   UNL     1       6.569   7.050  16.738  0.00  0.00    +0.000 N 
ATOM      4  H   UNL     1       6.576   7.505  15.827  0.00  0.00    +0.000 HD
ENDROOT
BRANCH   3   5
ATOM      5  C   UNL     1       5.672   6.014  16.941  0.00  0.00    +0.000 A 
ATOM      6  C   UNL     1       5.423   4.894  16.175  0.00  0.00    +0.000 A 
ATOM      7  N   UNL     1       4.394   4.078  16.631  0.00  0.00    +0.000 NA
ATOM      8  C   UNL     1       3.885   4.577  17.744  0.00  0.00    +0.000 A 
ATOM      9  S   UNL     1       4.593   6.053  18.250  0.00  0.00    +0.000 S 
BRANCH   8  10
ATOM     10  C   UNL     1       2.752   4.020  18.498  0.00  0.00    +0.000 A 
ATOM     11  C   UNL     1       2.252   4.627  19.666  0.00  0.00    +0.000 A 
ATOM     12  C   UNL     1       1.158   4.088  20.344  0.00  0.00    +0.000 A 
ATOM     13  C   UNL     1       0.548   2.929  19.867  0.00  0.00    +0.000 A 
ATOM     14  C   UNL     1       1.029   2.317  18.712  0.00  0.00    +0.000 A 
ATOM     15  C   UNL     1       2.125   2.856  18.034  0.00  0.00    +0.000 A 
ENDBRANCH   8  10
ENDBRANCH   3   5
BRANCH   2  16
ATOM     16  C   UNL     1       8.302   8.662  17.286  0.00  0.00    +0.000 C 
BRANCH  16  17
ATOM     17  C   UNL     1       8.601   9.484  18.537  0.00  0.00    +0.000 C 
BRANCH  17  18
ATOM     18  C   UNL     1       9.270  10.832  18.229  0.00  0.00    +0.000 C 
BRANCH  18  19
ATOM     19  N   UNL     1       9.279  11.747  19.390  0.00  0.00    +0.000 NA
ATOM     20  C   UNL     1       9.330  11.004  20.658  0.00  0.00    +0.000 C 
ATOM     21  C   UNL     1       8.591  11.751  21.771  0.00  0.00    +0.000 C 
ATOM     22  C   UNL     1       9.391  12.863  22.430  0.00  0.00    +0.000 C 
ATOM     23  C   UNL     1       9.891  13.935  21.468  0.00  0.00    +0.000 C 
ATOM     24  C   UNL     1      10.929  13.402  20.488  0.00  0.00    +0.000 C 
ATOM     25  C   UNL     1      10.349  12.746  19.231  0.00  0.00    +0.000 C 
ENDBRANCH  18  19
ENDBRANCH  17  18
ENDBRANCH  16  17
ENDBRANCH   2  16
TORSDOF 6
ENDMDL
MODEL 4
REMARK VINA RESULT:      -7.1      0.537      1.656
REMARK  Name = 
REMARK  6 active torsions:
REMARK  status: ('A' for Active; 'I' for Inactive)
REMARK    1  A    between atoms: C_2  and  C_3
REMARK    2  A    between atoms: C_3  and  C_4
REMARK    3  A    between atoms: C_4  and  C_5
REMARK    4  A    between atoms: C_5  and  N_6
REMARK    5  A    between atoms: N_13  and  C_14
REMARK    6  A    between atoms: C_17  and  C_18
REMARK                            x       y       z     vdW  Elec       q    Type
REMARK                         _______ _______ _______ _____ _____    ______ ____
ROOT
ATOM      1  O   UNL     1       5.412   7.564  17.397  0.00  0.00    +0.000 OA
ATOM      2  C   UNL     1       4.676   6.601  17.209  0.00  0.00    +0.000 C 
ATOM      3  N   UNL     1       3.363   6.456  17.638  0.00  0.00    +0.000 N 
ATOM      4  H   UNL     1       2.975   5.516  17.667  0.00  0.00    +0.000 HD
ENDROOT
BRANCH   3   5
ATOM      5  C   UNL     1       2.610   7.488  18.175  0.00  0.00    +0.000 A 
ATOM      6  C   UNL     1       2.287   8.719  17.643  0.00  0.00    +0.000 A 
ATOM      7  N   UNL     1       1.566   9.559  18.484  0.00  0.00    +0.000 NA
ATOM      8  C   UNL     1       1.336   8.953  19.635  0.00  0.00    +0.000 A 
ATOM      9  S   UNL     1       2.011   7.383  19.759  0.00  0.00    +0.000 S 
BRANCH   8  10
ATOM     10  C   UNL     1       0.644   9.537  20.793  0.00  0.00    +0.000 A 
ATOM     11  C   UNL     1       0.536   8.866  22.026  0.00  0.00    +0.000 A 
ATOM     12  C   UNL     1      -0.105   9.460  23.115  0.00  0.00    +0.000 A 
ATOM     13  C   UNL     1      -0.654  10.734  22.986  0.00  0.00    +0.000 A 
ATOM     14  C   UNL     1      -0.555  11.413  21.773  0.00  0.00    +0.000 A 
ATOM     15  C   UNL     1       0.086  10.818  20.684  0.00  0.00    +0.000 A 
ENDBRANCH   8  10
ENDBRANCH   3   5
BRANCH   2  16
ATOM     16  C   UNL     1       5.228   5.389  16.504  0.00  0.00    +0.000 C 
BRANCH  16  17
ATOM     17  C   UNL     1       5.076   4.142  17.372  0.00  0.00    +0.000 C 
BRANCH  17  18
ATOM     18  C   UNL     1       3.736   3.419  17.162  0.00  0.00    +0.000 C 
BRANCH  18  19
ATOM     19  N   UNL     1       3.079   3.050  18.433  0.00  0.00    +0.000 NA
ATOM     20  C   UNL     1       3.872   3.482  19.594  0.00  0.00    +0.000 C 
ATOM     21  C   UNL     1       3.700   2.524  20.774  0.00  0.00    +0.000 C 
ATOM     22  C   UNL     1       2.440   2.748  21.595  0.00  0.00    +0.000 C 
ATOM     23  C   UNL     1       1.144   2.663  20.797  0.00  0.00    +0.000 C 
ATOM     24  C   UNL     1       1.008   3.793  19.784  0.00  0.00    +0.000 C 
ATOM     25  C   UNL     1       1.689   3.534  18.437  0.00  0.00    +0.000 C 
ENDBRANCH  18  19
ENDBRANCH  17  18
ENDBRANCH  16  17
ENDBRANCH   2  16
TORSDOF 6
ENDMDL
MODEL 5
REMARK VINA RESULT:      -7.0      0.919      1.563
REMARK  Name = 
REMARK  6 active torsions:
REMARK  status: ('A' for Active; 'I' for Inactive)
REMARK    1  A    between atoms: C_2  and  C_3
REMARK    2  A    between atoms: C_3  and  C_4
REMARK    3  A    between atoms: C_4  and  C_5
REMARK    4  A    between atoms: C_5  and  N_6
REMARK    5  A    between atoms: N_13  and  C_14
REMARK    6  A    between atoms: C_17  and  C_18
REMARK                            x       y       z     vdW  Elec       q    Type
REMARK                         _______ _______ _______ _____ _____    ______ ____
ROOT
ATOM      1  O   UNL     1       4.602   7.486  16.956  0.00  0.00    +0.000 OA
ATOM      2  C   UNL     1       4.156   6.491  17.518  0.00  0.00    +0.000 C 
ATOM      3  N   UNL     1       3.154   6.451  18.479  0.00  0.00    +0.000 N 
ATOM      4  H   UNL     1       3.087   5.618  19.059  0.00  0.00    +0.000 HD
ENDROOT
BRANCH   3   5
ATOM      5  C   UNL     1       2.352   7.534  18.799  0.00  0.00    +0.000 A 
ATOM      6  C   UNL     1       1.986   8.623  18.035  0.00  0.00    +0.000 A 
ATOM      7  N   UNL     1       1.218   9.579  18.691  0.00  0.00    +0.000 NA
ATOM      8  C   UNL     1       0.997   9.199  19.937  0.00  0.00    +0.000 A 
ATOM      9  S   UNL     1       1.734   7.713  20.369  0.00  0.00    +0.000 S 
BRANCH   8  10
ATOM     10  C   UNL     1       0.263   9.967  20.954  0.00  0.00    +0.000 A 
ATOM     11  C   UNL     1      -0.153   9.399  22.173  0.00  0.00    +0.000 A 
ATOM     12  C   UNL     1      -0.825  10.163  23.130  0.00  0.00    +0.000 A 
ATOM     13  C   UNL     1      -1.095  11.507  22.879  0.00  0.00    +0.000 A 
ATOM     14  C   UNL     1      -0.690  12.084  21.678  0.00  0.00    +0.000 A 
ATOM     15  C   UNL     1      -0.018  11.319  20.721  0.00  0.00    +0.000 A 
ENDBRANCH   8  10
ENDBRANCH   3   5
BRANCH   2  16
ATOM     16  C   UNL     1       4.776   5.149  17.222  0.00  0.00    +0.000 C 
BRANCH  16  17
ATOM     17  C   UNL     1       5.671   4.702  18.375  0.00  0.00    +0.000 C 
BRANCH  17  18
ATOM     18  C   UNL     1       5.122   3.480  19.127  0.00  0.00    +0.000 C 
BRANCH  18  19
ATOM     19  N   UNL     1       3.649   3.494  19.246  0.00  0.00    +0.000 NA
ATOM     20  C   UNL     1       3.055   2.256  18.720  0.00  0.00    +0.000 C 
ATOM     21  C   UNL     1       1.672   2.515  18.117  0.00  0.00    +0.000 C 
ATOM     22  C   UNL     1       0.541   2.586  19.130  0.00  0.00    +0.000 C 
ATOM     23  C   UNL     1       0.728   3.644  20.211  0.00  0.00    +0.000 C 
ATOM     24  C   UNL     1       1.898   3.332  21.137  0.00  0.00    +0.000 C 
ATOM     25  C   UNL     1       3.263   3.809  20.632  0.00  0.00    +0.000 C 
ENDBRANCH  18  19
ENDBRANCH  17  18
ENDBRANCH  16  17
ENDBRANCH   2  16
TORSDOF 6
ENDMDL
MODEL 6
REMARK VINA RESULT:      -6.8      6.322      9.575
REMARK  Name = 
REMARK  6 active torsions:
REMARK  status: ('A' for Active; 'I' for Inactive)
REMARK    1  A    between atoms: C_2  and  C_3
REMARK    2  A    between atoms: C_3  and  C_4
REMARK    3  A    between atoms: C_4  and  C_5
REMARK    4  A    between atoms: C_5  and  N_6
REMARK    5  A    between atoms: N_13  and  C_14
REMARK    6  A    between atoms: C_17  and  C_18
REMARK                            x       y       z     vdW  Elec       q    Type
REMARK                         _______ _______ _______ _____ _____    ______ ____
ROOT
ATOM      1  O   UNL     1       8.598   7.969  18.921  0.00  0.00    +0.000 OA
ATOM      2  C   UNL     1       8.056   8.514  17.965  0.00  0.00    +0.000 C 
ATOM      3  N   UNL     1       7.135   7.949  17.093  0.00  0.00    +0.000 N 
ATOM      4  H   UNL     1       6.991   8.406  16.195  0.00  0.00    +0.000 HD
ENDROOT
BRANCH   3   5
ATOM      5  C   UNL     1       6.526   6.723  17.305  0.00  0.00    +0.000 A 
ATOM      6  C   UNL     1       7.035   5.447  17.182  0.00  0.00    +0.000 A 
ATOM      7  N   UNL     1       6.125   4.419  17.403  0.00  0.00    +0.000 NA
ATOM      8  C   UNL     1       4.942   4.925  17.706  0.00  0.00    +0.000 A 
ATOM      9  S   UNL     1       4.876   6.637  17.693  0.00  0.00    +0.000 S 
BRANCH   8  10
ATOM     10  C   UNL     1       3.717   4.154  17.961  0.00  0.00    +0.000 A 
ATOM     11  C   UNL     1       2.571   4.729  18.545  0.00  0.00    +0.000 A 
ATOM     12  C   UNL     1       1.414   3.976  18.750  0.00  0.00    +0.000 A 
ATOM     13  C   UNL     1       1.385   2.633  18.378  0.00  0.00    +0.000 A 
ATOM     14  C   UNL     1       2.508   2.049  17.799  0.00  0.00    +0.000 A 
ATOM     15  C   UNL     1       3.667   2.803  17.594  0.00  0.00    +0.000 A 
ENDBRANCH   8  10
ENDBRANCH   3   5
BRANCH   2  16
ATOM     16  C   UNL     1       8.449   9.926  17.613  0.00  0.00    +0.000 C 
BRANCH  16  17
ATOM     17  C   UNL     1       9.281  10.550  18.730  0.00  0.00    +0.000 C 
BRANCH  17  18
ATOM     18  C   UNL     1      10.323  11.556  18.218  0.00  0.00    +0.000 C 
BRANCH  18  19
ATOM     19  N   UNL     1      10.247  12.861  18.907  0.00  0.00    +0.000 NA
ATOM     20  C   UNL     1      10.867  12.803  20.239  0.00  0.00    +0.000 C 
ATOM     21  C   UNL     1      10.175  13.754  21.217  0.00  0.00    +0.000 C 
ATOM     22  C   UNL     1      10.617  15.205  21.113  0.00  0.00    +0.000 C 
ATOM     23  C   UNL     1      10.433  15.823  19.732  0.00  0.00    +0.000 C 
ATOM     24  C   UNL     1      11.342  15.190  18.684  0.00  0.00    +0.000 C 
ATOM     25  C   UNL     1      10.785  13.919  18.035  0.00  0.00    +0.000 C 
ENDBRANCH  18  19
ENDBRANCH  17  18
ENDBRANCH  16  17
ENDBRANCH   2  16
TORSDOF 6
ENDMDL
MODEL 7
REMARK VINA RESULT:      -6.8      3.759      5.038
REMARK  Name = 
REMARK  6 active torsions:
REMARK  status: ('A' for Active; 'I' for Inactive)
REMARK    1  A    between atoms: C_2  and  C_3
REMARK    2  A    between atoms: C_3  and  C_4
REMARK    3  A    between atoms: C_4  and  C_5
REMARK    4  A    between atoms: C_5  and  N_6
REMARK    5  A    between atoms: N_13  and  C_14
REMARK    6  A    between atoms: C_17  and  C_18
REMARK                            x       y       z     vdW  Elec       q    Type
REMARK                         _______ _______ _______ _____ _____    ______ ____
ROOT
ATOM      1  O   UNL     1       1.339   9.666  19.719  0.00  0.00    +0.000 OA
ATOM      2  C   UNL     1       1.265   9.493  18.507  0.00  0.00    +0.000 C 
ATOM      3  N   UNL     1       0.214   9.852  17.673  0.00  0.00    +0.000 N 
ATOM      4  H   UNL     1       0.155   9.399  16.764  0.00  0.00    +0.000 HD
ENDROOT
BRANCH   3   5
ATOM      5  C   UNL     1      -0.838  10.662  18.067  0.00  0.00    +0.000 A 
ATOM      6  C   UNL     1      -0.826  11.866  18.739  0.00  0.00    +0.000 A 
ATOM      7  N   UNL     1      -2.078  12.389  19.046  0.00  0.00    +0.000 NA
ATOM      8  C   UNL     1      -3.023  11.586  18.590  0.00  0.00    +0.000 A 
ATOM      9  S   UNL     1      -2.443  10.168  17.823  0.00  0.00    +0.000 S 
BRANCH   8  10
ATOM     10  C   UNL     1      -4.471  11.777  18.761  0.00  0.00    +0.000 A 
ATOM     11  C   UNL     1      -5.409  11.330  17.810  0.00  0.00    +0.000 A 
ATOM     12  C   UNL     1      -6.779  11.503  18.014  0.00  0.00    +0.000 A 
ATOM     13  C   UNL     1      -7.233  12.132  19.172  0.00  0.00    +0.000 A 
ATOM     14  C   UNL     1      -6.320  12.580  20.123  0.00  0.00    +0.000 A 
ATOM     15  C   UNL     1      -4.948  12.407  19.918  0.00  0.00    +0.000 A 
ENDBRANCH   8  10
ENDBRANCH   3   5
BRANCH   2  16
ATOM     16  C   UNL     1       2.377   8.751  17.809  0.00  0.00    +0.000 C 
BRANCH  16  17
ATOM     17  C   UNL     1       2.227   7.245  18.003  0.00  0.00    +0.000 C 
BRANCH  17  18
ATOM     18  C   UNL     1       2.797   6.748  19.340  0.00  0.00    +0.000 C 
BRANCH  18  19
ATOM     19  N   UNL     1       2.587   5.300  19.550  0.00  0.00    +0.000 NA
ATOM     20  C   UNL     1       1.680   5.046  20.679  0.00  0.00    +0.000 C 
ATOM     21  C   UNL     1       2.031   3.739  21.393  0.00  0.00    +0.000 C 
ATOM     22  C   UNL     1       1.493   2.485  20.724  0.00  0.00    +0.000 C 
ATOM     23  C   UNL     1       1.937   2.302  19.277  0.00  0.00    +0.000 C 
ATOM     24  C   UNL     1       1.363   3.368  18.351  0.00  0.00    +0.000 C 
ATOM     25  C   UNL     1       2.172   4.667  18.287  0.00  0.00    +0.000 C 
ENDBRANCH  18  19
ENDBRANCH  17  18
ENDBRANCH  16  17
ENDBRANCH   2  16
TORSDOF 6
ENDMDL
MODEL 8
REMARK VINA RESULT:      -6.7      2.946      4.556
REMARK  Name = 
REMARK  6 active torsions:
REMARK  status: ('A' for Active; 'I' for Inactive)
REMARK    1  A    between atoms: C_2  and  C_3
REMARK    2  A    between atoms: C_3  and  C_4
REMARK    3  A    between atoms: C_4  and  C_5
REMARK    4  A    between atoms: C_5  and  N_6
REMARK    5  A    between atoms: N_13  and  C_14
REMARK    6  A    between atoms: C_17  and  C_18
REMARK                            x       y       z     vdW  Elec       q    Type
REMARK                         _______ _______ _______ _____ _____    ______ ____
ROOT
ATOM      1  O   UNL     1      -0.165   9.794  18.415  0.00  0.00    +0.000 OA
ATOM      2  C   UNL     1       0.949   9.624  18.898  0.00  0.00    +0.000 C 
ATOM      3  N   UNL     1       1.360   9.943  20.186  0.00  0.00    +0.000 N 
ATOM      4  H   UNL     1       2.360  10.018  20.358  0.00  0.00    +0.000 HD
ENDROOT
BRANCH   3   5
ATOM      5  C   UNL     1       0.494  10.319  21.199  0.00  0.00    +0.000 A 
ATOM      6  C   UNL     1      -0.109   9.557  22.178  0.00  0.00    +0.000 A 
ATOM      7  N   UNL     1      -0.990  10.242  23.007  0.00  0.00    +0.000 NA
ATOM      8  C   UNL     1      -1.035  11.516  22.659  0.00  0.00    +0.000 A 
ATOM      9  S   UNL     1      -0.060  11.919  21.309  0.00  0.00    +0.000 S 
BRANCH   8  10
ATOM     10  C   UNL     1      -1.887  12.546  23.271  0.00  0.00    +0.000 A 
ATOM     11  C   UNL     1      -3.228  12.302  23.626  0.00  0.00    +0.000 A 
ATOM     12  C   UNL     1      -4.003  13.294  24.231  0.00  0.00    +0.000 A 
ATOM     13  C   UNL     1      -3.450  14.547  24.486  0.00  0.00    +0.000 A 
ATOM     14  C   UNL     1      -2.125  14.804  24.142  0.00  0.00    +0.000 A 
ATOM     15  C   UNL     1      -1.350  13.812  23.537  0.00  0.00    +0.000 A 
ENDBRANCH   8  10
ENDBRANCH   3   5
BRANCH   2  16
ATOM     16  C   UNL     1       2.047   9.079  18.021  0.00  0.00    +0.000 C 
BRANCH  16  17
ATOM     17  C   UNL     1       2.010   7.553  17.994  0.00  0.00    +0.000 C 
BRANCH  17  18
ATOM     18  C   UNL     1       3.006   6.907  18.969  0.00  0.00    +0.000 C 
BRANCH  18  19
ATOM     19  N   UNL     1       2.671   5.502  19.285  0.00  0.00    +0.000 NA
ATOM     20  C   UNL     1       1.807   5.410  20.471  0.00  0.00    +0.000 C 
ATOM     21  C   UNL     1       2.071   4.120  21.252  0.00  0.00    +0.000 C 
ATOM     22  C   UNL     1       1.378   2.887  20.695  0.00  0.00    +0.000 C 
ATOM     23  C   UNL     1       1.722   2.573  19.244  0.00  0.00    +0.000 C 
ATOM     24  C   UNL     1       1.203   3.631  18.278  0.00  0.00    +0.000 C 
ATOM     25  C   UNL     1       2.128   4.837  18.088  0.00  0.00    +0.000 C 
ENDBRANCH  18  19
ENDBRANCH  17  18
ENDBRANCH  16  17
ENDBRANCH   2  16
TORSDOF 6
ENDMDL
MODEL 9
REMARK VINA RESULT:      -6.7      0.730      1.415
REMARK  Name = 
REMARK  6 active torsions:
REMARK  status: ('A' for Active; 'I' for Inactive)
REMARK    1  A    between atoms: C_2  and  C_3
REMARK    2  A    between atoms: C_3  and  C_4
REMARK    3  A    between atoms: C_4  and  C_5
REMARK    4  A    between atoms: C_5  and  N_6
REMARK    5  A    between atoms: N_13  and  C_14
REMARK    6  A    between atoms: C_17  and  C_18
REMARK                            x       y       z     vdW  Elec       q    Type
REMARK                         _______ _______ _______ _____ _____    ______ ____
ROOT
ATOM      1  O   UNL     1       4.633   6.153  19.368  0.00  0.00    +0.000 OA
ATOM      2  C   UNL     1       4.267   6.032  18.204  0.00  0.00    +0.000 C 
ATOM      3  N   UNL     1       3.188   6.660  17.597  0.00  0.00    +0.000 N 
ATOM      4  H   UNL     1       2.829   6.258  16.734  0.00  0.00    +0.000 HD
ENDROOT
BRANCH   3   5
ATOM      5  C   UNL     1       2.475   7.697  18.177  0.00  0.00    +0.000 A 
ATOM      6  C   UNL     1       2.236   8.975  17.717  0.00  0.00    +0.000 A 
ATOM      7  N   UNL     1       1.535   9.800  18.588  0.00  0.00    +0.000 NA
ATOM      8  C   UNL     1       1.236   9.137  19.692  0.00  0.00    +0.000 A 
ATOM      9  S   UNL     1       1.821   7.527  19.734  0.00  0.00    +0.000 S 
BRANCH   8  10
ATOM     10  C   UNL     1       0.540   9.687  20.864  0.00  0.00    +0.000 A 
ATOM     11  C   UNL     1      -0.208  10.878  20.808  0.00  0.00    +0.000 A 
ATOM     12  C   UNL     1      -0.880  11.359  21.933  0.00  0.00    +0.000 A 
ATOM     13  C   UNL     1      -0.811  10.658  23.135  0.00  0.00    +0.000 A 
ATOM     14  C   UNL     1      -0.075   9.477  23.208  0.00  0.00    +0.000 A 
ATOM     15  C   UNL     1       0.597   8.996  22.082  0.00  0.00    +0.000 A 
ENDBRANCH   8  10
ENDBRANCH   3   5
BRANCH   2  16
ATOM     16  C   UNL     1       4.989   5.054  17.312  0.00  0.00    +0.000 C 
BRANCH  16  17
ATOM     17  C   UNL     1       4.044   3.950  16.845  0.00  0.00    +0.000 C 
BRANCH  17  18
ATOM     18  C   UNL     1       4.165   2.661  17.672  0.00  0.00    +0.000 C 
BRANCH  18  19
ATOM     19  N   UNL     1       3.185   2.594  18.776  0.00  0.00    +0.000 NA
ATOM     20  C   UNL     1       3.785   3.011  20.053  0.00  0.00    +0.000 C 
ATOM     21  C   UNL     1       3.156   2.266  21.233  0.00  0.00    +0.000 C 
ATOM     22  C   UNL     1       1.830   2.836  21.710  0.00  0.00    +0.000 C 
ATOM     23  C   UNL     1       0.750   2.903  20.636  0.00  0.00    +0.000 C 
ATOM     24  C   UNL     1       1.086   3.896  19.530  0.00  0.00    +0.000 C 
ATOM     25  C   UNL     1       1.967   3.336  18.409  0.00  0.00    +0.000 C 
ENDBRANCH  18  19
ENDBRANCH  17  18
ENDBRANCH  16  17
ENDBRANCH   2  16
TORSDOF 6
ENDMDL
