MODEL 1
REMARK VINA RESULT:      -8.0      0.000      0.000
REMARK  Name = 
REMARK  8 active torsions:
REMARK  status: ('A' for Active; 'I' for Inactive)
REMARK    1  A    between atoms: C_1  and  C_2
REMARK    2  A    between atoms: C_4  and  C_5
REMARK    3  A    between atoms: C_5  and  N_6
REMARK    4  A    between atoms: C_7  and  C_9
REMARK    5  A    between atoms: C_9  and  N_10
REMARK    6  A    between atoms: C_12  and  C_13
REMARK    7  A    between atoms: C_14  and  N_15
REMARK    8  A    between atoms: C_18  and  C_19
REMARK                            x       y       z     vdW  Elec       q    Type
REMARK                         _______ _______ _______ _____ _____    ______ ____
ROOT
ATOM      1  N   UNL     1       1.390   8.957  19.266  0.00  0.00    +0.000 N 
ATOM      2  C   UNL     1       0.725   9.942  19.963  0.00  0.00    +0.000 C 
ATOM      3  O   UNL     1       0.696   9.942  21.197  0.00  0.00    +0.000 OA
ATOM      4  H   UNL     1       1.222   8.901  18.259  0.00  0.00    +0.000 HD
ENDROOT
BRANCH   1   5
ATOM      5  C   UNL     1       1.935   7.822  19.984  0.00  0.00    +0.000 C 
BRANCH   5   9
ATOM      6  C   UNL     1       4.977   6.304  16.296  0.00  0.00    +0.000 C 
ATOM      7  C   UNL     1       3.983   6.001  17.378  0.00  0.00    +0.000 A 
ATOM      8  C   UNL     1       3.377   7.017  18.106  0.00  0.00    +0.000 A 
ATOM      9  C   UNL     1       2.474   6.694  19.134  0.00  0.00    +0.000 A 
ATOM     10  C   UNL     1       2.214   5.326  19.397  0.00  0.00    +0.000 A 
ATOM     11  C   UNL     1       1.351   4.862  20.420  0.00  0.00    +0.000 A 
ATOM     12  C   UNL     1       1.138   3.499  20.624  0.00  0.00    +0.000 A 
ATOM     13  C   UNL     1       1.788   2.573  19.824  0.00  0.00    +0.000 A 
ATOM     14  C   UNL     1       2.653   3.017  18.823  0.00  0.00    +0.000 A 
ATOM     15  C   UNL     1       2.878   4.368  18.593  0.00  0.00    +0.000 A 
ATOM     16  N   UNL     1       3.734   4.695  17.614  0.00  0.00    +0.000 NA
ENDBRANCH   5   9
ENDBRANCH   1   5
BRANCH   2  17
ATOM     17  C   UNL     1       0.129  11.112  19.200  0.00  0.00    +0.000 C 
BRANCH  17  18
ATOM     18  N   UNL     1      -1.141  10.896  18.513  0.00  0.00    +0.000 N 
ATOM     19  N   UNL     1      -1.170  10.170  17.378  0.00  0.00    +0.000 NA
ATOM     20  C   UNL     1      -2.440  10.234  16.962  0.00  0.00    +0.000 A 
ATOM     21  C   UNL     1      -2.837   9.519  15.721  0.00  0.00    +0.000 C 
ATOM     22  C   UNL     1      -3.234  11.032  17.827  0.00  0.00    +0.000 A 
ATOM     23  C   UNL     1      -2.356  11.492  18.804  0.00  0.00    +0.000 A 
ATOM     24  C   UNL     1      -2.553  12.416  19.958  0.00  0.00    +0.000 C 
BRANCH  22  25
ATOM     25  N   UNL     1      -4.643  11.314  17.698  0.00  0.00    +0.000 N 
ATOM     26  O   UNL     1      -5.413  10.694  18.441  0.00  0.00    +0.000 OA
ATOM     27  O   UNL     1      -4.988  12.163  16.867  0.00  0.00    +0.000 OA
ENDBRANCH  22  25
ENDBRANCH  17  18
ENDBRANCH   2  17
TORSDOF 5
ENDMDL
MODEL 2
REMARK VINA RESULT:      -8.0      2.730      4.326
REMARK  Name = 
REMARK  8 active torsions:
REMARK  status: ('A' for Active; 'I' for Inactive)
REMARK    1  A    between atoms: C_1  and  C_2
REMARK    2  A    between atoms: C_4  and  C_5
REMARK    3  A    between atoms: C_5  and  N_6
REMARK    4  A    between atoms: C_7  and  C_9
REMARK    5  A    between atoms: C_9  and  N_10
REMARK    6  A    between atoms: C_12  and  C_13
REMARK    7  A    between atoms: C_14  and  N_15
REMARK    8  A    between atoms: C_18  and  C_19
REMARK                            x       y       z     vdW  Elec       q    Type
REMARK                         _______ _______ _______ _____ _____    ______ ____
ROOT
ATOM      1  N   UNL     1       1.629   8.607  18.223  0.00  0.00    +0.000 N 
ATOM      2  C   UNL     1       1.434   9.970  18.277  0.00  0.00    +0.000 C 
ATOM      3  O   UNL     1       2.318  10.756  17.921  0.00  0.00    +0.000 OA
ATOM      4  H   UNL     1       0.945   8.018  18.702  0.00  0.00    +0.000 HD
ENDROOT
BRANCH   1   5
ATOM      5  C   UNL     1       2.940   8.089  17.888  0.00  0.00    +0.000 C 
BRANCH   5   9
ATOM      6  C   UNL     1       1.483   3.816  20.074  0.00  0.00    +0.000 C 
ATOM      7  C   UNL     1       2.375   4.560  19.124  0.00  0.00    +0.000 A 
ATOM      8  C   UNL     1       2.306   5.942  19.003  0.00  0.00    +0.000 A 
ATOM      9  C   UNL     1       3.135   6.602  18.080  0.00  0.00    +0.000 A 
ATOM     10  C   UNL     1       4.020   5.824  17.292  0.00  0.00    +0.000 A 
ATOM     11  C   UNL     1       4.887   6.357  16.306  0.00  0.00    +0.000 A 
ATOM     12  C   UNL     1       5.734   5.532  15.567  0.00  0.00    +0.000 A 
ATOM     13  C   UNL     1       5.727   4.163  15.785  0.00  0.00    +0.000 A 
ATOM     14  C   UNL     1       4.867   3.625  16.742  0.00  0.00    +0.000 A 
ATOM     15  C   UNL     1       4.018   4.423  17.497  0.00  0.00    +0.000 A 
ATOM     16  N   UNL     1       3.222   3.811  18.386  0.00  0.00    +0.000 NA
ENDBRANCH   5   9
ENDBRANCH   1   5
BRANCH   2  17
ATOM     17  C   UNL     1       0.066  10.506  18.659  0.00  0.00    +0.000 C 
BRANCH  17  18
ATOM     18  N   UNL     1      -0.204  10.721  20.079  0.00  0.00    +0.000 N 
ATOM     19  N   UNL     1       0.182   9.795  20.978  0.00  0.00    +0.000 NA
ATOM     20  C   UNL     1      -0.283  10.241  22.151  0.00  0.00    +0.000 A 
ATOM     21  C   UNL     1      -0.019   9.456  23.385  0.00  0.00    +0.000 C 
ATOM     22  C   UNL     1      -0.998  11.458  22.001  0.00  0.00    +0.000 A 
ATOM     23  C   UNL     1      -0.976  11.726  20.635  0.00  0.00    +0.000 A 
ATOM     24  C   UNL     1      -1.597  12.816  19.828  0.00  0.00    +0.000 C 
BRANCH  22  25
ATOM     25  N   UNL     1      -1.628  12.229  23.045  0.00  0.00    +0.000 N 
ATOM     26  O   UNL     1      -2.738  11.846  23.438  0.00  0.00    +0.000 OA
ATOM     27  O   UNL     1      -1.017  13.208  23.489  0.00  0.00    +0.000 OA
ENDBRANCH  22  25
ENDBRANCH  17  18
ENDBRANCH   2  17
TORSDOF 5
ENDMDL
MODEL 3
REMARK VINA RESULT:      -7.9      1.214      2.853
REMARK  Name = 
REMARK  8 active torsions:
REMARK  status: ('A' for Active; 'I' for Inactive)
REMARK    1  A    between atoms: C_1  and  C_2
REMARK    2  A    between atoms: C_4  and  C_5
REMARK    3  A    between atoms: C_5  and  N_6
REMARK    4  A    between atoms: C_7  and  C_9
REMARK    5  A    between atoms: C_9  and  N_10
REMARK    6  A    between atoms: C_12  and  C_13
REMARK    7  A    between atoms: C_14  and  N_15
REMARK    8  A    between atoms: C_18  and  C_19
REMARK                            x       y       z     vdW  Elec       q    Type
REMARK                         _______ _______ _______ _____ _____    ______ ____
ROOT
ATOM      1  N   UNL     1       1.672   8.814  18.603  0.00  0.00    +0.000 N 
ATOM      2  C   UNL     1       1.435  10.162  18.447  0.00  0.00    +0.000 C 
ATOM      3  O   UNL     1       2.117  10.844  17.675  0.00  0.00    +0.000 OA
ATOM      4  H   UNL     1       1.209   8.345  19.385  0.00  0.00    +0.000 HD
ENDROOT
BRANCH   1   5
ATOM      5  C   UNL     1       2.831   8.217  17.970  0.00  0.00    +0.000 C 
BRANCH   5   9
ATOM      6  C   UNL     1       1.271   3.965  20.127  0.00  0.00    +0.000 C 
ATOM      7  C   UNL     1       2.192   4.696  19.195  0.00  0.00    +0.000 A 
ATOM      8  C   UNL     1       2.145   6.079  19.073  0.00  0.00    +0.000 A 
ATOM      9  C   UNL     1       3.002   6.728  18.166  0.00  0.00    +0.000 A 
ATOM     10  C   UNL     1       3.891   5.937  17.396  0.00  0.00    +0.000 A 
ATOM     11  C   UNL     1       4.784   6.457  16.428  0.00  0.00    +0.000 A 
ATOM     12  C   UNL     1       5.635   5.621  15.705  0.00  0.00    +0.000 A 
ATOM     13  C   UNL     1       5.605   4.252  15.924  0.00  0.00    +0.000 A 
ATOM     14  C   UNL     1       4.718   3.727  16.863  0.00  0.00    +0.000 A 
ATOM     15  C   UNL     1       3.865   4.536  17.601  0.00  0.00    +0.000 A 
ATOM     16  N   UNL     1       3.043   3.936  18.474  0.00  0.00    +0.000 NA
ENDBRANCH   5   9
ENDBRANCH   1   5
BRANCH   2  17
ATOM     17  C   UNL     1       0.236  10.787  19.138  0.00  0.00    +0.000 C 
BRANCH  17  18
ATOM     18  N   UNL     1      -1.057  10.689  18.467  0.00  0.00    +0.000 N 
ATOM     19  N   UNL     1      -1.156  10.014  17.304  0.00  0.00    +0.000 NA
ATOM     20  C   UNL     1      -2.426  10.185  16.916  0.00  0.00    +0.000 A 
ATOM     21  C   UNL     1      -2.893   9.551  15.655  0.00  0.00    +0.000 C 
ATOM     22  C   UNL     1      -3.146  11.001  17.827  0.00  0.00    +0.000 A 
ATOM     23  C   UNL     1      -2.221  11.358  18.804  0.00  0.00    +0.000 A 
ATOM     24  C   UNL     1      -2.332  12.246  19.997  0.00  0.00    +0.000 C 
BRANCH  22  25
ATOM     25  N   UNL     1      -4.533  11.388  17.735  0.00  0.00    +0.000 N 
ATOM     26  O   UNL     1      -4.837  12.190  16.843  0.00  0.00    +0.000 OA
ATOM     27  O   UNL     1      -5.327  10.887  18.540  0.00  0.00    +0.000 OA
ENDBRANCH  22  25
ENDBRANCH  17  18
ENDBRANCH   2  17
TORSDOF 5
ENDMDL
MODEL 4
REMARK VINA RESULT:      -7.8      0.655      1.831
REMARK  Name = 
REMARK  8 active torsions:
REMARK  status: ('A' for Active; 'I' for Inactive)
REMARK    1  A    between atoms: C_1  and  C_2
REMARK    2  A    between atoms: C_4  and  C_5
REMARK    3  A    between atoms: C_5  and  N_6
REMARK    4  A    between atoms: C_7  and  C_9
REMARK    5  A    between atoms: C_9  and  N_10
REMARK    6  A    between atoms: C_12  and  C_13
REMARK    7  A    between atoms: C_14  and  N_15
REMARK    8  A    between atoms: C_18  and  C_19
REMARK                            x       y       z     vdW  Elec       q    Type
REMARK                         _______ _______ _______ _____ _____    ______ ____
ROOT
ATOM      1  N   UNL     1       1.588   8.915  19.360  0.00  0.00    +0.000 N 
ATOM      2  C   UNL     1       0.545   9.702  19.797  0.00  0.00    +0.000 C 
ATOM      3  O   UNL     1      -0.047   9.449  20.851  0.00  0.00    +0.000 OA
ATOM      4  H   UNL     1       1.910   9.057  18.400  0.00  0.00    +0.000 HD
ENDROOT
BRANCH   1   5
ATOM      5  C   UNL     1       1.896   7.687  20.065  0.00  0.00    +0.000 C 
BRANCH   5   9
ATOM      6  C   UNL     1       4.936   6.156  16.379  0.00  0.00    +0.000 C 
ATOM      7  C   UNL     1       3.946   5.856  17.467  0.00  0.00    +0.000 A 
ATOM      8  C   UNL     1       3.337   6.875  18.188  0.00  0.00    +0.000 A 
ATOM      9  C   UNL     1       2.439   6.555  19.221  0.00  0.00    +0.000 A 
ATOM     10  C   UNL     1       2.186   5.188  19.496  0.00  0.00    +0.000 A 
ATOM     11  C   UNL     1       1.329   4.728  20.525  0.00  0.00    +0.000 A 
ATOM     12  C   UNL     1       1.124   3.365  20.741  0.00  0.00    +0.000 A 
ATOM     13  C   UNL     1       1.777   2.436  19.946  0.00  0.00    +0.000 A 
ATOM     14  C   UNL     1       2.636   2.877  18.939  0.00  0.00    +0.000 A 
ATOM     15  C   UNL     1       2.853   4.227  18.698  0.00  0.00    +0.000 A 
ATOM     16  N   UNL     1       3.704   4.551  17.714  0.00  0.00    +0.000 NA
ENDBRANCH   5   9
ENDBRANCH   1   5
BRANCH   2  17
ATOM     17  C   UNL     1       0.207  10.972  19.035  0.00  0.00    +0.000 C 
BRANCH  17  18
ATOM     18  N   UNL     1      -1.198  11.361  18.960  0.00  0.00    +0.000 N 
ATOM     19  N   UNL     1      -1.720  12.162  19.910  0.00  0.00    +0.000 NA
ATOM     20  C   UNL     1      -3.020  12.253  19.605  0.00  0.00    +0.000 A 
ATOM     21  C   UNL     1      -3.910  13.088  20.453  0.00  0.00    +0.000 C 
ATOM     22  C   UNL     1      -3.343  11.482  18.458  0.00  0.00    +0.000 A 
ATOM     23  C   UNL     1      -2.150  10.870  18.084  0.00  0.00    +0.000 A 
ATOM     24  C   UNL     1      -1.835   9.893  17.002  0.00  0.00    +0.000 C 
BRANCH  22  25
ATOM     25  N   UNL     1      -4.640  11.351  17.838  0.00  0.00    +0.000 N 
ATOM     26  O   UNL     1      -4.821  11.960  16.776  0.00  0.00    +0.000 OA
ATOM     27  O   UNL     1      -5.477  10.632  18.396  0.00  0.00    +0.000 OA
ENDBRANCH  22  25
ENDBRANCH  17  18
ENDBRANCH   2  17
TORSDOF 5
ENDMDL
MODEL 5
REMARK VINA RESULT:      -7.8      4.242      8.345
REMARK  Name = 
REMARK  8 active torsions:
REMARK  status: ('A' for Active; 'I' for Inactive)
REMARK    1  A    between atoms: C_1  and  C_2
REMARK    2  A    between atoms: C_4  and  C_5
REMARK    3  A    between atoms: C_5  and  N_6
REMARK    4  A    between atoms: C_7  and  C_9
REMARK    5  A    between atoms: C_9  and  N_10
REMARK    6  A    between atoms: C_12  and  C_13
REMARK    7  A    between atoms: C_14  and  N_15
REMARK    8  A    between atoms: C_18  and  C_19
REMARK                            x       y       z     vdW  Elec       q    Type
REMARK                         _______ _______ _______ _____ _____    ______ ____
ROOT
ATOM      1  N   UNL     1       2.533   5.624  20.356  0.00  0.00    +0.000 N 
ATOM      2  C   UNL     1       2.564   4.271  20.609  0.00  0.00    +0.000 C 
ATOM      3  O   UNL     1       1.750   3.746  21.376  0.00  0.00    +0.000 OA
ATOM      4  H   UNL     1       3.338   6.027  19.870  0.00  0.00    +0.000 HD
ENDROOT
BRANCH   1   5
ATOM      5  C   UNL     1       1.633   6.469  21.114  0.00  0.00    +0.000 C 
BRANCH   5   9
ATOM      6  C   UNL     1       2.190   9.793  17.398  0.00  0.00    +0.000 C 
ATOM      7  C   UNL     1       1.718   9.443  18.778  0.00  0.00    +0.000 A 
ATOM      8  C   UNL     1       1.953   8.187  19.323  0.00  0.00    +0.000 A 
ATOM      9  C   UNL     1       1.468   7.885  20.608  0.00  0.00    +0.000 A 
ATOM     10  C   UNL     1       0.743   8.883  21.308  0.00  0.00    +0.000 A 
ATOM     11  C   UNL     1       0.176   8.701  22.593  0.00  0.00    +0.000 A 
ATOM     12  C   UNL     1      -0.525   9.728  23.225  0.00  0.00    +0.000 A 
ATOM     13  C   UNL     1      -0.684  10.948  22.588  0.00  0.00    +0.000 A 
ATOM     14  C   UNL     1      -0.143  11.134  21.316  0.00  0.00    +0.000 A 
ATOM     15  C   UNL     1       0.565  10.132  20.665  0.00  0.00    +0.000 A 
ATOM     16  N   UNL     1       1.038  10.403  19.440  0.00  0.00    +0.000 NA
ENDBRANCH   5   9
ENDBRANCH   1   5
BRANCH   2  17
ATOM     17  C   UNL     1       3.532   3.395  19.834  0.00  0.00    +0.000 C 
BRANCH  17  18
ATOM     18  N   UNL     1       4.613   4.059  19.110  0.00  0.00    +0.000 N 
ATOM     19  N   UNL     1       5.625   4.627  19.796  0.00  0.00    +0.000 NA
ATOM     20  C   UNL     1       6.385   5.213  18.864  0.00  0.00    +0.000 A 
ATOM     21  C   UNL     1       7.617   5.934  19.277  0.00  0.00    +0.000 C 
ATOM     22  C   UNL     1       5.843   5.041  17.564  0.00  0.00    +0.000 A 
ATOM     23  C   UNL     1       4.662   4.328  17.754  0.00  0.00    +0.000 A 
ATOM     24  C   UNL     1       3.606   3.887  16.797  0.00  0.00    +0.000 C 
BRANCH  22  25
ATOM     25  N   UNL     1       6.395   5.527  16.322  0.00  0.00    +0.000 N 
ATOM     26  O   UNL     1       5.818   6.479  15.782  0.00  0.00    +0.000 OA
ATOM     27  O   UNL     1       7.412   4.974  15.887  0.00  0.00    +0.000 OA
ENDBRANCH  22  25
ENDBRANCH  17  18
ENDBRANCH   2  17
TORSDOF 5
ENDMDL
MODEL 6
REMARK VINA RESULT:      -7.6      2.656      8.110
REMARK  Name = 
REMARK  8 active torsions:
REMARK  status: ('A' for Active; 'I' for Inactive)
REMARK    1  A    between atoms: C_1  and  C_2
REMARK    2  A    between atoms: C_4  and  C_5
REMARK    3  A    between atoms: C_5  and  N_6
REMARK    4  A    between atoms: C_7  and  C_9
REMARK    5  A    between atoms: C_9  and  N_10
REMARK    6  A    between atoms: C_12  and  C_13
REMARK    7  A    between atoms: C_14  and  N_15
REMARK    8  A    between atoms: C_18  and  C_19
REMARK                            x       y       z     vdW  Elec       q    Type
REMARK                         _______ _______ _______ _____ _____    ______ ____
ROOT
ATOM      1  N   UNL     1       0.942   8.994  19.489  0.00  0.00    +0.000 N 
ATOM      2  C   UNL     1       1.297   8.527  20.735  0.00  0.00    +0.000 C 
ATOM      3  O   UNL     1       1.382   9.290  21.703  0.00  0.00    +0.000 OA
ATOM      4  H   UNL     1       1.073   8.360  18.698  0.00  0.00    +0.000 HD
ENDROOT
BRANCH   1   5
ATOM      5  C   UNL     1       0.814  10.421  19.275  0.00  0.00    +0.000 C 
BRANCH   5   9
ATOM      6  C   UNL     1      -2.360  13.414  21.752  0.00  0.00    +0.000 C 
ATOM      7  C   UNL     1      -2.062  12.476  20.619  0.00  0.00    +0.000 A 
ATOM      8  C   UNL     1      -0.832  11.841  20.513  0.00  0.00    +0.000 A 
ATOM      9  C   UNL     1      -0.578  10.992  19.421  0.00  0.00    +0.000 A 
ATOM     10  C   UNL     1      -1.598  10.818  18.452  0.00  0.00    +0.000 A 
ATOM     11  C   UNL     1      -1.464  10.017  17.291  0.00  0.00    +0.000 A 
ATOM     12  C   UNL     1      -2.511   9.888  16.378  0.00  0.00    +0.000 A 
ATOM     13  C   UNL     1      -3.703  10.560  16.596  0.00  0.00    +0.000 A 
ATOM     14  C   UNL     1      -3.841  11.364  17.728  0.00  0.00    +0.000 A 
ATOM     15  C   UNL     1      -2.819  11.506  18.657  0.00  0.00    +0.000 A 
ATOM     16  N   UNL     1      -3.044  12.308  19.707  0.00  0.00    +0.000 NA
ENDBRANCH   5   9
ENDBRANCH   1   5
BRANCH   2  17
ATOM     17  C   UNL     1       1.461   7.032  20.945  0.00  0.00    +0.000 C 
BRANCH  17  18
ATOM     18  N   UNL     1       2.163   6.277  19.911  0.00  0.00    +0.000 N 
ATOM     19  N   UNL     1       2.998   6.917  19.069  0.00  0.00    +0.000 NA
ATOM     20  C   UNL     1       3.402   5.977  18.206  0.00  0.00    +0.000 A 
ATOM     21  C   UNL     1       4.360   6.340  17.130  0.00  0.00    +0.000 C 
ATOM     22  C   UNL     1       2.800   4.721  18.482  0.00  0.00    +0.000 A 
ATOM     23  C   UNL     1       1.959   4.952  19.567  0.00  0.00    +0.000 A 
ATOM     24  C   UNL     1       1.008   4.060  20.291  0.00  0.00    +0.000 C 
BRANCH  22  25
ATOM     25  N   UNL     1       3.007   3.485  17.767  0.00  0.00    +0.000 N 
ATOM     26  O   UNL     1       4.021   2.833  18.050  0.00  0.00    +0.000 OA
ATOM     27  O   UNL     1       2.158   3.150  16.934  0.00  0.00    +0.000 OA
ENDBRANCH  22  25
ENDBRANCH  17  18
ENDBRANCH   2  17
TORSDOF 5
ENDMDL
MODEL 7
REMARK VINA RESULT:      -7.6      2.624      3.524
REMARK  Name = 
REMARK  8 active torsions:
REMARK  status: ('A' for Active; 'I' for Inactive)
REMARK    1  A    between atoms: C_1  and  C_2
REMARK    2  A    between atoms: C_4  and  C_5
REMARK    3  A    between atoms: C_5  and  N_6
REMARK    4  A    between atoms: C_7  and  C_9
REMARK    5  A    between atoms: C_9  and  N_10
REMARK    6  A    between atoms: C_12  and  C_13
REMARK    7  A    between atoms: C_14  and  N_15
REMARK    8  A    between atoms: C_18  and  C_19
REMARK                            x       y       z     vdW  Elec       q    Type
REMARK                         _______ _______ _______ _____ _____    ______ ____
ROOT
ATOM      1  N   UNL     1       1.998   8.147  18.163  0.00  0.00    +0.000 N 
ATOM      2  C   UNL     1       1.627   9.467  18.035  0.00  0.00    +0.000 C 
ATOM      3  O   UNL     1       2.390  10.299  17.533  0.00  0.00    +0.000 OA
ATOM      4  H   UNL     1       1.410   7.551  18.750  0.00  0.00    +0.000 HD
ENDROOT
BRANCH   1   5
ATOM      5  C   UNL     1       3.357   7.756  17.845  0.00  0.00    +0.000 C 
BRANCH   5   9
ATOM      6  C   UNL     1       5.752   3.857  15.790  0.00  0.00    +0.000 C 
ATOM      7  C   UNL     1       4.838   4.426  16.835  0.00  0.00    +0.000 A 
ATOM      8  C   UNL     1       4.467   5.764  16.816  0.00  0.00    +0.000 A 
ATOM      9  C   UNL     1       3.633   6.269  17.830  0.00  0.00    +0.000 A 
ATOM     10  C   UNL     1       3.200   5.385  18.850  0.00  0.00    +0.000 A 
ATOM     11  C   UNL     1       2.385   5.769  19.943  0.00  0.00    +0.000 A 
ATOM     12  C   UNL     1       1.994   4.845  20.912  0.00  0.00    +0.000 A 
ATOM     13  C   UNL     1       2.415   3.528  20.819  0.00  0.00    +0.000 A 
ATOM     14  C   UNL     1       3.230   3.142  19.755  0.00  0.00    +0.000 A 
ATOM     15  C   UNL     1       3.630   4.038  18.773  0.00  0.00    +0.000 A 
ATOM     16  N   UNL     1       4.422   3.573  17.796  0.00  0.00    +0.000 NA
ENDBRANCH   5   9
ENDBRANCH   1   5
BRANCH   2  17
ATOM     17  C   UNL     1       0.211   9.876  18.400  0.00  0.00    +0.000 C 
BRANCH  17  18
ATOM     18  N   UNL     1      -0.046  10.263  19.784  0.00  0.00    +0.000 N 
ATOM     19  N   UNL     1       0.307   9.432  20.785  0.00  0.00    +0.000 NA
ATOM     20  C   UNL     1      -0.136  10.028  21.898  0.00  0.00    +0.000 A 
ATOM     21  C   UNL     1       0.100   9.380  23.215  0.00  0.00    +0.000 C 
ATOM     22  C   UNL     1      -0.805  11.246  21.608  0.00  0.00    +0.000 A 
ATOM     23  C   UNL     1      -0.777  11.354  20.220  0.00  0.00    +0.000 A 
ATOM     24  C   UNL     1      -1.358  12.367  19.293  0.00  0.00    +0.000 C 
BRANCH  22  25
ATOM     25  N   UNL     1      -1.402  12.155  22.556  0.00  0.00    +0.000 N 
ATOM     26  O   UNL     1      -2.633  12.121  22.673  0.00  0.00    +0.000 OA
ATOM     27  O   UNL     1      -0.648  12.896  23.198  0.00  0.00    +0.000 OA
ENDBRANCH  22  25
ENDBRANCH  17  18
ENDBRANCH   2  17
TORSDOF 5
ENDMDL
MODEL 8
REMARK VINA RESULT:      -7.5      3.549      9.176
REMARK  Name = 
REMARK  8 active torsions:
REMARK  status: ('A' for Active; 'I' for Inactive)
REMARK    1  A    between atoms: C_1  and  C_2
REMARK    2  A    between atoms: C_4  and  C_5
REMARK    3  A    between atoms: C_5  and  N_6
REMARK    4  A    between atoms: C_7  and  C_9
REMARK    5  A    between atoms: C_9  and  N_10
REMARK    6  A    between atoms: C_12  and  C_13
REMARK    7  A    between atoms: C_14  and  N_15
REMARK    8  A    between atoms: C_18  and  C_19
REMARK                            x       y       z     vdW  Elec       q    Type
REMARK                         _______ _______ _______ _____ _____    ______ ____
ROOT
ATOM      1  N   UNL     1       2.036   8.388  18.363  0.00  0.00    +0.000 N 
ATOM      2  C   UNL     1       2.355   7.143  18.858  0.00  0.00    +0.000 C 
ATOM      3  O   UNL     1       2.125   6.847  20.035  0.00  0.00    +0.000 OA
ATOM      4  H   UNL     1       2.417   8.639  17.448  0.00  0.00    +0.000 HD
ENDROOT
BRANCH   1   5
ATOM      5  C   UNL     1       1.566   9.416  19.270  0.00  0.00    +0.000 C 
BRANCH   5   9
ATOM      6  C   UNL     1      -2.921  10.102  17.135  0.00  0.00    +0.000 C 
ATOM      7  C   UNL     1      -1.657  10.653  17.725  0.00  0.00    +0.000 A 
ATOM      8  C   UNL     1      -0.629   9.815  18.140  0.00  0.00    +0.000 A 
ATOM      9  C   UNL     1       0.528  10.366  18.717  0.00  0.00    +0.000 A 
ATOM     10  C   UNL     1       0.604  11.774  18.862  0.00  0.00    +0.000 A 
ATOM     11  C   UNL     1       1.697  12.456  19.453  0.00  0.00    +0.000 A 
ATOM     12  C   UNL     1       1.708  13.846  19.563  0.00  0.00    +0.000 A 
ATOM     13  C   UNL     1       0.628  14.582  19.100  0.00  0.00    +0.000 A 
ATOM     14  C   UNL     1      -0.460  13.921  18.530  0.00  0.00    +0.000 A 
ATOM     15  C   UNL     1      -0.495  12.539  18.402  0.00  0.00    +0.000 A 
ATOM     16  N   UNL     1      -1.589  11.996  17.850  0.00  0.00    +0.000 NA
ENDBRANCH   5   9
ENDBRANCH   1   5
BRANCH   2  17
ATOM     17  C   UNL     1       2.876   6.080  17.907  0.00  0.00    +0.000 C 
BRANCH  17  18
ATOM     18  N   UNL     1       4.319   6.018  17.688  0.00  0.00    +0.000 N 
ATOM     19  N   UNL     1       5.052   7.147  17.754  0.00  0.00    +0.000 NA
ATOM     20  C   UNL     1       6.293   6.769  17.425  0.00  0.00    +0.000 A 
ATOM     21  C   UNL     1       7.382   7.781  17.411  0.00  0.00    +0.000 C 
ATOM     22  C   UNL     1       6.354   5.385  17.120  0.00  0.00    +0.000 A 
ATOM     23  C   UNL     1       5.046   4.926  17.250  0.00  0.00    +0.000 A 
ATOM     24  C   UNL     1       4.437   3.586  17.008  0.00  0.00    +0.000 C 
BRANCH  22  25
ATOM     25  N   UNL     1       7.524   4.632  16.735  0.00  0.00    +0.000 N 
ATOM     26  O   UNL     1       8.196   4.131  17.645  0.00  0.00    +0.000 OA
ATOM     27  O   UNL     1       7.771   4.524  15.529  0.00  0.00    +0.000 OA
ENDBRANCH  22  25
ENDBRANCH  17  18
ENDBRANCH   2  17
TORSDOF 5
ENDMDL
MODEL 9
REMARK VINA RESULT:      -7.5      2.526      3.290
REMARK  Name = 
REMARK  8 active torsions:
REMARK  status: ('A' for Active; 'I' for Inactive)
REMARK    1  A    between atoms: C_1  and  C_2
REMARK    2  A    between atoms: C_4  and  C_5
REMARK    3  A    between atoms: C_5  and  N_6
REMARK    4  A    between atoms: C_7  and  C_9
REMARK    5  A    between atoms: C_9  and  N_10
REMARK    6  A    between atoms: C_12  and  C_13
REMARK    7  A    between atoms: C_14  and  N_15
REMARK    8  A    between atoms: C_18  and  C_19
REMARK                            x       y       z     vdW  Elec       q    Type
REMARK                         _______ _______ _______ _____ _____    ______ ____
ROOT
ATOM      1  N   UNL     1       1.983   7.789  19.196  0.00  0.00    +0.000 N 
ATOM      2  C   UNL     1       1.821   8.824  18.301  0.00  0.00    +0.000 C 
ATOM      3  O   UNL     1       2.672   9.059  17.437  0.00  0.00    +0.000 OA
ATOM      4  H   UNL     1       1.349   7.761  19.997  0.00  0.00    +0.000 HD
ENDROOT
BRANCH   1   5
ATOM      5  C   UNL     1       3.236   7.062  19.224  0.00  0.00    +0.000 C 
BRANCH   5   9
ATOM      6  C   UNL     1       5.431   4.564  15.468  0.00  0.00    +0.000 C 
ATOM      7  C   UNL     1       4.417   4.639  16.571  0.00  0.00    +0.000 A 
ATOM      8  C   UNL     1       4.243   5.800  17.313  0.00  0.00    +0.000 A 
ATOM      9  C   UNL     1       3.305   5.823  18.360  0.00  0.00    +0.000 A 
ATOM     10  C   UNL     1       2.564   4.645  18.627  0.00  0.00    +0.000 A 
ATOM     11  C   UNL     1       1.611   4.522  19.668  0.00  0.00    +0.000 A 
ATOM     12  C   UNL     1       0.915   3.331  19.874  0.00  0.00    +0.000 A 
ATOM     13  C   UNL     1       1.162   2.238  19.059  0.00  0.00    +0.000 A 
ATOM     14  C   UNL     1       2.109   2.342  18.040  0.00  0.00    +0.000 A 
ATOM     15  C   UNL     1       2.812   3.517  17.808  0.00  0.00    +0.000 A 
ATOM     16  N   UNL     1       3.709   3.515  16.811  0.00  0.00    +0.000 NA
ENDBRANCH   5   9
ENDBRANCH   1   5
BRANCH   2  17
ATOM     17  C   UNL     1       0.517   9.602  18.297  0.00  0.00    +0.000 C 
BRANCH  17  18
ATOM     18  N   UNL     1       0.085  10.202  19.557  0.00  0.00    +0.000 N 
ATOM     19  N   UNL     1       0.179   9.494  20.700  0.00  0.00    +0.000 NA
ATOM     20  C   UNL     1      -0.369  10.279  21.635  0.00  0.00    +0.000 A 
ATOM     21  C   UNL     1      -0.420   9.806  23.043  0.00  0.00    +0.000 C 
ATOM     22  C   UNL     1      -0.844  11.497  21.083  0.00  0.00    +0.000 A 
ATOM     23  C   UNL     1      -0.581  11.404  19.719  0.00  0.00    +0.000 A 
ATOM     24  C   UNL     1      -0.891  12.322  18.585  0.00  0.00    +0.000 C 
BRANCH  22  25
ATOM     25  N   UNL     1      -1.481  12.580  21.791  0.00  0.00    +0.000 N 
ATOM     26  O   UNL     1      -0.742  13.419  22.323  0.00  0.00    +0.000 OA
ATOM     27  O   UNL     1      -2.717  12.610  21.810  0.00  0.00    +0.000 OA
ENDBRANCH  22  25
ENDBRANCH  17  18
ENDBRANCH   2  17
TORSDOF 5
ENDMDL
