MODEL 1
REMARK VINA RESULT:      -7.1      0.000      0.000
REMARK  Name = 
REMARK  10 active torsions:
REMARK  status: ('A' for Active; 'I' for Inactive)
REMARK    1  A    between atoms: C_1  and  C_2
REMARK    2  A    between atoms: C_2  and  C_3
REMARK    3  A    between atoms: C_2  and  C_4
REMARK    4  A    between atoms: C_2  and  C_5
REMARK    5  A    between atoms: C_7  and  C_8
REMARK    6  A    between atoms: C_13  and  C_14
REMARK    7  A    between atoms: C_14  and  N_15
REMARK    8  A    between atoms: C_14  and  C_16
REMARK    9  A    between atoms: N_25  and  C_26
REMARK   10  A    between atoms: C_26  and  C_27
REMARK                            x       y       z     vdW  Elec       q    Type
REMARK                         _______ _______ _______ _____ _____    ______ ____
ROOT
ATOM      1  C   UNL     1      -0.047  13.558  19.533  0.00  0.00    +0.000 C 
ATOM      2  O   UNL     1       0.782  14.089  18.791  0.00  0.00    +0.000 OA
ATOM      3  N   UNL     1      -0.179  14.094  20.805  0.00  0.00    +0.000 N 
ATOM      4  C   UNL     1      -1.332  13.960  21.516  0.00  0.00    +0.000 A 
ATOM      5  N   UNL     1      -2.539  14.410  21.232  0.00  0.00    +0.000 NA
ATOM      6  C   UNL     1      -3.450  13.957  22.206  0.00  0.00    +0.000 A 
ATOM      7  C   UNL     1      -2.869  13.172  23.193  0.00  0.00    +0.000 A 
ATOM      8  S   UNL     1      -1.160  13.170  23.022  0.00  0.00    +0.000 S 
ATOM      9  H   UNL     1       0.162  15.041  20.785  0.00  0.00    +0.000 HD
ENDROOT
BRANCH   1  12
ATOM     10  C   UNL     1      -2.220  10.951  18.136  0.00  0.00    +0.000 A 
ATOM     11  C   UNL     1      -2.030  12.307  18.462  0.00  0.00    +0.000 A 
ATOM     12  C   UNL     1      -0.823  12.399  19.131  0.00  0.00    +0.000 A 
ATOM     13  N   UNL     1      -0.472  11.080  19.345  0.00  0.00    +0.000 N 
ATOM     14  N   UNL     1      -1.294  10.193  18.725  0.00  0.00    +0.000 NA
BRANCH  10  16
ATOM     15  C   UNL     1      -3.943   9.256  17.768  0.00  0.00    +0.000 C 
ATOM     16  C   UNL     1      -3.207  10.422  17.119  0.00  0.00    +0.000 C 
ATOM     17  C   UNL     1      -2.512   9.858  15.872  0.00  0.00    +0.000 C 
ATOM     18  C   UNL     1      -4.278  11.449  16.715  0.00  0.00    +0.000 C 
ENDBRANCH  10  16
BRANCH  13  19
ATOM     19  C   UNL     1       0.630  10.557  20.147  0.00  0.00    +0.000 C 
BRANCH  19  20
ATOM     20  C   UNL     1       1.308   9.361  19.522  0.00  0.00    +0.000 A 
ATOM     21  C   UNL     1       1.770   9.419  18.199  0.00  0.00    +0.000 A 
ATOM     22  C   UNL     1       2.459   8.342  17.637  0.00  0.00    +0.000 A 
ATOM     23  C   UNL     1       2.692   7.193  18.390  0.00  0.00    +0.000 A 
ATOM     24  C   UNL     1       2.233   7.118  19.703  0.00  0.00    +0.000 A 
ATOM     25  C   UNL     1       1.548   8.196  20.267  0.00  0.00    +0.000 A 
ENDBRANCH  19  20
ENDBRANCH  13  19
ENDBRANCH   1  12
BRANCH   6  26
ATOM     26  C   UNL     1      -4.883  14.475  22.225  0.00  0.00    +0.000 C 
BRANCH  26  27
ATOM     27  C   UNL     1      -5.806  13.459  21.571  0.00  0.00    +0.000 A 
ATOM     28  C   UNL     1      -5.794  13.258  20.171  0.00  0.00    +0.000 A 
ATOM     29  C   UNL     1      -6.648  12.338  19.549  0.00  0.00    +0.000 A 
ATOM     30  C   UNL     1      -7.538  11.586  20.308  0.00  0.00    +0.000 A 
ATOM     31  C   UNL     1      -7.590  11.774  21.688  0.00  0.00    +0.000 A 
ATOM     32  C   UNL     1      -6.737  12.700  22.313  0.00  0.00    +0.000 A 
ATOM     33 CL   UNL     1      -6.861  12.810  24.036  0.00  0.00    +0.000 Cl
ENDBRANCH  26  27
BRANCH  26  34
ATOM     34  N   UNL     1      -4.898  15.796  21.578  0.00  0.00    +0.000 NA
ATOM     35  H   UNL     1      -4.449  15.668  20.666  0.00  0.00    +0.000 HD
ATOM     36  H   UNL     1      -4.238  16.386  22.082  0.00  0.00    +0.000 HD
ENDBRANCH  26  34
ENDBRANCH   6  26
TORSDOF 7
ENDMDL
MODEL 2
REMARK VINA RESULT:      -7.0      1.035      1.578
REMARK  Name = 
REMARK  10 active torsions:
REMARK  status: ('A' for Active; 'I' for Inactive)
REMARK    1  A    between atoms: C_1  and  C_2
REMARK    2  A    between atoms: C_2  and  C_3
REMARK    3  A    between atoms: C_2  and  C_4
REMARK    4  A    between atoms: C_2  and  C_5
REMARK    5  A    between atoms: C_7  and  C_8
REMARK    6  A    between atoms: C_13  and  C_14
REMARK    7  A    between atoms: C_14  and  N_15
REMARK    8  A    between atoms: C_14  and  C_16
REMARK    9  A    between atoms: N_25  and  C_26
REMARK   10  A    between atoms: C_26  and  C_27
REMARK                            x       y       z     vdW  Elec       q    Type
REMARK                         _______ _______ _______ _____ _____    ______ ____
ROOT
ATOM      1  C   UNL     1       0.727  12.513  19.658  0.00  0.00    +0.000 C 
ATOM      2  O   UNL     1       1.760  12.974  19.168  0.00  0.00    +0.000 OA
ATOM      3  N   UNL     1       0.401  12.937  20.937  0.00  0.00    +0.000 N 
ATOM      4  C   UNL     1      -0.885  12.919  21.384  0.00  0.00    +0.000 A 
ATOM      5  N   UNL     1      -1.931  13.580  20.928  0.00  0.00    +0.000 NA
ATOM      6  C   UNL     1      -3.082  13.186  21.637  0.00  0.00    +0.000 A 
ATOM      7  C   UNL     1      -2.837  12.226  22.610  0.00  0.00    +0.000 A 
ATOM      8  S   UNL     1      -1.148  11.970  22.781  0.00  0.00    +0.000 S 
ATOM      9  H   UNL     1       0.863  13.815  21.105  0.00  0.00    +0.000 HD
ENDROOT
BRANCH   1  12
ATOM     10  C   UNL     1      -1.721  10.438  17.878  0.00  0.00    +0.000 A 
ATOM     11  C   UNL     1      -1.467  11.449  18.824  0.00  0.00    +0.000 A 
ATOM     12  C   UNL     1      -0.095  11.536  18.966  0.00  0.00    +0.000 A 
ATOM     13  N   UNL     1       0.373  10.443  18.263  0.00  0.00    +0.000 N 
ATOM     14  N   UNL     1      -0.598   9.785  17.576  0.00  0.00    +0.000 NA
BRANCH  10  16
ATOM     15  C   UNL     1      -3.734  11.574  17.079  0.00  0.00    +0.000 C 
ATOM     16  C   UNL     1      -3.031  10.223  17.152  0.00  0.00    +0.000 C 
ATOM     17  C   UNL     1      -3.974   9.284  17.916  0.00  0.00    +0.000 C 
ATOM     18  C   UNL     1      -2.854   9.740  15.702  0.00  0.00    +0.000 C 
ENDBRANCH  10  16
BRANCH  13  19
ATOM     19  C   UNL     1       1.737   9.928  18.193  0.00  0.00    +0.000 C 
BRANCH  19  20
ATOM     20  C   UNL     1       1.903   8.586  18.863  0.00  0.00    +0.000 A 
ATOM     21  C   UNL     1       1.494   8.400  20.192  0.00  0.00    +0.000 A 
ATOM     22  C   UNL     1       1.582   7.144  20.796  0.00  0.00    +0.000 A 
ATOM     23  C   UNL     1       2.081   6.058  20.080  0.00  0.00    +0.000 A 
ATOM     24  C   UNL     1       2.498   6.228  18.762  0.00  0.00    +0.000 A 
ATOM     25  C   UNL     1       2.407   7.482  18.156  0.00  0.00    +0.000 A 
ENDBRANCH  19  20
ENDBRANCH  13  19
ENDBRANCH   1  12
BRANCH   6  26
ATOM     26  C   UNL     1      -4.403  13.920  21.440  0.00  0.00    +0.000 C 
BRANCH  26  27
ATOM     27  C   UNL     1      -5.521  12.916  21.212  0.00  0.00    +0.000 A 
ATOM     28  C   UNL     1      -5.601  12.173  20.012  0.00  0.00    +0.000 A 
ATOM     29  C   UNL     1      -6.633  11.255  19.777  0.00  0.00    +0.000 A 
ATOM     30  C   UNL     1      -7.615  11.046  20.740  0.00  0.00    +0.000 A 
ATOM     31  C   UNL     1      -7.577  11.776  21.927  0.00  0.00    +0.000 A 
ATOM     32  C   UNL     1      -6.545  12.702  22.160  0.00  0.00    +0.000 A 
ATOM     33 CL   UNL     1      -6.579  13.512  23.690  0.00  0.00    +0.000 Cl
ENDBRANCH  26  27
BRANCH  26  34
ATOM     34  N   UNL     1      -4.229  14.878  20.337  0.00  0.00    +0.000 NA
ATOM     35  H   UNL     1      -3.256  14.784  20.032  0.00  0.00    +0.000 HD
ATOM     36  H   UNL     1      -4.257  15.813  20.742  0.00  0.00    +0.000 HD
ENDBRANCH  26  34
ENDBRANCH   6  26
TORSDOF 7
ENDMDL
MODEL 3
REMARK VINA RESULT:      -7.0      1.135      1.373
REMARK  Name = 
REMARK  10 active torsions:
REMARK  status: ('A' for Active; 'I' for Inactive)
REMARK    1  A    between atoms: C_1  and  C_2
REMARK    2  A    between atoms: C_2  and  C_3
REMARK    3  A    between atoms: C_2  and  C_4
REMARK    4  A    between atoms: C_2  and  C_5
REMARK    5  A    between atoms: C_7  and  C_8
REMARK    6  A    between atoms: C_13  and  C_14
REMARK    7  A    between atoms: C_14  and  N_15
REMARK    8  A    between atoms: C_14  and  C_16
REMARK    9  A    between atoms: N_25  and  C_26
REMARK   10  A    between atoms: C_26  and  C_27
REMARK                            x       y       z     vdW  Elec       q    Type
REMARK                         _______ _______ _______ _____ _____    ______ ____
ROOT
ATOM      1  C   UNL     1       0.910  12.235  19.754  0.00  0.00    +0.000 C 
ATOM      2  O   UNL     1       1.976  12.648  19.293  0.00  0.00    +0.000 OA
ATOM      3  N   UNL     1       0.593  12.631  21.045  0.00  0.00    +0.000 N 
ATOM      4  C   UNL     1      -0.697  12.678  21.477  0.00  0.00    +0.000 A 
ATOM      5  N   UNL     1      -1.693  13.420  21.034  0.00  0.00    +0.000 NA
ATOM      6  C   UNL     1      -2.876  13.073  21.715  0.00  0.00    +0.000 A 
ATOM      7  C   UNL     1      -2.705  12.064  22.654  0.00  0.00    +0.000 A 
ATOM      8  S   UNL     1      -1.037  11.696  22.834  0.00  0.00    +0.000 S 
ATOM      9  H   UNL     1       1.107  13.472  21.251  0.00  0.00    +0.000 HD
ENDROOT
BRANCH   1  12
ATOM     10  C   UNL     1      -1.645  10.382  17.881  0.00  0.00    +0.000 A 
ATOM     11  C   UNL     1      -1.338  11.328  18.877  0.00  0.00    +0.000 A 
ATOM     12  C   UNL     1       0.038  11.338  19.017  0.00  0.00    +0.000 A 
ATOM     13  N   UNL     1       0.447  10.261  18.256  0.00  0.00    +0.000 N 
ATOM     14  N   UNL     1      -0.557   9.689  17.541  0.00  0.00    +0.000 NA
BRANCH  10  16
ATOM     15  C   UNL     1      -3.833   9.291  17.932  0.00  0.00    +0.000 C 
ATOM     16  C   UNL     1      -2.965  10.272  17.152  0.00  0.00    +0.000 C 
ATOM     17  C   UNL     1      -2.806   9.684  15.742  0.00  0.00    +0.000 C 
ATOM     18  C   UNL     1      -3.744  11.597  17.093  0.00  0.00    +0.000 C 
ENDBRANCH  10  16
BRANCH  13  19
ATOM     19  C   UNL     1       1.783   9.682  18.153  0.00  0.00    +0.000 C 
BRANCH  19  20
ATOM     20  C   UNL     1       1.900   8.329  18.811  0.00  0.00    +0.000 A 
ATOM     21  C   UNL     1       2.458   7.246  18.113  0.00  0.00    +0.000 A 
ATOM     22  C   UNL     1       2.632   6.010  18.738  0.00  0.00    +0.000 A 
ATOM     23  C   UNL     1       2.250   5.838  20.066  0.00  0.00    +0.000 A 
ATOM     24  C   UNL     1       1.688   6.900  20.770  0.00  0.00    +0.000 A 
ATOM     25  C   UNL     1       1.517   8.139  20.148  0.00  0.00    +0.000 A 
ENDBRANCH  19  20
ENDBRANCH  13  19
ENDBRANCH   1  12
BRANCH   6  26
ATOM     26  C   UNL     1      -4.146  13.896  21.532  0.00  0.00    +0.000 C 
BRANCH  26  27
ATOM     27  C   UNL     1      -5.317  12.974  21.231  0.00  0.00    +0.000 A 
ATOM     28  C   UNL     1      -5.422  12.311  19.987  0.00  0.00    +0.000 A 
ATOM     29  C   UNL     1      -6.503  11.470  19.686  0.00  0.00    +0.000 A 
ATOM     30  C   UNL     1      -7.509  11.263  20.623  0.00  0.00    +0.000 A 
ATOM     31  C   UNL     1      -7.446  11.918  21.852  0.00  0.00    +0.000 A 
ATOM     32  C   UNL     1      -6.366  12.765  22.153  0.00  0.00    +0.000 A 
ATOM     33 CL   UNL     1      -6.375  13.483  23.728  0.00  0.00    +0.000 Cl
ENDBRANCH  26  27
BRANCH  26  34
ATOM     34  N   UNL     1      -3.891  14.896  20.484  0.00  0.00    +0.000 NA
ATOM     35  H   UNL     1      -2.878  14.889  20.328  0.00  0.00    +0.000 HD
ATOM     36  H   UNL     1      -4.058  15.813  20.894  0.00  0.00    +0.000 HD
ENDBRANCH  26  34
ENDBRANCH   6  26
TORSDOF 7
ENDMDL
MODEL 4
REMARK VINA RESULT:      -6.9      0.774      1.427
REMARK  Name = 
REMARK  10 active torsions:
REMARK  status: ('A' for Active; 'I' for Inactive)
REMARK    1  A    between atoms: C_1  and  C_2
REMARK    2  A    between atoms: C_2  and  C_3
REMARK    3  A    between atoms: C_2  and  C_4
REMARK    4  A    between atoms: C_2  and  C_5
REMARK    5  A    between atoms: C_7  and  C_8
REMARK    6  A    between atoms: C_13  and  C_14
REMARK    7  A    between atoms: C_14  and  N_15
REMARK    8  A    between atoms: C_14  and  C_16
REMARK    9  A    between atoms: N_25  and  C_26
REMARK   10  A    between atoms: C_26  and  C_27
REMARK                            x       y       z     vdW  Elec       q    Type
REMARK                         _______ _______ _______ _____ _____    ______ ____
ROOT
ATOM      1  C   UNL     1      -0.282  13.804  19.372  0.00  0.00    +0.000 C 
ATOM      2  O   UNL     1       0.500  14.481  18.702  0.00  0.00    +0.000 OA
ATOM      3  N   UNL     1      -0.518  14.226  20.671  0.00  0.00    +0.000 N 
ATOM      4  C   UNL     1      -1.668  13.905  21.324  0.00  0.00    +0.000 A 
ATOM      5  N   UNL     1      -2.911  14.228  21.024  0.00  0.00    +0.000 NA
ATOM      6  C   UNL     1      -3.792  13.601  21.926  0.00  0.00    +0.000 A 
ATOM      7  C   UNL     1      -3.151  12.820  22.879  0.00  0.00    +0.000 A 
ATOM      8  S   UNL     1      -1.450  13.033  22.778  0.00  0.00    +0.000 S 
ATOM      9  H   UNL     1      -0.293  15.206  20.730  0.00  0.00    +0.000 HD
ENDROOT
BRANCH   1  12
ATOM     10  C   UNL     1      -2.235  11.070  17.895  0.00  0.00    +0.000 A 
ATOM     11  C   UNL     1      -2.220  12.307  18.566  0.00  0.00    +0.000 A 
ATOM     12  C   UNL     1      -0.900  12.593  18.860  0.00  0.00    +0.000 A 
ATOM     13  N   UNL     1      -0.237  11.425  18.537  0.00  0.00    +0.000 N 
ATOM     14  N   UNL     1      -1.028  10.504  17.927  0.00  0.00    +0.000 NA
BRANCH  10  16
ATOM     15  C   UNL     1      -2.831  10.086  15.737  0.00  0.00    +0.000 C 
ATOM     16  C   UNL     1      -3.391  10.524  17.085  0.00  0.00    +0.000 C 
ATOM     17  C   UNL     1      -4.451  11.594  16.788  0.00  0.00    +0.000 C 
ATOM     18  C   UNL     1      -4.046   9.283  17.715  0.00  0.00    +0.000 C 
ENDBRANCH  10  16
BRANCH  13  19
ATOM     19  C   UNL     1       1.159  11.079  18.786  0.00  0.00    +0.000 C 
BRANCH  19  20
ATOM     20  C   UNL     1       1.330   9.750  19.481  0.00  0.00    +0.000 A 
ATOM     21  C   UNL     1       0.805   9.547  20.766  0.00  0.00    +0.000 A 
ATOM     22  C   UNL     1       0.900   8.300  21.386  0.00  0.00    +0.000 A 
ATOM     23  C   UNL     1       1.522   7.239  20.731  0.00  0.00    +0.000 A 
ATOM     24  C   UNL     1       2.054   7.426  19.458  0.00  0.00    +0.000 A 
ATOM     25  C   UNL     1       1.957   8.672  18.835  0.00  0.00    +0.000 A 
ENDBRANCH  19  20
ENDBRANCH  13  19
ENDBRANCH   1  12
BRANCH   6  26
ATOM     26  C   UNL     1      -5.277  13.943  21.924  0.00  0.00    +0.000 C 
BRANCH  26  27
ATOM     27  C   UNL     1      -6.079  12.746  21.439  0.00  0.00    +0.000 A 
ATOM     28  C   UNL     1      -5.774  12.111  20.213  0.00  0.00    +0.000 A 
ATOM     29  C   UNL     1      -6.513  11.017  19.743  0.00  0.00    +0.000 A 
ATOM     30  C   UNL     1      -7.577  10.519  20.488  0.00  0.00    +0.000 A 
ATOM     31  C   UNL     1      -7.916  11.135  21.692  0.00  0.00    +0.000 A 
ATOM     32  C   UNL     1      -7.180  12.235  22.162  0.00  0.00    +0.000 A 
ATOM     33 CL   UNL     1      -7.667  12.883  23.691  0.00  0.00    +0.000 Cl
ENDBRANCH  26  27
BRANCH  26  34
ATOM     34  N   UNL     1      -5.462  15.153  21.109  0.00  0.00    +0.000 NA
ATOM     35  H   UNL     1      -4.565  15.648  21.130  0.00  0.00    +0.000 HD
ATOM     36  H   UNL     1      -6.083  15.773  21.626  0.00  0.00    +0.000 HD
ENDBRANCH  26  34
ENDBRANCH   6  26
TORSDOF 7
ENDMDL
MODEL 5
REMARK VINA RESULT:      -6.8      0.527      1.203
REMARK  Name = 
REMARK  10 active torsions:
REMARK  status: ('A' for Active; 'I' for Inactive)
REMARK    1  A    between atoms: C_1  and  C_2
REMARK    2  A    between atoms: C_2  and  C_3
REMARK    3  A    between atoms: C_2  and  C_4
REMARK    4  A    between atoms: C_2  and  C_5
REMARK    5  A    between atoms: C_7  and  C_8
REMARK    6  A    between atoms: C_13  and  C_14
REMARK    7  A    between atoms: C_14  and  N_15
REMARK    8  A    between atoms: C_14  and  C_16
REMARK    9  A    between atoms: N_25  and  C_26
REMARK   10  A    between atoms: C_26  and  C_27
REMARK                            x       y       z     vdW  Elec       q    Type
REMARK                         _______ _______ _______ _____ _____    ______ ____
ROOT
ATOM      1  C   UNL     1       0.068  13.466  19.659  0.00  0.00    +0.000 C 
ATOM      2  O   UNL     1       0.960  13.918  18.938  0.00  0.00    +0.000 OA
ATOM      3  N   UNL     1      -0.057  14.027  20.921  0.00  0.00    +0.000 N 
ATOM      4  C   UNL     1      -1.239  13.996  21.597  0.00  0.00    +0.000 A 
ATOM      5  N   UNL     1      -2.395  14.540  21.271  0.00  0.00    +0.000 NA
ATOM      6  C   UNL     1      -3.370  14.176  22.221  0.00  0.00    +0.000 A 
ATOM      7  C   UNL     1      -2.885  13.357  23.233  0.00  0.00    +0.000 A 
ATOM      8  S   UNL     1      -1.178  13.214  23.115  0.00  0.00    +0.000 S 
ATOM      9  H   UNL     1       0.361  14.942  20.902  0.00  0.00    +0.000 HD
ENDROOT
BRANCH   1  12
ATOM     10  C   UNL     1      -2.264  11.027  18.215  0.00  0.00    +0.000 A 
ATOM     11  C   UNL     1      -1.970  12.368  18.525  0.00  0.00    +0.000 A 
ATOM     12  C   UNL     1      -0.789  12.370  19.244  0.00  0.00    +0.000 A 
ATOM     13  N   UNL     1      -0.563  11.031  19.497  0.00  0.00    +0.000 N 
ATOM     14  N   UNL     1      -1.433  10.204  18.857  0.00  0.00    +0.000 NA
BRANCH  10  16
ATOM     15  C   UNL     1      -4.409  11.553  17.166  0.00  0.00    +0.000 C 
ATOM     16  C   UNL     1      -3.249  10.563  17.166  0.00  0.00    +0.000 C 
ATOM     17  C   UNL     1      -3.851   9.190  17.497  0.00  0.00    +0.000 C 
ATOM     18  C   UNL     1      -2.671  10.563  15.741  0.00  0.00    +0.000 C 
ENDBRANCH  10  16
BRANCH  13  19
ATOM     19  C   UNL     1       0.454  10.432  20.355  0.00  0.00    +0.000 C 
BRANCH  19  20
ATOM     20  C   UNL     1       1.258   9.356  19.666  0.00  0.00    +0.000 A 
ATOM     21  C   UNL     1       1.566   8.161  20.336  0.00  0.00    +0.000 A 
ATOM     22  C   UNL     1       2.250   7.134  19.683  0.00  0.00    +0.000 A 
ATOM     23  C   UNL     1       2.637   7.287  18.353  0.00  0.00    +0.000 A 
ATOM     24  C   UNL     1       2.345   8.469  17.677  0.00  0.00    +0.000 A 
ATOM     25  C   UNL     1       1.658   9.496  18.328  0.00  0.00    +0.000 A 
ENDBRANCH  19  20
ENDBRANCH  13  19
ENDBRANCH   1  12
BRANCH   6  26
ATOM     26  C   UNL     1      -4.755  14.810  22.191  0.00  0.00    +0.000 C 
BRANCH  26  27
ATOM     27  C   UNL     1      -5.802  13.744  21.910  0.00  0.00    +0.000 A 
ATOM     28  C   UNL     1      -5.682  12.878  20.798  0.00  0.00    +0.000 A 
ATOM     29  C   UNL     1      -6.645  11.900  20.515  0.00  0.00    +0.000 A 
ATOM     30  C   UNL     1      -7.757  11.755  21.338  0.00  0.00    +0.000 A 
ATOM     31  C   UNL     1      -7.916  12.605  22.431  0.00  0.00    +0.000 A 
ATOM     32  C   UNL     1      -6.954  13.590  22.713  0.00  0.00    +0.000 A 
ATOM     33 CL   UNL     1      -7.237  14.553  24.123  0.00  0.00    +0.000 Cl
ENDBRANCH  26  27
BRANCH  26  34
ATOM     34  N   UNL     1      -4.735  15.899  21.203  0.00  0.00    +0.000 NA
ATOM     35  H   UNL     1      -5.257  15.554  20.392  0.00  0.00    +0.000 HD
ATOM     36  H   UNL     1      -3.781  15.971  20.853  0.00  0.00    +0.000 HD
ENDBRANCH  26  34
ENDBRANCH   6  26
TORSDOF 7
ENDMDL
MODEL 6
REMARK VINA RESULT:      -6.8      1.020      1.677
REMARK  Name = 
REMARK  10 active torsions:
REMARK  status: ('A' for Active; 'I' for Inactive)
REMARK    1  A    between atoms: C_1  and  C_2
REMARK    2  A    between atoms: C_2  and  C_3
REMARK    3  A    between atoms: C_2  and  C_4
REMARK    4  A    between atoms: C_2  and  C_5
REMARK    5  A    between atoms: C_7  and  C_8
REMARK    6  A    between atoms: C_13  and  C_14
REMARK    7  A    between atoms: C_14  and  N_15
REMARK    8  A    between atoms: C_14  and  C_16
REMARK    9  A    between atoms: N_25  and  C_26
REMARK   10  A    between atoms: C_26  and  C_27
REMARK                            x       y       z     vdW  Elec       q    Type
REMARK                         _______ _______ _______ _____ _____    ______ ____
ROOT
ATOM      1  C   UNL     1       0.213  13.214  19.596  0.00  0.00    +0.000 C 
ATOM      2  O   UNL     1       1.172  13.548  18.897  0.00  0.00    +0.000 OA
ATOM      3  N   UNL     1       0.087  13.847  20.823  0.00  0.00    +0.000 N 
ATOM      4  C   UNL     1      -1.120  13.955  21.445  0.00  0.00    +0.000 A 
ATOM      5  N   UNL     1      -2.208  14.582  21.042  0.00  0.00    +0.000 NA
ATOM      6  C   UNL     1      -3.250  14.354  21.961  0.00  0.00    +0.000 A 
ATOM      7  C   UNL     1      -2.883  13.548  23.032  0.00  0.00    +0.000 A 
ATOM      8  S   UNL     1      -1.193  13.249  23.000  0.00  0.00    +0.000 S 
ATOM      9  H   UNL     1       0.586  14.720  20.781  0.00  0.00    +0.000 HD
ENDROOT
BRANCH   1  12
ATOM     10  C   UNL     1      -2.278  10.926  18.172  0.00  0.00    +0.000 A 
ATOM     11  C   UNL     1      -1.883  12.248  18.448  0.00  0.00    +0.000 A 
ATOM     12  C   UNL     1      -0.721  12.178  19.194  0.00  0.00    +0.000 A 
ATOM     13  N   UNL     1      -0.610  10.834  19.492  0.00  0.00    +0.000 N 
ATOM     14  N   UNL     1      -1.530  10.060  18.858  0.00  0.00    +0.000 NA
BRANCH  10  16
ATOM     15  C   UNL     1      -4.021   9.293  17.649  0.00  0.00    +0.000 C 
ATOM     16  C   UNL     1      -3.275  10.510  17.114  0.00  0.00    +0.000 C 
ATOM     17  C   UNL     1      -2.594  10.064  15.813  0.00  0.00    +0.000 C 
ATOM     18  C   UNL     1      -4.338  11.583  16.820  0.00  0.00    +0.000 C 
ENDBRANCH  10  16
BRANCH  13  19
ATOM     19  C   UNL     1       0.337  10.182  20.392  0.00  0.00    +0.000 C 
BRANCH  19  20
ATOM     20  C   UNL     1       1.229   9.182  19.697  0.00  0.00    +0.000 A 
ATOM     21  C   UNL     1       1.598   7.992  20.343  0.00  0.00    +0.000 A 
ATOM     22  C   UNL     1       2.366   7.031  19.682  0.00  0.00    +0.000 A 
ATOM     23  C   UNL     1       2.777   7.247  18.369  0.00  0.00    +0.000 A 
ATOM     24  C   UNL     1       2.424   8.427  17.716  0.00  0.00    +0.000 A 
ATOM     25  C   UNL     1       1.653   9.387  18.375  0.00  0.00    +0.000 A 
ENDBRANCH  19  20
ENDBRANCH  13  19
ENDBRANCH   1  12
BRANCH   6  26
ATOM     26  C   UNL     1      -4.570  15.104  21.838  0.00  0.00    +0.000 C 
BRANCH  26  27
ATOM     27  C   UNL     1      -5.710  14.223  22.323  0.00  0.00    +0.000 A 
ATOM     28  C   UNL     1      -6.423  14.537  23.503  0.00  0.00    +0.000 A 
ATOM     29  C   UNL     1      -7.466  13.728  23.974  0.00  0.00    +0.000 A 
ATOM     30  C   UNL     1      -7.833  12.582  23.276  0.00  0.00    +0.000 A 
ATOM     31  C   UNL     1      -7.137  12.234  22.119  0.00  0.00    +0.000 A 
ATOM     32  C   UNL     1      -6.087  13.041  21.649  0.00  0.00    +0.000 A 
ATOM     33 CL   UNL     1      -5.331  12.530  20.178  0.00  0.00    +0.000 Cl
ENDBRANCH  26  27
BRANCH  26  34
ATOM     34  N   UNL     1      -4.712  15.546  20.442  0.00  0.00    +0.000 NA
ATOM     35  H   UNL     1      -5.270  16.405  20.474  0.00  0.00    +0.000 HD
ATOM     36  H   UNL     1      -5.330  14.884  19.977  0.00  0.00    +0.000 HD
ENDBRANCH  26  34
ENDBRANCH   6  26
TORSDOF 7
ENDMDL
MODEL 7
REMARK VINA RESULT:      -6.7      1.178      1.681
REMARK  Name = 
REMARK  10 active torsions:
REMARK  status: ('A' for Active; 'I' for Inactive)
REMARK    1  A    between atoms: C_1  and  C_2
REMARK    2  A    between atoms: C_2  and  C_3
REMARK    3  A    between atoms: C_2  and  C_4
REMARK    4  A    between atoms: C_2  and  C_5
REMARK    5  A    between atoms: C_7  and  C_8
REMARK    6  A    between atoms: C_13  and  C_14
REMARK    7  A    between atoms: C_14  and  N_15
REMARK    8  A    between atoms: C_14  and  C_16
REMARK    9  A    between atoms: N_25  and  C_26
REMARK   10  A    between atoms: C_26  and  C_27
REMARK                            x       y       z     vdW  Elec       q    Type
REMARK                         _______ _______ _______ _____ _____    ______ ____
ROOT
ATOM      1  C   UNL     1       0.615  13.251  19.003  0.00  0.00    +0.000 C 
ATOM      2  O   UNL     1       1.549  13.422  18.216  0.00  0.00    +0.000 OA
ATOM      3  N   UNL     1       0.607  14.041  20.142  0.00  0.00    +0.000 N 
ATOM      4  C   UNL     1      -0.549  14.316  20.807  0.00  0.00    +0.000 A 
ATOM      5  N   UNL     1      -1.616  14.966  20.382  0.00  0.00    +0.000 NA
ATOM      6  C   UNL     1      -2.613  14.933  21.376  0.00  0.00    +0.000 A 
ATOM      7  C   UNL     1      -2.236  14.244  22.522  0.00  0.00    +0.000 A 
ATOM      8  S   UNL     1      -0.574  13.819  22.442  0.00  0.00    +0.000 S 
ATOM      9  H   UNL     1       1.160  14.862  19.960  0.00  0.00    +0.000 HD
ENDROOT
BRANCH   1  12
ATOM     10  C   UNL     1      -2.106  10.992  18.021  0.00  0.00    +0.000 A 
ATOM     11  C   UNL     1      -1.607  12.306  18.101  0.00  0.00    +0.000 A 
ATOM     12  C   UNL     1      -0.409  12.244  18.789  0.00  0.00    +0.000 A 
ATOM     13  N   UNL     1      -0.371  10.944  19.254  0.00  0.00    +0.000 N 
ATOM     14  N   UNL     1      -1.378  10.167  18.774  0.00  0.00    +0.000 NA
BRANCH  10  16
ATOM     15  C   UNL     1      -4.275  11.593  17.065  0.00  0.00    +0.000 C 
ATOM     16  C   UNL     1      -3.192  10.521  17.079  0.00  0.00    +0.000 C 
ATOM     17  C   UNL     1      -3.865   9.229  17.565  0.00  0.00    +0.000 C 
ATOM     18  C   UNL     1      -2.714  10.359  15.626  0.00  0.00    +0.000 C 
ENDBRANCH  10  16
BRANCH  13  19
ATOM     19  C   UNL     1       0.583  10.343  20.180  0.00  0.00    +0.000 C 
BRANCH  19  20
ATOM     20  C   UNL     1       1.389   9.224  19.566  0.00  0.00    +0.000 A 
ATOM     21  C   UNL     1       1.631   8.045  20.288  0.00  0.00    +0.000 A 
ATOM     22  C   UNL     1       2.316   6.979  19.702  0.00  0.00    +0.000 A 
ATOM     23  C   UNL     1       2.770   7.077  18.388  0.00  0.00    +0.000 A 
ATOM     24  C   UNL     1       2.543   8.243  17.661  0.00  0.00    +0.000 A 
ATOM     25  C   UNL     1       1.855   9.309  18.245  0.00  0.00    +0.000 A 
ENDBRANCH  19  20
ENDBRANCH  13  19
ENDBRANCH   1  12
BRANCH   6  26
ATOM     26  C   UNL     1      -3.885  15.758  21.226  0.00  0.00    +0.000 C 
BRANCH  26  27
ATOM     27  C   UNL     1      -5.087  14.834  21.115  0.00  0.00    +0.000 A 
ATOM     28  C   UNL     1      -5.063  13.704  20.265  0.00  0.00    +0.000 A 
ATOM     29  C   UNL     1      -6.167  12.851  20.138  0.00  0.00    +0.000 A 
ATOM     30  C   UNL     1      -7.329  13.098  20.862  0.00  0.00    +0.000 A 
ATOM     31  C   UNL     1      -7.393  14.214  21.694  0.00  0.00    +0.000 A 
ATOM     32  C   UNL     1      -6.288  15.074  21.818  0.00  0.00    +0.000 A 
ATOM     33 CL   UNL     1      -6.471  16.399  22.917  0.00  0.00    +0.000 Cl
ENDBRANCH  26  27
BRANCH  26  34
ATOM     34  N   UNL     1      -3.712  16.651  20.070  0.00  0.00    +0.000 NA
ATOM     35  H   UNL     1      -4.623  16.686  19.602  0.00  0.00    +0.000 HD
ATOM     36  H   UNL     1      -3.123  16.164  19.397  0.00  0.00    +0.000 HD
ENDBRANCH  26  34
ENDBRANCH   6  26
TORSDOF 7
ENDMDL
MODEL 8
REMARK VINA RESULT:      -6.5      1.269      1.771
REMARK  Name = 
REMARK  10 active torsions:
REMARK  status: ('A' for Active; 'I' for Inactive)
REMARK    1  A    between atoms: C_1  and  C_2
REMARK    2  A    between atoms: C_2  and  C_3
REMARK    3  A    between atoms: C_2  and  C_4
REMARK    4  A    between atoms: C_2  and  C_5
REMARK    5  A    between atoms: C_7  and  C_8
REMARK    6  A    between atoms: C_13  and  C_14
REMARK    7  A    between atoms: C_14  and  N_15
REMARK    8  A    between atoms: C_14  and  C_16
REMARK    9  A    between atoms: N_25  and  C_26
REMARK   10  A    between atoms: C_26  and  C_27
REMARK                            x       y       z     vdW  Elec       q    Type
REMARK                         _______ _______ _______ _____ _____    ______ ____
ROOT
ATOM      1  C   UNL     1      -0.870  13.689  20.127  0.00  0.00    +0.000 C 
ATOM      2  O   UNL     1       0.065  14.311  19.619  0.00  0.00    +0.000 OA
ATOM      3  N   UNL     1      -1.370  14.180  21.323  0.00  0.00    +0.000 N 
ATOM      4  C   UNL     1      -2.647  13.923  21.718  0.00  0.00    +0.000 A 
ATOM      5  N   UNL     1      -3.780  14.266  21.137  0.00  0.00    +0.000 NA
ATOM      6  C   UNL     1      -4.860  13.708  21.847  0.00  0.00    +0.000 A 
ATOM      7  C   UNL     1      -4.475  12.956  22.950  0.00  0.00    +0.000 A 
ATOM      8  S   UNL     1      -2.787  13.118  23.219  0.00  0.00    +0.000 S 
ATOM      9  H   UNL     1      -1.127  15.155  21.389  0.00  0.00    +0.000 HD
ENDROOT
BRANCH   1  12
ATOM     10  C   UNL     1      -2.504  10.942  18.322  0.00  0.00    +0.000 A 
ATOM     11  C   UNL     1      -2.585  12.240  18.860  0.00  0.00    +0.000 A 
ATOM     12  C   UNL     1      -1.405  12.472  19.542  0.00  0.00    +0.000 A 
ATOM     13  N   UNL     1      -0.787  11.237  19.546  0.00  0.00    +0.000 N 
ATOM     14  N   UNL     1      -1.428  10.308  18.788  0.00  0.00    +0.000 NA
BRANCH  10  16
ATOM     15  C   UNL     1      -4.000  11.577  16.494  0.00  0.00    +0.000 C 
ATOM     16  C   UNL     1      -3.390  10.388  17.229  0.00  0.00    +0.000 C 
ATOM     17  C   UNL     1      -4.565   9.573  17.788  0.00  0.00    +0.000 C 
ATOM     18  C   UNL     1      -2.624   9.567  16.178  0.00  0.00    +0.000 C 
ENDBRANCH  10  16
BRANCH  13  19
ATOM     19  C   UNL     1       0.420  10.832  20.260  0.00  0.00    +0.000 C 
BRANCH  19  20
ATOM     20  C   UNL     1       1.108   9.639  19.642  0.00  0.00    +0.000 A 
ATOM     21  C   UNL     1       1.538   9.680  18.307  0.00  0.00    +0.000 A 
ATOM     22  C   UNL     1       2.236   8.607  17.750  0.00  0.00    +0.000 A 
ATOM     23  C   UNL     1       2.511   7.478  18.518  0.00  0.00    +0.000 A 
ATOM     24  C   UNL     1       2.084   7.418  19.843  0.00  0.00    +0.000 A 
ATOM     25  C   UNL     1       1.390   8.493  20.402  0.00  0.00    +0.000 A 
ENDBRANCH  19  20
ENDBRANCH  13  19
ENDBRANCH   1  12
BRANCH   6  26
ATOM     26  C   UNL     1      -6.295  14.089  21.502  0.00  0.00    +0.000 C 
BRANCH  26  27
ATOM     27  C   UNL     1      -6.580  13.754  20.047  0.00  0.00    +0.000 A 
ATOM     28  C   UNL     1      -6.510  14.746  19.042  0.00  0.00    +0.000 A 
ATOM     29  C   UNL     1      -6.786  14.459  17.698  0.00  0.00    +0.000 A 
ATOM     30  C   UNL     1      -7.135  13.167  17.317  0.00  0.00    +0.000 A 
ATOM     31  C   UNL     1      -7.232  12.170  18.285  0.00  0.00    +0.000 A 
ATOM     32  C   UNL     1      -6.962  12.458  19.634  0.00  0.00    +0.000 A 
ATOM     33 CL   UNL     1      -7.070  11.127  20.736  0.00  0.00    +0.000 Cl
ENDBRANCH  26  27
BRANCH  26  34
ATOM     34  N   UNL     1      -6.478  15.511  21.832  0.00  0.00    +0.000 NA
ATOM     35  H   UNL     1      -5.578  15.833  22.203  0.00  0.00    +0.000 HD
ATOM     36  H   UNL     1      -7.093  15.557  22.641  0.00  0.00    +0.000 HD
ENDBRANCH  26  34
ENDBRANCH   6  26
TORSDOF 7
ENDMDL
MODEL 9
REMARK VINA RESULT:      -6.5      3.109      6.737
REMARK  Name = 
REMARK  10 active torsions:
REMARK  status: ('A' for Active; 'I' for Inactive)
REMARK    1  A    between atoms: C_1  and  C_2
REMARK    2  A    between atoms: C_2  and  C_3
REMARK    3  A    between atoms: C_2  and  C_4
REMARK    4  A    between atoms: C_2  and  C_5
REMARK    5  A    between atoms: C_7  and  C_8
REMARK    6  A    between atoms: C_13  and  C_14
REMARK    7  A    between atoms: C_14  and  N_15
REMARK    8  A    between atoms: C_14  and  C_16
REMARK    9  A    between atoms: N_25  and  C_26
REMARK   10  A    between atoms: C_26  and  C_27
REMARK                            x       y       z     vdW  Elec       q    Type
REMARK                         _______ _______ _______ _____ _____    ______ ____
ROOT
ATOM      1  C   UNL     1      -6.126  12.795  22.618  0.00  0.00    +0.000 C 
ATOM      2  O   UNL     1      -7.082  12.018  22.644  0.00  0.00    +0.000 OA
ATOM      3  N   UNL     1      -5.136  12.597  23.568  0.00  0.00    +0.000 N 
ATOM      4  C   UNL     1      -3.858  13.019  23.361  0.00  0.00    +0.000 A 
ATOM      5  N   UNL     1      -3.002  12.644  22.430  0.00  0.00    +0.000 NA
ATOM      6  C   UNL     1      -1.825  13.411  22.539  0.00  0.00    +0.000 A 
ATOM      7  C   UNL     1      -1.860  14.345  23.567  0.00  0.00    +0.000 A 
ATOM      8  S   UNL     1      -3.268  14.124  24.524  0.00  0.00    +0.000 S 
ATOM      9  H   UNL     1      -5.188  11.642  23.883  0.00  0.00    +0.000 HD
ENDROOT
BRANCH   1  12
ATOM     10  C   UNL     1      -5.657  15.850  20.638  0.00  0.00    +0.000 A 
ATOM     11  C   UNL     1      -5.900  15.258  21.892  0.00  0.00    +0.000 A 
ATOM     12  C   UNL     1      -6.045  13.900  21.679  0.00  0.00    +0.000 A 
ATOM     13  N   UNL     1      -6.088  13.792  20.303  0.00  0.00    +0.000 N 
ATOM     14  N   UNL     1      -5.828  14.961  19.659  0.00  0.00    +0.000 NA
BRANCH  10  16
ATOM     15  C   UNL     1      -5.323  18.027  21.701  0.00  0.00    +0.000 C 
ATOM     16  C   UNL     1      -5.100  17.239  20.416  0.00  0.00    +0.000 C 
ATOM     17  C   UNL     1      -5.846  17.995  19.307  0.00  0.00    +0.000 C 
ATOM     18  C   UNL     1      -3.586  17.254  20.147  0.00  0.00    +0.000 C 
ENDBRANCH  10  16
BRANCH  13  19
ATOM     19  C   UNL     1      -6.389  12.613  19.497  0.00  0.00    +0.000 C 
BRANCH  19  20
ATOM     20  C   UNL     1      -5.202  12.104  18.716  0.00  0.00    +0.000 A 
ATOM     21  C   UNL     1      -5.346  11.723  17.373  0.00  0.00    +0.000 A 
ATOM     22  C   UNL     1      -4.240  11.317  16.625  0.00  0.00    +0.000 A 
ATOM     23  C   UNL     1      -2.975  11.285  17.208  0.00  0.00    +0.000 A 
ATOM     24  C   UNL     1      -2.816  11.654  18.542  0.00  0.00    +0.000 A 
ATOM     25  C   UNL     1      -3.921  12.064  19.290  0.00  0.00    +0.000 A 
ENDBRANCH  19  20
ENDBRANCH  13  19
ENDBRANCH   1  12
BRANCH   6  26
ATOM     26  C   UNL     1      -0.597  13.068  21.704  0.00  0.00    +0.000 C 
BRANCH  26  27
ATOM     27  C   UNL     1      -0.367  11.565  21.721  0.00  0.00    +0.000 A 
ATOM     28  C   UNL     1      -0.701  10.789  22.855  0.00  0.00    +0.000 A 
ATOM     29  C   UNL     1      -0.482   9.405  22.894  0.00  0.00    +0.000 A 
ATOM     30  C   UNL     1       0.074   8.754  21.798  0.00  0.00    +0.000 A 
ATOM     31  C   UNL     1       0.433   9.493  20.672  0.00  0.00    +0.000 A 
ATOM     32  C   UNL     1       0.219  10.881  20.633  0.00  0.00    +0.000 A 
ATOM     33 CL   UNL     1       0.661  11.681  19.164  0.00  0.00    +0.000 Cl
ENDBRANCH  26  27
BRANCH  26  34
ATOM     34  N   UNL     1       0.536  13.849  22.223  0.00  0.00    +0.000 NA
ATOM     35  H   UNL     1       1.341  13.599  21.640  0.00  0.00    +0.000 HD
ATOM     36  H   UNL     1       0.778  13.463  23.133  0.00  0.00    +0.000 HD
ENDBRANCH  26  34
ENDBRANCH   6  26
TORSDOF 7
ENDMDL
