MODEL 1
REMARK VINA RESULT:      -6.7      0.000      0.000
REMARK  Name = 
REMARK  8 active torsions:
REMARK  status: ('A' for Active; 'I' for Inactive)
REMARK    1  A    between atoms: C_1  and  O_2
REMARK    2  A    between atoms: O_2  and  C_3
REMARK    3  A    between atoms: C_5  and  C_6
REMARK    4  A    between atoms: N_12  and  C_13
REMARK    5  A    between atoms: C_23  and  O_24
REMARK    6  A    between atoms: O_24  and  C_25
REMARK    7  A    between atoms: C_26  and  O_27
REMARK    8  A    between atoms: O_27  and  C_28
REMARK                            x       y       z     vdW  Elec       q    Type
REMARK                         _______ _______ _______ _____ _____    ______ ____
ROOT
ATOM      1  C   UNL     1       1.863   6.607  19.284  0.00  0.00    +0.000 C 
ATOM      2  S   UNL     1       1.245   5.223  20.301  0.00  0.00    +0.000 S 
ATOM      3  C   UNL     1       2.875   4.594  20.765  0.00  0.00    +0.000 C 
ATOM      4  C   UNL     1       3.881   5.357  19.941  0.00  0.00    +0.000 C 
ATOM      5  C   UNL     1       4.641   4.561  18.897  0.00  0.00    +0.000 C 
ATOM      6  O   UNL     1       5.147   3.477  19.128  0.00  0.00    +0.000 OA
ATOM      7  N   UNL     1       4.745   5.360  17.769  0.00  0.00    +0.000 N 
ATOM      8  C   UNL     1       3.872   6.425  17.871  0.00  0.00    +0.000 C 
ATOM      9  O   UNL     1       3.537   7.215  16.998  0.00  0.00    +0.000 OA
ATOM     10  N   UNL     1       3.286   6.386  19.137  0.00  0.00    +0.000 N 
ENDROOT
BRANCH   1  13
ATOM     11  C   UNL     1       1.182   9.469  21.750  0.00  0.00    +0.000 A 
ATOM     12  C   UNL     1       1.299   8.174  21.215  0.00  0.00    +0.000 A 
ATOM     13  C   UNL     1       1.496   7.961  19.851  0.00  0.00    +0.000 A 
ATOM     14  C   UNL     1       1.456   9.086  19.017  0.00  0.00    +0.000 A 
ATOM     15  C   UNL     1       1.230  10.382  19.512  0.00  0.00    +0.000 A 
ATOM     16  C   UNL     1       1.085  10.590  20.900  0.00  0.00    +0.000 A 
BRANCH  11  18
ATOM     17  C   UNL     1      -0.143   9.540  23.704  0.00  0.00    +0.000 C 
ATOM     18  O   UNL     1       1.159   9.622  23.115  0.00  0.00    +0.000 OA
ENDBRANCH  11  18
BRANCH  15  19
ATOM     19  O   UNL     1       1.221  11.304  18.495  0.00  0.00    +0.000 OA
ATOM     20  C   UNL     1       2.374  12.095  18.252  0.00  0.00    +0.000 C 
ENDBRANCH  15  19
BRANCH  16  21
ATOM     21  O   UNL     1       0.864  11.882  21.292  0.00  0.00    +0.000 OA
ATOM     22  C   UNL     1      -0.449  12.398  21.414  0.00  0.00    +0.000 C 
ENDBRANCH  16  21
ENDBRANCH   1  13
BRANCH   7  23
ATOM     23  C   UNL     1       5.535   5.057  16.631  0.00  0.00    +0.000 A 
ATOM     24  C   UNL     1       6.842   5.553  16.497  0.00  0.00    +0.000 A 
ATOM     25  C   UNL     1       7.587   5.323  15.336  0.00  0.00    +0.000 A 
ATOM     26  C   UNL     1       7.027   4.614  14.278  0.00  0.00    +0.000 A 
ATOM     27  C   UNL     1       5.739   4.102  14.398  0.00  0.00    +0.000 A 
ATOM     28  C   UNL     1       5.007   4.303  15.573  0.00  0.00    +0.000 A 
ENDBRANCH   7  23
TORSDOF 5
ENDMDL
MODEL 2
REMARK VINA RESULT:      -6.6      0.276      2.377
REMARK  Name = 
REMARK  8 active torsions:
REMARK  status: ('A' for Active; 'I' for Inactive)
REMARK    1  A    between atoms: C_1  and  O_2
REMARK    2  A    between atoms: O_2  and  C_3
REMARK    3  A    between atoms: C_5  and  C_6
REMARK    4  A    between atoms: N_12  and  C_13
REMARK    5  A    between atoms: C_23  and  O_24
REMARK    6  A    between atoms: O_24  and  C_25
REMARK    7  A    between atoms: C_26  and  O_27
REMARK    8  A    between atoms: O_27  and  C_28
REMARK                            x       y       z     vdW  Elec       q    Type
REMARK                         _______ _______ _______ _____ _____    ______ ____
ROOT
ATOM      1  C   UNL     1       1.961   6.853  19.161  0.00  0.00    +0.000 C 
ATOM      2  S   UNL     1       1.236   5.525  20.182  0.00  0.00    +0.000 S 
ATOM      3  C   UNL     1       2.810   4.757  20.627  0.00  0.00    +0.000 C 
ATOM      4  C   UNL     1       3.870   5.433  19.795  0.00  0.00    +0.000 C 
ATOM      5  C   UNL     1       4.548   4.577  18.740  0.00  0.00    +0.000 C 
ATOM      6  O   UNL     1       4.961   3.454  18.965  0.00  0.00    +0.000 OA
ATOM      7  N   UNL     1       4.709   5.367  17.613  0.00  0.00    +0.000 N 
ATOM      8  C   UNL     1       3.932   6.504  17.726  0.00  0.00    +0.000 C 
ATOM      9  O   UNL     1       3.657   7.322  16.859  0.00  0.00    +0.000 OA
ATOM     10  N   UNL     1       3.358   6.512  18.999  0.00  0.00    +0.000 N 
ENDROOT
BRANCH   1  13
ATOM     11  C   UNL     1       1.187  10.603  19.448  0.00  0.00    +0.000 A 
ATOM     12  C   UNL     1       1.633   9.372  18.934  0.00  0.00    +0.000 A 
ATOM     13  C   UNL     1       1.718   8.233  19.734  0.00  0.00    +0.000 A 
ATOM     14  C   UNL     1       1.452   8.391  21.100  0.00  0.00    +0.000 A 
ATOM     15  C   UNL     1       1.110   9.634  21.661  0.00  0.00    +0.000 A 
ATOM     16  C   UNL     1       0.976  10.768  20.833  0.00  0.00    +0.000 A 
BRANCH  11  18
ATOM     17  C   UNL     1       2.102  12.477  18.339  0.00  0.00    +0.000 C 
ATOM     18  O   UNL     1       0.964  11.642  18.577  0.00  0.00    +0.000 OA
ENDBRANCH  11  18
BRANCH  15  19
ATOM     19  O   UNL     1       0.915   9.527  23.016  0.00  0.00    +0.000 OA
ATOM     20  C   UNL     1      -0.401   9.398  23.530  0.00  0.00    +0.000 C 
ENDBRANCH  15  19
BRANCH  16  21
ATOM     21  O   UNL     1       0.646  11.935  21.463  0.00  0.00    +0.000 OA
ATOM     22  C   UNL     1      -0.695  12.387  21.518  0.00  0.00    +0.000 C 
ENDBRANCH  16  21
ENDBRANCH   1  13
BRANCH   7  23
ATOM     23  C   UNL     1       5.458   5.001  16.467  0.00  0.00    +0.000 A 
ATOM     24  C   UNL     1       6.795   5.401  16.310  0.00  0.00    +0.000 A 
ATOM     25  C   UNL     1       7.504   5.111  15.141  0.00  0.00    +0.000 A 
ATOM     26  C   UNL     1       6.880   4.436  14.096  0.00  0.00    +0.000 A 
ATOM     27  C   UNL     1       5.560   4.018  14.239  0.00  0.00    +0.000 A 
ATOM     28  C   UNL     1       4.861   4.280  15.422  0.00  0.00    +0.000 A 
ENDBRANCH   7  23
TORSDOF 5
ENDMDL
MODEL 3
REMARK VINA RESULT:      -6.2      2.560      4.553
REMARK  Name = 
REMARK  8 active torsions:
REMARK  status: ('A' for Active; 'I' for Inactive)
REMARK    1  A    between atoms: C_1  and  O_2
REMARK    2  A    between atoms: O_2  and  C_3
REMARK    3  A    between atoms: C_5  and  C_6
REMARK    4  A    between atoms: N_12  and  C_13
REMARK    5  A    between atoms: C_23  and  O_24
REMARK    6  A    between atoms: O_24  and  C_25
REMARK    7  A    between atoms: C_26  and  O_27
REMARK    8  A    between atoms: O_27  and  C_28
REMARK                            x       y       z     vdW  Elec       q    Type
REMARK                         _______ _______ _______ _____ _____    ______ ____
ROOT
ATOM      1  C   UNL     1       0.318  10.126  19.268  0.00  0.00    +0.000 C 
ATOM      2  S   UNL     1      -0.877   9.678  20.573  0.00  0.00    +0.000 S 
ATOM      3  C   UNL     1       0.282   8.697  21.553  0.00  0.00    +0.000 C 
ATOM      4  C   UNL     1       1.537   8.564  20.729  0.00  0.00    +0.000 C 
ATOM      5  C   UNL     1       1.869   7.171  20.224  0.00  0.00    +0.000 C 
ATOM      6  O   UNL     1       1.825   6.182  20.933  0.00  0.00    +0.000 OA
ATOM      7  N   UNL     1       2.341   7.308  18.929  0.00  0.00    +0.000 N 
ATOM      8  C   UNL     1       2.046   8.571  18.456  0.00  0.00    +0.000 C 
ATOM      9  O   UNL     1       2.120   8.985  17.307  0.00  0.00    +0.000 OA
ATOM     10  N   UNL     1       1.487   9.307  19.502  0.00  0.00    +0.000 N 
ENDROOT
BRANCH   1  13
ATOM     11  C   UNL     1       1.886  13.516  18.377  0.00  0.00    +0.000 A 
ATOM     12  C   UNL     1       1.745  12.138  18.621  0.00  0.00    +0.000 A 
ATOM     13  C   UNL     1       0.597  11.613  19.214  0.00  0.00    +0.000 A 
ATOM     14  C   UNL     1      -0.363  12.527  19.665  0.00  0.00    +0.000 A 
ATOM     15  C   UNL     1      -0.199  13.917  19.534  0.00  0.00    +0.000 A 
ATOM     16  C   UNL     1       0.943  14.433  18.885  0.00  0.00    +0.000 A 
BRANCH  11  18
ATOM     17  C   UNL     1       4.108  14.315  18.415  0.00  0.00    +0.000 C 
ATOM     18  O   UNL     1       2.960  13.952  17.640  0.00  0.00    +0.000 OA
ENDBRANCH  11  18
BRANCH  15  19
ATOM     19  O   UNL     1      -1.269  14.593  20.067  0.00  0.00    +0.000 OA
ATOM     20  C   UNL     1      -2.362  13.867  20.605  0.00  0.00    +0.000 C 
ENDBRANCH  15  19
BRANCH  16  21
ATOM     21  O   UNL     1       1.022  15.796  18.807  0.00  0.00    +0.000 OA
ATOM     22  C   UNL     1       1.580  16.561  19.860  0.00  0.00    +0.000 C 
ENDBRANCH  16  21
ENDBRANCH   1  13
BRANCH   7  23
ATOM     23  C   UNL     1       2.926   6.265  18.165  0.00  0.00    +0.000 A 
ATOM     24  C   UNL     1       2.241   5.064  17.925  0.00  0.00    +0.000 A 
ATOM     25  C   UNL     1       2.852   4.007  17.244  0.00  0.00    +0.000 A 
ATOM     26  C   UNL     1       4.169   4.125  16.812  0.00  0.00    +0.000 A 
ATOM     27  C   UNL     1       4.860   5.314  17.027  0.00  0.00    +0.000 A 
ATOM     28  C   UNL     1       4.236   6.383  17.679  0.00  0.00    +0.000 A 
ENDBRANCH   7  23
TORSDOF 5
ENDMDL
MODEL 4
REMARK VINA RESULT:      -6.1      2.991      4.966
REMARK  Name = 
REMARK  8 active torsions:
REMARK  status: ('A' for Active; 'I' for Inactive)
REMARK    1  A    between atoms: C_1  and  O_2
REMARK    2  A    between atoms: O_2  and  C_3
REMARK    3  A    between atoms: C_5  and  C_6
REMARK    4  A    between atoms: N_12  and  C_13
REMARK    5  A    between atoms: C_23  and  O_24
REMARK    6  A    between atoms: O_24  and  C_25
REMARK    7  A    between atoms: C_26  and  O_27
REMARK    8  A    between atoms: O_27  and  C_28
REMARK                            x       y       z     vdW  Elec       q    Type
REMARK                         _______ _______ _______ _____ _____    ______ ____
ROOT
ATOM      1  C   UNL     1       0.332  10.932  18.947  0.00  0.00    +0.000 C 
ATOM      2  S   UNL     1      -0.998  10.654  20.165  0.00  0.00    +0.000 S 
ATOM      3  C   UNL     1      -0.005   9.651  21.294  0.00  0.00    +0.000 C 
ATOM      4  C   UNL     1       1.300   9.376  20.591  0.00  0.00    +0.000 C 
ATOM      5  C   UNL     1       1.562   7.935  20.194  0.00  0.00    +0.000 C 
ATOM      6  O   UNL     1       1.380   6.996  20.948  0.00  0.00    +0.000 OA
ATOM      7  N   UNL     1       2.149   7.957  18.939  0.00  0.00    +0.000 N 
ATOM      8  C   UNL     1       1.994   9.207  18.374  0.00  0.00    +0.000 C 
ATOM      9  O   UNL     1       2.195   9.545  17.215  0.00  0.00    +0.000 OA
ATOM     10  N   UNL     1       1.410  10.044  19.326  0.00  0.00    +0.000 N 
ENDROOT
BRANCH   1  13
ATOM     11  C   UNL     1       0.161  14.766  18.832  0.00  0.00    +0.000 A 
ATOM     12  C   UNL     1      -0.205  13.414  18.707  0.00  0.00    +0.000 A 
ATOM     13  C   UNL     1       0.731  12.388  18.837  0.00  0.00    +0.000 A 
ATOM     14  C   UNL     1       2.073  12.763  18.980  0.00  0.00    +0.000 A 
ATOM     15  C   UNL     1       2.481  14.108  18.998  0.00  0.00    +0.000 A 
ATOM     16  C   UNL     1       1.519  15.137  18.918  0.00  0.00    +0.000 A 
BRANCH  11  18
ATOM     17  C   UNL     1      -1.326  16.022  20.170  0.00  0.00    +0.000 C 
ATOM     18  O   UNL     1      -0.829  15.719  18.863  0.00  0.00    +0.000 OA
ENDBRANCH  11  18
BRANCH  15  19
ATOM     19  O   UNL     1       3.844  14.209  19.133  0.00  0.00    +0.000 OA
ATOM     20  C   UNL     1       4.647  14.460  17.991  0.00  0.00    +0.000 C 
ENDBRANCH  15  19
BRANCH  16  21
ATOM     21  O   UNL     1       2.005  16.415  18.938  0.00  0.00    +0.000 OA
ATOM     22  C   UNL     1       2.137  17.168  17.746  0.00  0.00    +0.000 C 
ENDBRANCH  16  21
ENDBRANCH   1  13
BRANCH   7  23
ATOM     23  C   UNL     1       2.711   6.830  18.286  0.00  0.00    +0.000 A 
ATOM     24  C   UNL     1       2.022   5.608  18.217  0.00  0.00    +0.000 A 
ATOM     25  C   UNL     1       2.614   4.476  17.648  0.00  0.00    +0.000 A 
ATOM     26  C   UNL     1       3.915   4.541  17.160  0.00  0.00    +0.000 A 
ATOM     27  C   UNL     1       4.609   5.747  17.206  0.00  0.00    +0.000 A 
ATOM     28  C   UNL     1       4.004   6.888  17.745  0.00  0.00    +0.000 A 
ENDBRANCH   7  23
TORSDOF 5
ENDMDL
MODEL 5
REMARK VINA RESULT:      -6.0      4.280      7.150
REMARK  Name = 
REMARK  8 active torsions:
REMARK  status: ('A' for Active; 'I' for Inactive)
REMARK    1  A    between atoms: C_1  and  O_2
REMARK    2  A    between atoms: O_2  and  C_3
REMARK    3  A    between atoms: C_5  and  C_6
REMARK    4  A    between atoms: N_12  and  C_13
REMARK    5  A    between atoms: C_23  and  O_24
REMARK    6  A    between atoms: O_24  and  C_25
REMARK    7  A    between atoms: C_26  and  O_27
REMARK    8  A    between atoms: O_27  and  C_28
REMARK                            x       y       z     vdW  Elec       q    Type
REMARK                         _______ _______ _______ _____ _____    ______ ____
ROOT
ATOM      1  C   UNL     1      -1.037  12.272  20.904  0.00  0.00    +0.000 C 
ATOM      2  S   UNL     1      -0.067  13.815  21.009  0.00  0.00    +0.000 S 
ATOM      3  C   UNL     1       0.668  13.681  19.363  0.00  0.00    +0.000 C 
ATOM      4  C   UNL     1       0.303  12.315  18.838  0.00  0.00    +0.000 C 
ATOM      5  C   UNL     1       1.444  11.330  18.666  0.00  0.00    +0.000 C 
ATOM      6  O   UNL     1       2.499  11.625  18.132  0.00  0.00    +0.000 OA
ATOM      7  N   UNL     1       0.981  10.091  19.080  0.00  0.00    +0.000 N 
ATOM      8  C   UNL     1      -0.197  10.246  19.784  0.00  0.00    +0.000 C 
ATOM      9  O   UNL     1      -0.783   9.418  20.469  0.00  0.00    +0.000 OA
ATOM     10  N   UNL     1      -0.570  11.589  19.717  0.00  0.00    +0.000 N 
ENDROOT
BRANCH   1  13
ATOM     11  C   UNL     1      -4.706  12.611  19.825  0.00  0.00    +0.000 A 
ATOM     12  C   UNL     1      -3.300  12.612  19.780  0.00  0.00    +0.000 A 
ATOM     13  C   UNL     1      -2.531  12.514  20.938  0.00  0.00    +0.000 A 
ATOM     14  C   UNL     1      -3.213  12.534  22.162  0.00  0.00    +0.000 A 
ATOM     15  C   UNL     1      -4.612  12.643  22.240  0.00  0.00    +0.000 A 
ATOM     16  C   UNL     1      -5.383  12.688  21.060  0.00  0.00    +0.000 A 
BRANCH  11  18
ATOM     17  C   UNL     1      -5.180  11.345  17.888  0.00  0.00    +0.000 C 
ATOM     18  O   UNL     1      -5.407  12.538  18.646  0.00  0.00    +0.000 OA
ENDBRANCH  11  18
BRANCH  15  19
ATOM     19  O   UNL     1      -5.033  12.655  23.547  0.00  0.00    +0.000 OA
ATOM     20  C   UNL     1      -4.076  12.645  24.595  0.00  0.00    +0.000 C 
ENDBRANCH  15  19
BRANCH  16  21
ATOM     21  O   UNL     1      -6.735  12.799  21.231  0.00  0.00    +0.000 OA
ATOM     22  C   UNL     1      -7.567  11.654  21.269  0.00  0.00    +0.000 C 
ENDBRANCH  16  21
ENDBRANCH   1  13
BRANCH   7  23
ATOM     23  C   UNL     1       1.679   8.868  18.914  0.00  0.00    +0.000 A 
ATOM     24  C   UNL     1       1.790   7.943  19.964  0.00  0.00    +0.000 A 
ATOM     25  C   UNL     1       2.550   6.777  19.823  0.00  0.00    +0.000 A 
ATOM     26  C   UNL     1       3.233   6.530  18.636  0.00  0.00    +0.000 A 
ATOM     27  C   UNL     1       3.123   7.428  17.579  0.00  0.00    +0.000 A 
ATOM     28  C   UNL     1       2.335   8.577  17.709  0.00  0.00    +0.000 A 
ENDBRANCH   7  23
TORSDOF 5
ENDMDL
MODEL 6
REMARK VINA RESULT:      -5.9      2.866      8.743
REMARK  Name = 
REMARK  8 active torsions:
REMARK  status: ('A' for Active; 'I' for Inactive)
REMARK    1  A    between atoms: C_1  and  O_2
REMARK    2  A    between atoms: O_2  and  C_3
REMARK    3  A    between atoms: C_5  and  C_6
REMARK    4  A    between atoms: N_12  and  C_13
REMARK    5  A    between atoms: C_23  and  O_24
REMARK    6  A    between atoms: O_24  and  C_25
REMARK    7  A    between atoms: C_26  and  O_27
REMARK    8  A    between atoms: O_27  and  C_28
REMARK                            x       y       z     vdW  Elec       q    Type
REMARK                         _______ _______ _______ _____ _____    ______ ____
ROOT
ATOM      1  C   UNL     1       1.186   9.821  18.812  0.00  0.00    +0.000 C 
ATOM      2  S   UNL     1       2.003  11.078  17.771  0.00  0.00    +0.000 S 
ATOM      3  C   UNL     1       2.253  12.280  19.098  0.00  0.00    +0.000 C 
ATOM      4  C   UNL     1       1.501  11.761  20.296  0.00  0.00    +0.000 C 
ATOM      5  C   UNL     1       0.294  12.568  20.738  0.00  0.00    +0.000 C 
ATOM      6  O   UNL     1       0.314  13.781  20.852  0.00  0.00    +0.000 OA
ATOM      7  N   UNL     1      -0.694  11.665  21.097  0.00  0.00    +0.000 N 
ATOM      8  C   UNL     1      -0.365  10.406  20.634  0.00  0.00    +0.000 C 
ATOM      9  O   UNL     1      -1.074   9.411  20.579  0.00  0.00    +0.000 OA
ATOM     10  N   UNL     1       0.914  10.470  20.077  0.00  0.00    +0.000 N 
ENDROOT
BRANCH   1  13
ATOM     11  C   UNL     1       2.387   6.354  19.942  0.00  0.00    +0.000 A 
ATOM     12  C   UNL     1       1.804   7.633  19.967  0.00  0.00    +0.000 A 
ATOM     13  C   UNL     1       1.987   8.542  18.926  0.00  0.00    +0.000 A 
ATOM     14  C   UNL     1       2.872   8.173  17.905  0.00  0.00    +0.000 A 
ATOM     15  C   UNL     1       3.554   6.943  17.909  0.00  0.00    +0.000 A 
ATOM     16  C   UNL     1       3.321   6.011  18.942  0.00  0.00    +0.000 A 
BRANCH  11  18
ATOM     17  C   UNL     1       1.088   4.458  20.488  0.00  0.00    +0.000 C 
ATOM     18  O   UNL     1       2.034   5.446  20.911  0.00  0.00    +0.000 OA
ENDBRANCH  11  18
BRANCH  15  19
ATOM     19  O   UNL     1       4.371   6.829  16.811  0.00  0.00    +0.000 OA
ATOM     20  C   UNL     1       5.777   6.944  16.964  0.00  0.00    +0.000 C 
ENDBRANCH  15  19
BRANCH  16  21
ATOM     21  O   UNL     1       4.030   4.845  18.868  0.00  0.00    +0.000 OA
ATOM     22  C   UNL     1       3.667   3.821  17.961  0.00  0.00    +0.000 C 
ENDBRANCH  16  21
ENDBRANCH   1  13
BRANCH   7  23
ATOM     23  C   UNL     1      -1.914  12.008  21.733  0.00  0.00    +0.000 A 
ATOM     24  C   UNL     1      -2.961  12.617  21.023  0.00  0.00    +0.000 A 
ATOM     25  C   UNL     1      -4.129  13.030  21.671  0.00  0.00    +0.000 A 
ATOM     26  C   UNL     1      -4.260  12.864  23.046  0.00  0.00    +0.000 A 
ATOM     27  C   UNL     1      -3.239  12.248  23.765  0.00  0.00    +0.000 A 
ATOM     28  C   UNL     1      -2.085  11.804  23.110  0.00  0.00    +0.000 A 
ENDBRANCH   7  23
TORSDOF 5
ENDMDL
MODEL 7
REMARK VINA RESULT:      -5.9      4.187      7.155
REMARK  Name = 
REMARK  8 active torsions:
REMARK  status: ('A' for Active; 'I' for Inactive)
REMARK    1  A    between atoms: C_1  and  O_2
REMARK    2  A    between atoms: O_2  and  C_3
REMARK    3  A    between atoms: C_5  and  C_6
REMARK    4  A    between atoms: N_12  and  C_13
REMARK    5  A    between atoms: C_23  and  O_24
REMARK    6  A    between atoms: O_24  and  C_25
REMARK    7  A    between atoms: C_26  and  O_27
REMARK    8  A    between atoms: O_27  and  C_28
REMARK                            x       y       z     vdW  Elec       q    Type
REMARK                         _______ _______ _______ _____ _____    ______ ____
ROOT
ATOM      1  C   UNL     1      -0.816  12.432  21.000  0.00  0.00    +0.000 C 
ATOM      2  S   UNL     1       0.187  13.956  20.946  0.00  0.00    +0.000 S 
ATOM      3  C   UNL     1       0.816  13.702  19.271  0.00  0.00    +0.000 C 
ATOM      4  C   UNL     1       0.393  12.315  18.858  0.00  0.00    +0.000 C 
ATOM      5  C   UNL     1       1.504  11.295  18.680  0.00  0.00    +0.000 C 
ATOM      6  O   UNL     1       2.528  11.532  18.066  0.00  0.00    +0.000 OA
ATOM      7  N   UNL     1       1.045  10.096  19.202  0.00  0.00    +0.000 N 
ATOM      8  C   UNL     1      -0.084  10.321  19.964  0.00  0.00    +0.000 C 
ATOM      9  O   UNL     1      -0.642   9.552  20.736  0.00  0.00    +0.000 OA
ATOM     10  N   UNL     1      -0.436  11.665  19.833  0.00  0.00    +0.000 N 
ENDROOT
BRANCH   1  13
ATOM     11  C   UNL     1      -4.558  12.659  20.172  0.00  0.00    +0.000 A 
ATOM     12  C   UNL     1      -3.161  12.621  20.016  0.00  0.00    +0.000 A 
ATOM     13  C   UNL     1      -2.300  12.709  21.110  0.00  0.00    +0.000 A 
ATOM     14  C   UNL     1      -2.880  12.955  22.361  0.00  0.00    +0.000 A 
ATOM     15  C   UNL     1      -4.267  13.107  22.529  0.00  0.00    +0.000 A 
ATOM     16  C   UNL     1      -5.132  12.964  21.424  0.00  0.00    +0.000 A 
BRANCH  11  18
ATOM     17  C   UNL     1      -4.706  11.675  18.030  0.00  0.00    +0.000 C 
ATOM     18  O   UNL     1      -5.353  12.399  19.082  0.00  0.00    +0.000 OA
ENDBRANCH  11  18
BRANCH  15  19
ATOM     19  O   UNL     1      -4.580  13.355  23.843  0.00  0.00    +0.000 OA
ATOM     20  C   UNL     1      -4.667  12.277  24.762  0.00  0.00    +0.000 C 
ENDBRANCH  15  19
BRANCH  16  21
ATOM     21  O   UNL     1      -6.464  13.133  21.679  0.00  0.00    +0.000 OA
ATOM     22  C   UNL     1      -7.319  12.023  21.885  0.00  0.00    +0.000 C 
ENDBRANCH  16  21
ENDBRANCH   1  13
BRANCH   7  23
ATOM     23  C   UNL     1       1.708   8.849  19.073  0.00  0.00    +0.000 A 
ATOM     24  C   UNL     1       2.238   8.428  17.843  0.00  0.00    +0.000 A 
ATOM     25  C   UNL     1       2.816   7.162  17.700  0.00  0.00    +0.000 A 
ATOM     26  C   UNL     1       2.852   6.287  18.781  0.00  0.00    +0.000 A 
ATOM     27  C   UNL     1       2.346   6.692  20.012  0.00  0.00    +0.000 A 
ATOM     28  C   UNL     1       1.798   7.971  20.163  0.00  0.00    +0.000 A 
ENDBRANCH   7  23
TORSDOF 5
ENDMDL
MODEL 8
REMARK VINA RESULT:      -5.9      2.835      4.567
REMARK  Name = 
REMARK  8 active torsions:
REMARK  status: ('A' for Active; 'I' for Inactive)
REMARK    1  A    between atoms: C_1  and  O_2
REMARK    2  A    between atoms: O_2  and  C_3
REMARK    3  A    between atoms: C_5  and  C_6
REMARK    4  A    between atoms: N_12  and  C_13
REMARK    5  A    between atoms: C_23  and  O_24
REMARK    6  A    between atoms: O_24  and  C_25
REMARK    7  A    between atoms: C_26  and  O_27
REMARK    8  A    between atoms: O_27  and  C_28
REMARK                            x       y       z     vdW  Elec       q    Type
REMARK                         _______ _______ _______ _____ _____    ______ ____
ROOT
ATOM      1  C   UNL     1       0.381  10.568  18.913  0.00  0.00    +0.000 C 
ATOM      2  S   UNL     1      -0.957  10.271  20.119  0.00  0.00    +0.000 S 
ATOM      3  C   UNL     1       0.044   9.298  21.267  0.00  0.00    +0.000 C 
ATOM      4  C   UNL     1       1.362   9.044  20.580  0.00  0.00    +0.000 C 
ATOM      5  C   UNL     1       1.658   7.605  20.197  0.00  0.00    +0.000 C 
ATOM      6  O   UNL     1       1.487   6.669  20.957  0.00  0.00    +0.000 OA
ATOM      7  N   UNL     1       2.258   7.630  18.948  0.00  0.00    +0.000 N 
ATOM      8  C   UNL     1       2.084   8.873  18.372  0.00  0.00    +0.000 C 
ATOM      9  O   UNL     1       2.291   9.206  17.213  0.00  0.00    +0.000 OA
ATOM     10  N   UNL     1       1.472   9.705  19.311  0.00  0.00    +0.000 N 
ENDROOT
BRANCH   1  13
ATOM     11  C   UNL     1       0.144  14.399  18.839  0.00  0.00    +0.000 A 
ATOM     12  C   UNL     1      -0.206  13.042  18.721  0.00  0.00    +0.000 A 
ATOM     13  C   UNL     1       0.751  12.031  18.796  0.00  0.00    +0.000 A 
ATOM     14  C   UNL     1       2.093  12.426  18.878  0.00  0.00    +0.000 A 
ATOM     15  C   UNL     1       2.479  13.778  18.887  0.00  0.00    +0.000 A 
ATOM     16  C   UNL     1       1.499  14.791  18.863  0.00  0.00    +0.000 A 
BRANCH  11  18
ATOM     17  C   UNL     1      -1.405  15.505  20.238  0.00  0.00    +0.000 C 
ATOM     18  O   UNL     1      -0.858  15.336  18.926  0.00  0.00    +0.000 OA
ENDBRANCH  11  18
BRANCH  15  19
ATOM     19  O   UNL     1       3.845  13.899  18.957  0.00  0.00    +0.000 OA
ATOM     20  C   UNL     1       4.555  14.488  17.878  0.00  0.00    +0.000 C 
ENDBRANCH  15  19
BRANCH  16  21
ATOM     21  O   UNL     1       1.965  16.076  18.869  0.00  0.00    +0.000 OA
ATOM     22  C   UNL     1       2.174  16.775  20.083  0.00  0.00    +0.000 C 
ENDBRANCH  16  21
ENDBRANCH   1  13
BRANCH   7  23
ATOM     23  C   UNL     1       2.850   6.510  18.311  0.00  0.00    +0.000 A 
ATOM     24  C   UNL     1       4.141   6.580  17.764  0.00  0.00    +0.000 A 
ATOM     25  C   UNL     1       4.688   5.501  17.062  0.00  0.00    +0.000 A 
ATOM     26  C   UNL     1       3.941   4.342  16.874  0.00  0.00    +0.000 A 
ATOM     27  C   UNL     1       2.665   4.248  17.422  0.00  0.00    +0.000 A 
ATOM     28  C   UNL     1       2.132   5.316  18.152  0.00  0.00    +0.000 A 
ENDBRANCH   7  23
TORSDOF 5
ENDMDL
MODEL 9
REMARK VINA RESULT:      -5.9      4.040      6.560
REMARK  Name = 
REMARK  8 active torsions:
REMARK  status: ('A' for Active; 'I' for Inactive)
REMARK    1  A    between atoms: C_1  and  O_2
REMARK    2  A    between atoms: O_2  and  C_3
REMARK    3  A    between atoms: C_5  and  C_6
REMARK    4  A    between atoms: N_12  and  C_13
REMARK    5  A    between atoms: C_23  and  O_24
REMARK    6  A    between atoms: O_24  and  C_25
REMARK    7  A    between atoms: C_26  and  O_27
REMARK    8  A    between atoms: O_27  and  C_28
REMARK                            x       y       z     vdW  Elec       q    Type
REMARK                         _______ _______ _______ _____ _____    ______ ____
ROOT
ATOM      1  C   UNL     1      -0.654  12.094  21.052  0.00  0.00    +0.000 C 
ATOM      2  S   UNL     1       0.290  13.650  20.919  0.00  0.00    +0.000 S 
ATOM      3  C   UNL     1       0.804  13.406  19.203  0.00  0.00    +0.000 C 
ATOM      4  C   UNL     1       0.400  12.003  18.828  0.00  0.00    +0.000 C 
ATOM      5  C   UNL     1       1.528  11.020  18.574  0.00  0.00    +0.000 C 
ATOM      6  O   UNL     1       2.497  11.287  17.886  0.00  0.00    +0.000 OA
ATOM      7  N   UNL     1       1.148   9.809  19.131  0.00  0.00    +0.000 N 
ATOM      8  C   UNL     1       0.071  10.001  19.973  0.00  0.00    +0.000 C 
ATOM      9  O   UNL     1      -0.404   9.219  20.786  0.00  0.00    +0.000 OA
ATOM     10  N   UNL     1      -0.334  11.333  19.863  0.00  0.00    +0.000 N 
ENDROOT
BRANCH   1  13
ATOM     11  C   UNL     1      -4.005  13.032  22.675  0.00  0.00    +0.000 A 
ATOM     12  C   UNL     1      -2.674  12.603  22.523  0.00  0.00    +0.000 A 
ATOM     13  C   UNL     1      -2.135  12.322  21.267  0.00  0.00    +0.000 A 
ATOM     14  C   UNL     1      -3.006  12.373  20.172  0.00  0.00    +0.000 A 
ATOM     15  C   UNL     1      -4.368  12.693  20.309  0.00  0.00    +0.000 A 
ATOM     16  C   UNL     1      -4.890  13.026  21.577  0.00  0.00    +0.000 A 
BRANCH  11  18
ATOM     17  C   UNL     1      -4.598  12.407  24.874  0.00  0.00    +0.000 C 
ATOM     18  O   UNL     1      -4.427  13.454  23.912  0.00  0.00    +0.000 OA
ENDBRANCH  11  18
BRANCH  15  19
ATOM     19  O   UNL     1      -5.007  12.660  19.094  0.00  0.00    +0.000 OA
ATOM     20  C   UNL     1      -4.515  11.819  18.063  0.00  0.00    +0.000 C 
ENDBRANCH  15  19
BRANCH  16  21
ATOM     21  O   UNL     1      -6.225  13.318  21.617  0.00  0.00    +0.000 OA
ATOM     22  C   UNL     1      -7.187  12.320  21.905  0.00  0.00    +0.000 C 
ENDBRANCH  16  21
ENDBRANCH   1  13
BRANCH   7  23
ATOM     23  C   UNL     1       1.842   8.584  18.959  0.00  0.00    +0.000 A 
ATOM     24  C   UNL     1       1.934   7.646  19.999  0.00  0.00    +0.000 A 
ATOM     25  C   UNL     1       2.690   6.478  19.854  0.00  0.00    +0.000 A 
ATOM     26  C   UNL     1       3.388   6.242  18.673  0.00  0.00    +0.000 A 
ATOM     27  C   UNL     1       3.297   7.154  17.626  0.00  0.00    +0.000 A 
ATOM     28  C   UNL     1       2.513   8.305  17.759  0.00  0.00    +0.000 A 
ENDBRANCH   7  23
TORSDOF 5
ENDMDL
