MODEL 1
REMARK VINA RESULT:      -7.5      0.000      0.000
REMARK  Name = 
REMARK  3 active torsions:
REMARK  status: ('A' for Active; 'I' for Inactive)
REMARK    1  A    between atoms: C_1  and  C_2
REMARK    2  A    between atoms: C_5  and  C_6
REMARK    3  A    between atoms: C_12  and  C_13
REMARK                            x       y       z     vdW  Elec       q    Type
REMARK                         _______ _______ _______ _____ _____    ______ ____
ROOT
ATOM      1  C   UNL     1       5.400   4.720  16.084  0.00  0.00    +0.000 A 
ATOM      2  O   UNL     1       6.426   5.531  16.540  0.00  0.00    +0.000 OA
ATOM      3  N   UNL     1       7.387   5.722  15.598  0.00  0.00    +0.000 NA
ATOM      4  C   UNL     1       6.996   5.053  14.508  0.00  0.00    +0.000 A 
ATOM      5  C   UNL     1       7.667   4.942  13.284  0.00  0.00    +0.000 A 
ATOM      6  C   UNL     1       6.993   4.174  12.326  0.00  0.00    +0.000 A 
ATOM      7  C   UNL     1       5.728   3.561  12.580  0.00  0.00    +0.000 A 
ATOM      8  C   UNL     1       5.014   3.635  13.819  0.00  0.00    +0.000 A 
ATOM      9  C   UNL     1       5.706   4.415  14.767  0.00  0.00    +0.000 A 
ENDROOT
BRANCH   1  14
ATOM     10  C   UNL     1       1.132   4.168  20.024  0.00  0.00    +0.000 C 
ATOM     11  C   UNL     1       2.266   4.269  19.042  0.00  0.00    +0.000 A 
ATOM     12  C   UNL     1       3.038   3.161  18.667  0.00  0.00    +0.000 A 
ATOM     13  C   UNL     1       4.097   3.278  17.733  0.00  0.00    +0.000 A 
ATOM     14  C   UNL     1       4.402   4.510  17.149  0.00  0.00    +0.000 A 
ATOM     15  C   UNL     1       3.616   5.616  17.557  0.00  0.00    +0.000 A 
ATOM     16  C   UNL     1       2.569   5.503  18.478  0.00  0.00    +0.000 A 
ENDBRANCH   1  14
BRANCH   7  17
ATOM     17  C   UNL     1       5.169   2.800  11.433  0.00  0.00    +0.000 C 
ATOM     18  O   UNL     1       4.004   2.908  11.080  0.00  0.00    +0.000 OA
ENDBRANCH   7  17
TORSDOF 2
ENDMDL
MODEL 2
REMARK VINA RESULT:      -7.4      0.331      1.137
REMARK  Name = 
REMARK  3 active torsions:
REMARK  status: ('A' for Active; 'I' for Inactive)
REMARK    1  A    between atoms: C_1  and  C_2
REMARK    2  A    between atoms: C_5  and  C_6
REMARK    3  A    between atoms: C_12  and  C_13
REMARK                            x       y       z     vdW  Elec       q    Type
REMARK                         _______ _______ _______ _____ _____    ______ ____
ROOT
ATOM      1  C   UNL     1       5.285   4.993  16.008  0.00  0.00    +0.000 A 
ATOM      2  O   UNL     1       6.331   5.772  16.473  0.00  0.00    +0.000 OA
ATOM      3  N   UNL     1       7.358   5.837  15.585  0.00  0.00    +0.000 NA
ATOM      4  C   UNL     1       6.991   5.117  14.520  0.00  0.00    +0.000 A 
ATOM      5  C   UNL     1       7.727   4.880  13.351  0.00  0.00    +0.000 A 
ATOM      6  C   UNL     1       7.065   4.087  12.406  0.00  0.00    +0.000 A 
ATOM      7  C   UNL     1       5.750   3.569  12.618  0.00  0.00    +0.000 A 
ATOM      8  C   UNL     1       4.968   3.774  13.800  0.00  0.00    +0.000 A 
ATOM      9  C   UNL     1       5.650   4.577  14.737  0.00  0.00    +0.000 A 
ENDROOT
BRANCH   1  14
ATOM     10  C   UNL     1       1.265   4.287  20.177  0.00  0.00    +0.000 C 
ATOM     11  C   UNL     1       2.274   4.523  19.089  0.00  0.00    +0.000 A 
ATOM     12  C   UNL     1       2.812   5.791  18.823  0.00  0.00    +0.000 A 
ATOM     13  C   UNL     1       3.769   5.990  17.797  0.00  0.00    +0.000 A 
ATOM     14  C   UNL     1       4.213   4.919  17.017  0.00  0.00    +0.000 A 
ATOM     15  C   UNL     1       3.642   3.653  17.296  0.00  0.00    +0.000 A 
ATOM     16  C   UNL     1       2.698   3.453  18.309  0.00  0.00    +0.000 A 
ENDBRANCH   1  14
BRANCH   7  17
ATOM     17  C   UNL     1       5.213   2.763  11.492  0.00  0.00    +0.000 C 
ATOM     18  O   UNL     1       4.068   2.885  11.085  0.00  0.00    +0.000 OA
ENDBRANCH   7  17
TORSDOF 2
ENDMDL
MODEL 3
REMARK VINA RESULT:      -7.3      3.666      5.774
REMARK  Name = 
REMARK  3 active torsions:
REMARK  status: ('A' for Active; 'I' for Inactive)
REMARK    1  A    between atoms: C_1  and  C_2
REMARK    2  A    between atoms: C_5  and  C_6
REMARK    3  A    between atoms: C_12  and  C_13
REMARK                            x       y       z     vdW  Elec       q    Type
REMARK                         _______ _______ _______ _____ _____    ______ ____
ROOT
ATOM      1  C   UNL     1       2.748   7.008  18.247  0.00  0.00    +0.000 A 
ATOM      2  O   UNL     1       3.846   7.470  17.542  0.00  0.00    +0.000 OA
ATOM      3  N   UNL     1       4.569   6.458  16.995  0.00  0.00    +0.000 NA
ATOM      4  C   UNL     1       3.945   5.321  17.320  0.00  0.00    +0.000 A 
ATOM      5  C   UNL     1       4.324   4.012  16.992  0.00  0.00    +0.000 A 
ATOM      6  C   UNL     1       3.454   3.025  17.473  0.00  0.00    +0.000 A 
ATOM      7  C   UNL     1       2.281   3.332  18.230  0.00  0.00    +0.000 A 
ATOM      8  C   UNL     1       1.865   4.650  18.599  0.00  0.00    +0.000 A 
ATOM      9  C   UNL     1       2.749   5.629  18.103  0.00  0.00    +0.000 A 
ENDROOT
BRANCH   1  14
ATOM     10  C   UNL     1      -0.467  11.442  20.259  0.00  0.00    +0.000 C 
ATOM     11  C   UNL     1       0.394  10.302  19.793  0.00  0.00    +0.000 A 
ATOM     12  C   UNL     1       0.843   9.295  20.660  0.00  0.00    +0.000 A 
ATOM     13  C   UNL     1       1.648   8.224  20.198  0.00  0.00    +0.000 A 
ATOM     14  C   UNL     1       2.016   8.135  18.854  0.00  0.00    +0.000 A 
ATOM     15  C   UNL     1       1.562   9.173  18.003  0.00  0.00    +0.000 A 
ATOM     16  C   UNL     1       0.767  10.231  18.456  0.00  0.00    +0.000 A 
ENDBRANCH   1  14
BRANCH   7  17
ATOM     17  C   UNL     1       1.481   2.148  18.636  0.00  0.00    +0.000 C 
ATOM     18  O   UNL     1       0.267   2.100  18.505  0.00  0.00    +0.000 OA
ENDBRANCH   7  17
TORSDOF 2
ENDMDL
MODEL 4
REMARK VINA RESULT:      -7.2      3.637      5.788
REMARK  Name = 
REMARK  3 active torsions:
REMARK  status: ('A' for Active; 'I' for Inactive)
REMARK    1  A    between atoms: C_1  and  C_2
REMARK    2  A    between atoms: C_5  and  C_6
REMARK    3  A    between atoms: C_12  and  C_13
REMARK                            x       y       z     vdW  Elec       q    Type
REMARK                         _______ _______ _______ _____ _____    ______ ____
ROOT
ATOM      1  C   UNL     1       2.820   7.025  18.154  0.00  0.00    +0.000 A 
ATOM      2  O   UNL     1       3.952   7.479  17.497  0.00  0.00    +0.000 OA
ATOM      3  N   UNL     1       4.700   6.460  16.997  0.00  0.00    +0.000 NA
ATOM      4  C   UNL     1       4.059   5.327  17.305  0.00  0.00    +0.000 A 
ATOM      5  C   UNL     1       4.452   4.014  17.011  0.00  0.00    +0.000 A 
ATOM      6  C   UNL     1       3.560   3.033  17.461  0.00  0.00    +0.000 A 
ATOM      7  C   UNL     1       2.352   3.349  18.158  0.00  0.00    +0.000 A 
ATOM      8  C   UNL     1       1.920   4.672  18.491  0.00  0.00    +0.000 A 
ATOM      9  C   UNL     1       2.828   5.645  18.026  0.00  0.00    +0.000 A 
ENDROOT
BRANCH   1  14
ATOM     10  C   UNL     1       0.101  11.475  20.770  0.00  0.00    +0.000 C 
ATOM     11  C   UNL     1       0.770  10.341  20.044  0.00  0.00    +0.000 A 
ATOM     12  C   UNL     1       1.149  10.430  18.698  0.00  0.00    +0.000 A 
ATOM     13  C   UNL     1       1.786   9.351  18.035  0.00  0.00    +0.000 A 
ATOM     14  C   UNL     1       2.061   8.160  18.711  0.00  0.00    +0.000 A 
ATOM     15  C   UNL     1       1.654   8.091  20.066  0.00  0.00    +0.000 A 
ATOM     16  C   UNL     1       1.026   9.155  20.723  0.00  0.00    +0.000 A 
ENDBRANCH   1  14
BRANCH   7  17
ATOM     17  C   UNL     1       1.532   2.171  18.539  0.00  0.00    +0.000 C 
ATOM     18  O   UNL     1       0.342   2.257  18.802  0.00  0.00    +0.000 OA
ENDBRANCH   7  17
TORSDOF 2
ENDMDL
MODEL 5
REMARK VINA RESULT:      -7.2      0.926      1.041
REMARK  Name = 
REMARK  3 active torsions:
REMARK  status: ('A' for Active; 'I' for Inactive)
REMARK    1  A    between atoms: C_1  and  C_2
REMARK    2  A    between atoms: C_5  and  C_6
REMARK    3  A    between atoms: C_12  and  C_13
REMARK                            x       y       z     vdW  Elec       q    Type
REMARK                         _______ _______ _______ _____ _____    ______ ____
ROOT
ATOM      1  C   UNL     1       5.286   4.588  16.373  0.00  0.00    +0.000 A 
ATOM      2  O   UNL     1       6.223   5.428  16.950  0.00  0.00    +0.000 OA
ATOM      3  N   UNL     1       7.236   5.732  16.097  0.00  0.00    +0.000 NA
ATOM      4  C   UNL     1       6.967   5.110  14.945  0.00  0.00    +0.000 A 
ATOM      5  C   UNL     1       7.732   5.115  13.770  0.00  0.00    +0.000 A 
ATOM      6  C   UNL     1       7.178   4.369  12.722  0.00  0.00    +0.000 A 
ATOM      7  C   UNL     1       5.939   3.668  12.844  0.00  0.00    +0.000 A 
ATOM      8  C   UNL     1       5.134   3.624  14.026  0.00  0.00    +0.000 A 
ATOM      9  C   UNL     1       5.705   4.383  15.068  0.00  0.00    +0.000 A 
ENDROOT
BRANCH   1  14
ATOM     10  C   UNL     1       1.250   3.668  20.485  0.00  0.00    +0.000 C 
ATOM     11  C   UNL     1       2.264   3.860  19.392  0.00  0.00    +0.000 A 
ATOM     12  C   UNL     1       1.933   3.763  18.033  0.00  0.00    +0.000 A 
ATOM     13  C   UNL     1       2.903   3.955  17.018  0.00  0.00    +0.000 A 
ATOM     14  C   UNL     1       4.228   4.255  17.345  0.00  0.00    +0.000 A 
ATOM     15  C   UNL     1       4.539   4.332  18.725  0.00  0.00    +0.000 A 
ATOM     16  C   UNL     1       3.583   4.143  19.728  0.00  0.00    +0.000 A 
ENDBRANCH   1  14
BRANCH   7  17
ATOM     17  C   UNL     1       5.513   2.947  11.616  0.00  0.00    +0.000 C 
ATOM     18  O   UNL     1       5.622   1.736  11.495  0.00  0.00    +0.000 OA
ENDBRANCH   7  17
TORSDOF 2
ENDMDL
MODEL 6
REMARK VINA RESULT:      -7.1      3.412      5.222
REMARK  Name = 
REMARK  3 active torsions:
REMARK  status: ('A' for Active; 'I' for Inactive)
REMARK    1  A    between atoms: C_1  and  C_2
REMARK    2  A    between atoms: C_5  and  C_6
REMARK    3  A    between atoms: C_12  and  C_13
REMARK                            x       y       z     vdW  Elec       q    Type
REMARK                         _______ _______ _______ _____ _____    ______ ____
ROOT
ATOM      1  C   UNL     1       2.690   6.316  18.687  0.00  0.00    +0.000 A 
ATOM      2  O   UNL     1       2.103   5.317  19.445  0.00  0.00    +0.000 OA
ATOM      3  N   UNL     1       2.557   4.082  19.107  0.00  0.00    +0.000 NA
ATOM      4  C   UNL     1       3.460   4.256  18.137  0.00  0.00    +0.000 A 
ATOM      5  C   UNL     1       4.191   3.271  17.460  0.00  0.00    +0.000 A 
ATOM      6  C   UNL     1       5.072   3.772  16.493  0.00  0.00    +0.000 A 
ATOM      7  C   UNL     1       5.211   5.169  16.226  0.00  0.00    +0.000 A 
ATOM      8  C   UNL     1       4.475   6.207  16.881  0.00  0.00    +0.000 A 
ATOM      9  C   UNL     1       3.598   5.684  17.853  0.00  0.00    +0.000 A 
ENDROOT
BRANCH   1  14
ATOM     10  C   UNL     1       0.237  11.504  19.744  0.00  0.00    +0.000 C 
ATOM     11  C   UNL     1       0.896  10.170  19.528  0.00  0.00    +0.000 A 
ATOM     12  C   UNL     1       1.047   9.229  20.556  0.00  0.00    +0.000 A 
ATOM     13  C   UNL     1       1.664   7.975  20.328  0.00  0.00    +0.000 A 
ATOM     14  C   UNL     1       2.140   7.633  19.060  0.00  0.00    +0.000 A 
ATOM     15  C   UNL     1       1.989   8.607  18.043  0.00  0.00    +0.000 A 
ATOM     16  C   UNL     1       1.379   9.847  18.265  0.00  0.00    +0.000 A 
ENDBRANCH   1  14
BRANCH   7  17
ATOM     17  C   UNL     1       6.207   5.501  15.175  0.00  0.00    +0.000 C 
ATOM     18  O   UNL     1       7.410   5.517  15.392  0.00  0.00    +0.000 OA
ENDBRANCH   7  17
TORSDOF 2
ENDMDL
MODEL 7
REMARK VINA RESULT:      -7.1      4.808      7.460
REMARK  Name = 
REMARK  3 active torsions:
REMARK  status: ('A' for Active; 'I' for Inactive)
REMARK    1  A    between atoms: C_1  and  C_2
REMARK    2  A    between atoms: C_5  and  C_6
REMARK    3  A    between atoms: C_12  and  C_13
REMARK                            x       y       z     vdW  Elec       q    Type
REMARK                         _______ _______ _______ _____ _____    ______ ____
ROOT
ATOM      1  C   UNL     1       1.782   7.815  19.910  0.00  0.00    +0.000 A 
ATOM      2  O   UNL     1       2.222   8.427  18.748  0.00  0.00    +0.000 OA
ATOM      3  N   UNL     1       2.920   7.575  17.952  0.00  0.00    +0.000 NA
ATOM      4  C   UNL     1       2.930   6.391  18.572  0.00  0.00    +0.000 A 
ATOM      5  C   UNL     1       3.540   5.204  18.143  0.00  0.00    +0.000 A 
ATOM      6  C   UNL     1       3.366   4.121  19.014  0.00  0.00    +0.000 A 
ATOM      7  C   UNL     1       2.627   4.222  20.233  0.00  0.00    +0.000 A 
ATOM      8  C   UNL     1       2.002   5.415  20.717  0.00  0.00    +0.000 A 
ATOM      9  C   UNL     1       2.184   6.492  19.825  0.00  0.00    +0.000 A 
ENDROOT
BRANCH   1  14
ATOM     10  C   UNL     1      -1.449  11.595  22.962  0.00  0.00    +0.000 C 
ATOM     11  C   UNL     1      -0.573  10.626  22.220  0.00  0.00    +0.000 A 
ATOM     12  C   UNL     1       0.198   9.655  22.875  0.00  0.00    +0.000 A 
ATOM     13  C   UNL     1       1.011   8.745  22.155  0.00  0.00    +0.000 A 
ATOM     14  C   UNL     1       1.064   8.785  20.759  0.00  0.00    +0.000 A 
ATOM     15  C   UNL     1       0.288   9.785  20.124  0.00  0.00    +0.000 A 
ATOM     16  C   UNL     1      -0.516  10.684  20.832  0.00  0.00    +0.000 A 
ENDBRANCH   1  14
BRANCH   7  17
ATOM     17  C   UNL     1       2.544   2.960  21.012  0.00  0.00    +0.000 C 
ATOM     18  O   UNL     1       2.138   2.925  22.164  0.00  0.00    +0.000 OA
ENDBRANCH   7  17
TORSDOF 2
ENDMDL
MODEL 8
REMARK VINA RESULT:      -7.1      4.937      8.043
REMARK  Name = 
REMARK  3 active torsions:
REMARK  status: ('A' for Active; 'I' for Inactive)
REMARK    1  A    between atoms: C_1  and  C_2
REMARK    2  A    between atoms: C_5  and  C_6
REMARK    3  A    between atoms: C_12  and  C_13
REMARK                            x       y       z     vdW  Elec       q    Type
REMARK                         _______ _______ _______ _____ _____    ______ ____
ROOT
ATOM      1  C   UNL     1       2.178   7.355  18.839  0.00  0.00    +0.000 A 
ATOM      2  O   UNL     1       2.530   7.941  17.635  0.00  0.00    +0.000 OA
ATOM      3  N   UNL     1       2.177   9.252  17.579  0.00  0.00    +0.000 NA
ATOM      4  C   UNL     1       1.605   9.546  18.751  0.00  0.00    +0.000 A 
ATOM      5  C   UNL     1       1.067  10.774  19.158  0.00  0.00    +0.000 A 
ATOM      6  C   UNL     1       0.542  10.770  20.456  0.00  0.00    +0.000 A 
ATOM      7  C   UNL     1       0.558   9.611  21.291  0.00  0.00    +0.000 A 
ATOM      8  C   UNL     1       1.082   8.334  20.912  0.00  0.00    +0.000 A 
ATOM      9  C   UNL     1       1.610   8.359  19.605  0.00  0.00    +0.000 A 
ENDROOT
BRANCH   1  14
ATOM     10  C   UNL     1       3.610   1.720  18.342  0.00  0.00    +0.000 C 
ATOM     11  C   UNL     1       3.252   3.167  18.532  0.00  0.00    +0.000 A 
ATOM     12  C   UNL     1       3.937   4.002  19.427  0.00  0.00    +0.000 A 
ATOM     13  C   UNL     1       3.588   5.366  19.583  0.00  0.00    +0.000 A 
ATOM     14  C   UNL     1       2.546   5.926  18.840  0.00  0.00    +0.000 A 
ATOM     15  C   UNL     1       1.861   5.058  17.955  0.00  0.00    +0.000 A 
ATOM     16  C   UNL     1       2.204   3.711  17.798  0.00  0.00    +0.000 A 
ENDBRANCH   1  14
BRANCH   7  17
ATOM     17  C   UNL     1      -0.033   9.812  22.640  0.00  0.00    +0.000 C 
ATOM     18  O   UNL     1       0.605   9.640  23.667  0.00  0.00    +0.000 OA
ENDBRANCH   7  17
TORSDOF 2
ENDMDL
MODEL 9
REMARK VINA RESULT:      -7.0      2.774      7.033
REMARK  Name = 
REMARK  3 active torsions:
REMARK  status: ('A' for Active; 'I' for Inactive)
REMARK    1  A    between atoms: C_1  and  C_2
REMARK    2  A    between atoms: C_5  and  C_6
REMARK    3  A    between atoms: C_12  and  C_13
REMARK                            x       y       z     vdW  Elec       q    Type
REMARK                         _______ _______ _______ _____ _____    ______ ____
ROOT
ATOM      1  C   UNL     1       4.243   4.122  17.924  0.00  0.00    +0.000 A 
ATOM      2  O   UNL     1       4.101   2.780  18.233  0.00  0.00    +0.000 OA
ATOM      3  N   UNL     1       3.240   2.578  19.266  0.00  0.00    +0.000 NA
ATOM      4  C   UNL     1       2.795   3.784  19.635  0.00  0.00    +0.000 A 
ATOM      5  C   UNL     1       1.898   4.085  20.668  0.00  0.00    +0.000 A 
ATOM      6  C   UNL     1       1.618   5.451  20.806  0.00  0.00    +0.000 A 
ATOM      7  C   UNL     1       2.198   6.446  19.960  0.00  0.00    +0.000 A 
ATOM      8  C   UNL     1       3.128   6.185  18.904  0.00  0.00    +0.000 A 
ATOM      9  C   UNL     1       3.393   4.806  18.779  0.00  0.00    +0.000 A 
ENDROOT
BRANCH   1  14
ATOM     10  C   UNL     1       7.719   5.061  13.332  0.00  0.00    +0.000 C 
ATOM     11  C   UNL     1       6.872   4.795  14.546  0.00  0.00    +0.000 A 
ATOM     12  C   UNL     1       7.353   4.964  15.851  0.00  0.00    +0.000 A 
ATOM     13  C   UNL     1       6.535   4.716  16.981  0.00  0.00    +0.000 A 
ATOM     14  C   UNL     1       5.212   4.296  16.826  0.00  0.00    +0.000 A 
ATOM     15  C   UNL     1       4.755   4.117  15.497  0.00  0.00    +0.000 A 
ATOM     16  C   UNL     1       5.561   4.363  14.380  0.00  0.00    +0.000 A 
ENDBRANCH   1  14
BRANCH   7  17
ATOM     17  C   UNL     1       1.764   7.837  20.255  0.00  0.00    +0.000 C 
ATOM     18  O   UNL     1       1.324   8.169  21.345  0.00  0.00    +0.000 OA
ENDBRANCH   7  17
TORSDOF 2
ENDMDL
