MODEL 1
REMARK VINA RESULT:      -9.0      0.000      0.000
REMARK  Name = 
REMARK  3 active torsions:
REMARK  status: ('A' for Active; 'I' for Inactive)
REMARK    1  A    between atoms: C_2  and  C_11
REMARK    2  A    between atoms: N_3  and  C_4
REMARK    3  A    between atoms: C_14  and  N_15
REMARK                            x       y       z     vdW  Elec       q    Type
REMARK                         _______ _______ _______ _____ _____    ______ ____
ROOT
ATOM      1  C   UNL     1       1.552   9.402  19.175  0.00  0.00    +0.000 A 
ATOM      2  C   UNL     1       1.560   8.445  20.190  0.00  0.00    +0.000 A 
ATOM      3  C   UNL     1       1.983   7.138  19.924  0.00  0.00    +0.000 A 
ATOM      4  C   UNL     1       2.422   6.757  18.645  0.00  0.00    +0.000 A 
ATOM      5  C   UNL     1       2.420   7.745  17.643  0.00  0.00    +0.000 A 
ATOM      6  C   UNL     1       1.990   9.053  17.899  0.00  0.00    +0.000 A 
ENDROOT
BRANCH   4   7
ATOM      7  N   UNL     1       2.874   5.428  18.383  0.00  0.00    +0.000 N 
ATOM      8  C   UNL     1       4.106   4.938  18.785  0.00  0.00    +0.000 C 
ATOM      9  O   UNL     1       4.981   5.485  19.447  0.00  0.00    +0.000 OA
ATOM     10  C   UNL     1       4.247   3.518  18.323  0.00  0.00    +0.000 C 
ATOM     11  C   UNL     1       4.285   2.450  19.436  0.00  0.00    +0.000 C 
ATOM     12  C   UNL     1       3.152   2.667  20.417  0.00  0.00    +0.000 C 
ATOM     13  C   UNL     1       2.009   2.387  19.773  0.00  0.00    +0.000 C 
ATOM     14  C   UNL     1       2.377   1.991  18.361  0.00  0.00    +0.000 C 
ATOM     15  C   UNL     1       3.688   1.256  18.675  0.00  0.00    +0.000 C 
ATOM     16  C   UNL     1       2.929   3.211  17.596  0.00  0.00    +0.000 C 
ATOM     17  C   UNL     1       2.121   4.469  17.726  0.00  0.00    +0.000 C 
ATOM     18  O   UNL     1       0.993   4.551  17.259  0.00  0.00    +0.000 OA
ENDBRANCH   4   7
BRANCH   1  20
ATOM     19  O   UNL     1       0.421  10.937  20.504  0.00  0.00    +0.000 OA
ATOM     20  C   UNL     1       1.110  10.780  19.503  0.00  0.00    +0.000 C 
ATOM     21  N   UNL     1       1.479  11.749  18.587  0.00  0.00    +0.000 N 
ATOM     22  H   UNL     1       1.876  11.430  17.712  0.00  0.00    +0.000 HD
BRANCH  21  23
ATOM     23  C   UNL     1       1.172  13.122  18.666  0.00  0.00    +0.000 A 
ATOM     24  C   UNL     1      -0.132  13.619  18.603  0.00  0.00    +0.000 A 
ATOM     25  C   UNL     1      -0.371  14.996  18.633  0.00  0.00    +0.000 A 
ATOM     26  C   UNL     1       0.699  15.880  18.733  0.00  0.00    +0.000 A 
ATOM     27 BR   UNL     1       0.378  17.742  18.727  0.00  0.00    +0.000 Br
ATOM     28  C   UNL     1       2.002  15.398  18.829  0.00  0.00    +0.000 A 
ATOM     29  C   UNL     1       2.237  14.020  18.808  0.00  0.00    +0.000 A 
ENDBRANCH  21  23
ENDBRANCH   1  20
TORSDOF 3
ENDMDL
MODEL 2
REMARK VINA RESULT:      -9.0      2.227      2.483
REMARK  Name = 
REMARK  3 active torsions:
REMARK  status: ('A' for Active; 'I' for Inactive)
REMARK    1  A    between atoms: C_2  and  C_11
REMARK    2  A    between atoms: N_3  and  C_4
REMARK    3  A    between atoms: C_14  and  N_15
REMARK                            x       y       z     vdW  Elec       q    Type
REMARK                         _______ _______ _______ _____ _____    ______ ____
ROOT
ATOM      1  C   UNL     1       1.293   9.290  19.594  0.00  0.00    +0.000 A 
ATOM      2  C   UNL     1       1.358   8.279  20.553  0.00  0.00    +0.000 A 
ATOM      3  C   UNL     1       1.854   7.015  20.213  0.00  0.00    +0.000 A 
ATOM      4  C   UNL     1       2.312   6.733  18.915  0.00  0.00    +0.000 A 
ATOM      5  C   UNL     1       2.251   7.775  17.971  0.00  0.00    +0.000 A 
ATOM      6  C   UNL     1       1.748   9.040  18.300  0.00  0.00    +0.000 A 
ENDROOT
BRANCH   4   7
ATOM      7  N   UNL     1       2.838   5.449  18.579  0.00  0.00    +0.000 N 
ATOM      8  C   UNL     1       4.073   4.985  19.004  0.00  0.00    +0.000 C 
ATOM      9  O   UNL     1       4.889   5.519  19.747  0.00  0.00    +0.000 OA
ATOM     10  C   UNL     1       4.303   3.612  18.446  0.00  0.00    +0.000 C 
ATOM     11  C   UNL     1       4.341   2.465  19.478  0.00  0.00    +0.000 C 
ATOM     12  C   UNL     1       3.155   2.557  20.415  0.00  0.00    +0.000 C 
ATOM     13  C   UNL     1       2.057   2.276  19.697  0.00  0.00    +0.000 C 
ATOM     14  C   UNL     1       2.508   2.006  18.280  0.00  0.00    +0.000 C 
ATOM     15  C   UNL     1       3.837   1.308  18.603  0.00  0.00    +0.000 C 
ATOM     16  C   UNL     1       3.036   3.303  17.635  0.00  0.00    +0.000 C 
ATOM     17  C   UNL     1       2.163   4.510  17.817  0.00  0.00    +0.000 C 
ATOM     18  O   UNL     1       1.055   4.577  17.302  0.00  0.00    +0.000 OA
ENDBRANCH   4   7
BRANCH   1  20
ATOM     19  O   UNL     1       1.428  11.608  19.690  0.00  0.00    +0.000 OA
ATOM     20  C   UNL     1       0.774  10.620  19.999  0.00  0.00    +0.000 C 
ATOM     21  N   UNL     1      -0.385  10.592  20.753  0.00  0.00    +0.000 N 
ATOM     22  H   UNL     1      -0.695   9.690  21.092  0.00  0.00    +0.000 HD
BRANCH  21  23
ATOM     23  C   UNL     1      -1.065  11.716  21.266  0.00  0.00    +0.000 A 
ATOM     24  C   UNL     1      -1.913  12.515  20.494  0.00  0.00    +0.000 A 
ATOM     25  C   UNL     1      -2.517  13.648  21.043  0.00  0.00    +0.000 A 
ATOM     26  C   UNL     1      -2.278  13.982  22.373  0.00  0.00    +0.000 A 
ATOM     27 BR   UNL     1      -3.061  15.540  23.101  0.00  0.00    +0.000 Br
ATOM     28  C   UNL     1      -1.461  13.178  23.164  0.00  0.00    +0.000 A 
ATOM     29  C   UNL     1      -0.865  12.039  22.613  0.00  0.00    +0.000 A 
ENDBRANCH  21  23
ENDBRANCH   1  20
TORSDOF 3
ENDMDL
MODEL 3
REMARK VINA RESULT:      -8.9      2.252      2.713
REMARK  Name = 
REMARK  3 active torsions:
REMARK  status: ('A' for Active; 'I' for Inactive)
REMARK    1  A    between atoms: C_2  and  C_11
REMARK    2  A    between atoms: N_3  and  C_4
REMARK    3  A    between atoms: C_14  and  N_15
REMARK                            x       y       z     vdW  Elec       q    Type
REMARK                         _______ _______ _______ _____ _____    ______ ____
ROOT
ATOM      1  C   UNL     1       1.306   9.292  19.630  0.00  0.00    +0.000 A 
ATOM      2  C   UNL     1       1.772   9.051  18.337  0.00  0.00    +0.000 A 
ATOM      3  C   UNL     1       2.292   7.798  17.997  0.00  0.00    +0.000 A 
ATOM      4  C   UNL     1       2.345   6.750  18.930  0.00  0.00    +0.000 A 
ATOM      5  C   UNL     1       1.853   7.013  20.222  0.00  0.00    +0.000 A 
ATOM      6  C   UNL     1       1.339   8.267  20.574  0.00  0.00    +0.000 A 
ENDROOT
BRANCH   4   7
ATOM      7  N   UNL     1       2.855   5.465  18.572  0.00  0.00    +0.000 N 
ATOM      8  C   UNL     1       4.087   4.981  18.984  0.00  0.00    +0.000 C 
ATOM      9  O   UNL     1       4.913   5.494  19.730  0.00  0.00    +0.000 OA
ATOM     10  C   UNL     1       4.298   3.614  18.404  0.00  0.00    +0.000 C 
ATOM     11  C   UNL     1       4.329   2.451  19.419  0.00  0.00    +0.000 C 
ATOM     12  C   UNL     1       3.148   2.542  20.363  0.00  0.00    +0.000 C 
ATOM     13  C   UNL     1       2.044   2.285  19.647  0.00  0.00    +0.000 C 
ATOM     14  C   UNL     1       2.484   2.030  18.223  0.00  0.00    +0.000 C 
ATOM     15  C   UNL     1       3.807   1.313  18.529  0.00  0.00    +0.000 C 
ATOM     16  C   UNL     1       3.024   3.331  17.595  0.00  0.00    +0.000 C 
ATOM     17  C   UNL     1       2.166   4.545  17.800  0.00  0.00    +0.000 C 
ATOM     18  O   UNL     1       1.056   4.633  17.292  0.00  0.00    +0.000 OA
ENDBRANCH   4   7
BRANCH   1  20
ATOM     19  O   UNL     1       1.300  11.609  19.456  0.00  0.00    +0.000 OA
ATOM     20  C   UNL     1       0.749  10.631  19.946  0.00  0.00    +0.000 C 
ATOM     21  N   UNL     1      -0.315  10.631  20.830  0.00  0.00    +0.000 N 
ATOM     22  H   UNL     1      -0.526   9.759  21.299  0.00  0.00    +0.000 HD
BRANCH  21  23
ATOM     23  C   UNL     1      -1.005  11.770  21.293  0.00  0.00    +0.000 A 
ATOM     24  C   UNL     1      -0.800  12.327  22.558  0.00  0.00    +0.000 A 
ATOM     25  C   UNL     1      -1.553  13.424  22.983  0.00  0.00    +0.000 A 
ATOM     26  C   UNL     1      -2.512  13.972  22.137  0.00  0.00    +0.000 A 
ATOM     27 BR   UNL     1      -3.561  15.427  22.730  0.00  0.00    +0.000 Br
ATOM     28  C   UNL     1      -2.706  13.448  20.861  0.00  0.00    +0.000 A 
ATOM     29  C   UNL     1      -1.944  12.355  20.436  0.00  0.00    +0.000 A 
ENDBRANCH  21  23
ENDBRANCH   1  20
TORSDOF 3
ENDMDL
MODEL 4
REMARK VINA RESULT:      -8.8      0.141      1.293
REMARK  Name = 
REMARK  3 active torsions:
REMARK  status: ('A' for Active; 'I' for Inactive)
REMARK    1  A    between atoms: C_2  and  C_11
REMARK    2  A    between atoms: N_3  and  C_4
REMARK    3  A    between atoms: C_14  and  N_15
REMARK                            x       y       z     vdW  Elec       q    Type
REMARK                         _______ _______ _______ _____ _____    ______ ____
ROOT
ATOM      1  C   UNL     1       1.536   9.390  19.247  0.00  0.00    +0.000 A 
ATOM      2  C   UNL     1       2.014   9.056  17.979  0.00  0.00    +0.000 A 
ATOM      3  C   UNL     1       2.475   7.761  17.719  0.00  0.00    +0.000 A 
ATOM      4  C   UNL     1       2.455   6.764  18.708  0.00  0.00    +0.000 A 
ATOM      5  C   UNL     1       1.953   7.122  19.972  0.00  0.00    +0.000 A 
ATOM      6  C   UNL     1       1.498   8.418  20.245  0.00  0.00    +0.000 A 
ENDROOT
BRANCH   4   7
ATOM      7  N   UNL     1       2.905   5.437  18.430  0.00  0.00    +0.000 N 
ATOM      8  C   UNL     1       4.137   4.940  18.826  0.00  0.00    +0.000 C 
ATOM      9  O   UNL     1       5.012   5.478  19.495  0.00  0.00    +0.000 OA
ATOM     10  C   UNL     1       4.276   3.526  18.348  0.00  0.00    +0.000 C 
ATOM     11  C   UNL     1       4.312   2.445  19.448  0.00  0.00    +0.000 C 
ATOM     12  C   UNL     1       3.179   2.652  20.431  0.00  0.00    +0.000 C 
ATOM     13  C   UNL     1       2.036   2.381  19.784  0.00  0.00    +0.000 C 
ATOM     14  C   UNL     1       2.403   2.002  18.368  0.00  0.00    +0.000 C 
ATOM     15  C   UNL     1       3.713   1.261  18.673  0.00  0.00    +0.000 C 
ATOM     16  C   UNL     1       2.957   3.230  17.617  0.00  0.00    +0.000 C 
ATOM     17  C   UNL     1       2.151   4.487  17.762  0.00  0.00    +0.000 C 
ATOM     18  O   UNL     1       1.023   4.577  17.296  0.00  0.00    +0.000 OA
ENDBRANCH   4   7
BRANCH   1  20
ATOM     19  O   UNL     1       0.131  10.926  20.279  0.00  0.00    +0.000 OA
ATOM     20  C   UNL     1       1.044  10.771  19.478  0.00  0.00    +0.000 C 
ATOM     21  N   UNL     1       1.640  11.745  18.698  0.00  0.00    +0.000 N 
ATOM     22  H   UNL     1       2.237  11.432  17.943  0.00  0.00    +0.000 HD
BRANCH  21  23
ATOM     23  C   UNL     1       1.340  13.123  18.722  0.00  0.00    +0.000 A 
ATOM     24  C   UNL     1       2.309  14.113  18.901  0.00  0.00    +0.000 A 
ATOM     25  C   UNL     1       1.944  15.460  18.971  0.00  0.00    +0.000 A 
ATOM     26  C   UNL     1       0.605  15.820  18.855  0.00  0.00    +0.000 A 
ATOM     27 BR   UNL     1       0.109  17.638  18.995  0.00  0.00    +0.000 Br
ATOM     28  C   UNL     1      -0.368  14.846  18.644  0.00  0.00    +0.000 A 
ATOM     29  C   UNL     1       0.001  13.500  18.567  0.00  0.00    +0.000 A 
ENDBRANCH  21  23
ENDBRANCH   1  20
TORSDOF 3
ENDMDL
MODEL 5
REMARK VINA RESULT:      -8.7      1.206      1.627
REMARK  Name = 
REMARK  3 active torsions:
REMARK  status: ('A' for Active; 'I' for Inactive)
REMARK    1  A    between atoms: C_2  and  C_11
REMARK    2  A    between atoms: N_3  and  C_4
REMARK    3  A    between atoms: C_14  and  N_15
REMARK                            x       y       z     vdW  Elec       q    Type
REMARK                         _______ _______ _______ _____ _____    ______ ____
ROOT
ATOM      1  C   UNL     1       1.361   9.276  19.822  0.00  0.00    +0.000 A 
ATOM      2  C   UNL     1       1.412   8.213  20.725  0.00  0.00    +0.000 A 
ATOM      3  C   UNL     1       1.877   6.960  20.313  0.00  0.00    +0.000 A 
ATOM      4  C   UNL     1       2.318   6.739  18.998  0.00  0.00    +0.000 A 
ATOM      5  C   UNL     1       2.273   7.831  18.112  0.00  0.00    +0.000 A 
ATOM      6  C   UNL     1       1.800   9.087  18.513  0.00  0.00    +0.000 A 
ENDROOT
BRANCH   4   7
ATOM      7  N   UNL     1       2.814   5.464  18.588  0.00  0.00    +0.000 N 
ATOM      8  C   UNL     1       4.051   4.961  18.958  0.00  0.00    +0.000 C 
ATOM      9  O   UNL     1       4.895   5.446  19.704  0.00  0.00    +0.000 OA
ATOM     10  C   UNL     1       4.243   3.612  18.331  0.00  0.00    +0.000 C 
ATOM     11  C   UNL     1       4.288   2.417  19.307  0.00  0.00    +0.000 C 
ATOM     12  C   UNL     1       3.127   2.484  20.277  0.00  0.00    +0.000 C 
ATOM     13  C   UNL     1       2.008   2.255  19.576  0.00  0.00    +0.000 C 
ATOM     14  C   UNL     1       2.417   2.044  18.136  0.00  0.00    +0.000 C 
ATOM     15  C   UNL     1       3.742   1.311  18.391  0.00  0.00    +0.000 C 
ATOM     16  C   UNL     1       2.951   3.362  17.539  0.00  0.00    +0.000 C 
ATOM     17  C   UNL     1       2.104   4.573  17.800  0.00  0.00    +0.000 C 
ATOM     18  O   UNL     1       0.984   4.682  17.318  0.00  0.00    +0.000 OA
ENDBRANCH   4   7
BRANCH   1  20
ATOM     19  O   UNL     1       1.095  10.894  21.469  0.00  0.00    +0.000 OA
ATOM     20  C   UNL     1       0.874  10.593  20.303  0.00  0.00    +0.000 C 
ATOM     21  N   UNL     1       0.152  11.325  19.378  0.00  0.00    +0.000 N 
ATOM     22  H   UNL     1      -0.113  10.855  18.521  0.00  0.00    +0.000 HD
BRANCH  21  23
ATOM     23  C   UNL     1      -0.424  12.594  19.594  0.00  0.00    +0.000 A 
ATOM     24  C   UNL     1       0.141  13.781  19.120  0.00  0.00    +0.000 A 
ATOM     25  C   UNL     1      -0.447  15.014  19.413  0.00  0.00    +0.000 A 
ATOM     26  C   UNL     1      -1.608  15.061  20.178  0.00  0.00    +0.000 A 
ATOM     27 BR   UNL     1      -2.376  16.733  20.610  0.00  0.00    +0.000 Br
ATOM     28  C   UNL     1      -2.200  13.885  20.630  0.00  0.00    +0.000 A 
ATOM     29  C   UNL     1      -1.614  12.652  20.328  0.00  0.00    +0.000 A 
ENDBRANCH  21  23
ENDBRANCH   1  20
TORSDOF 3
ENDMDL
MODEL 6
REMARK VINA RESULT:      -8.6      1.975      2.075
REMARK  Name = 
REMARK  3 active torsions:
REMARK  status: ('A' for Active; 'I' for Inactive)
REMARK    1  A    between atoms: C_2  and  C_11
REMARK    2  A    between atoms: N_3  and  C_4
REMARK    3  A    between atoms: C_14  and  N_15
REMARK                            x       y       z     vdW  Elec       q    Type
REMARK                         _______ _______ _______ _____ _____    ______ ____
ROOT
ATOM      1  C   UNL     1       1.318   9.298  19.291  0.00  0.00    +0.000 A 
ATOM      2  C   UNL     1       1.375   8.327  20.291  0.00  0.00    +0.000 A 
ATOM      3  C   UNL     1       1.867   7.049  20.007  0.00  0.00    +0.000 A 
ATOM      4  C   UNL     1       2.329   6.711  18.724  0.00  0.00    +0.000 A 
ATOM      5  C   UNL     1       2.277   7.712  17.737  0.00  0.00    +0.000 A 
ATOM      6  C   UNL     1       1.777   8.992  18.010  0.00  0.00    +0.000 A 
ENDROOT
BRANCH   4   7
ATOM      7  N   UNL     1       2.853   5.412  18.444  0.00  0.00    +0.000 N 
ATOM      8  C   UNL     1       4.097   4.973  18.868  0.00  0.00    +0.000 C 
ATOM      9  O   UNL     1       4.926   5.545  19.566  0.00  0.00    +0.000 OA
ATOM     10  C   UNL     1       4.319   3.573  18.377  0.00  0.00    +0.000 C 
ATOM     11  C   UNL     1       4.381   2.481  19.466  0.00  0.00    +0.000 C 
ATOM     12  C   UNL     1       3.213   2.620  20.421  0.00  0.00    +0.000 C 
ATOM     13  C   UNL     1       2.103   2.300  19.740  0.00  0.00    +0.000 C 
ATOM     14  C   UNL     1       2.525   1.957  18.330  0.00  0.00    +0.000 C 
ATOM     15  C   UNL     1       3.862   1.279  18.662  0.00  0.00    +0.000 C 
ATOM     16  C   UNL     1       3.037   3.220  17.608  0.00  0.00    +0.000 C 
ATOM     17  C   UNL     1       2.165   4.434  17.745  0.00  0.00    +0.000 C 
ATOM     18  O   UNL     1       1.046   4.473  17.250  0.00  0.00    +0.000 OA
ENDBRANCH   4   7
BRANCH   1  20
ATOM     19  O   UNL     1       0.504  11.398  18.718  0.00  0.00    +0.000 OA
ATOM     20  C   UNL     1       0.802  10.645  19.637  0.00  0.00    +0.000 C 
ATOM     21  N   UNL     1       0.774  10.933  20.990  0.00  0.00    +0.000 N 
ATOM     22  H   UNL     1       1.238  10.282  21.611  0.00  0.00    +0.000 HD
BRANCH  21  23
ATOM     23  C   UNL     1       0.340  12.143  21.569  0.00  0.00    +0.000 A 
ATOM     24  C   UNL     1      -0.754  12.227  22.435  0.00  0.00    +0.000 A 
ATOM     25  C   UNL     1      -1.171  13.463  22.935  0.00  0.00    +0.000 A 
ATOM     26  C   UNL     1      -0.488  14.620  22.574  0.00  0.00    +0.000 A 
ATOM     27 BR   UNL     1      -1.081  16.296  23.216  0.00  0.00    +0.000 Br
ATOM     28  C   UNL     1       0.624  14.548  21.738  0.00  0.00    +0.000 A 
ATOM     29  C   UNL     1       1.044  13.309  21.246  0.00  0.00    +0.000 A 
ENDBRANCH  21  23
ENDBRANCH   1  20
TORSDOF 3
ENDMDL
MODEL 7
REMARK VINA RESULT:      -8.3      1.167      2.077
REMARK  Name = 
REMARK  3 active torsions:
REMARK  status: ('A' for Active; 'I' for Inactive)
REMARK    1  A    between atoms: C_2  and  C_11
REMARK    2  A    between atoms: N_3  and  C_4
REMARK    3  A    between atoms: C_14  and  N_15
REMARK                            x       y       z     vdW  Elec       q    Type
REMARK                         _______ _______ _______ _____ _____    ______ ____
ROOT
ATOM      1  C   UNL     1       1.143   9.861  19.060  0.00  0.00    +0.000 A 
ATOM      2  C   UNL     1       1.653   9.184  17.952  0.00  0.00    +0.000 A 
ATOM      3  C   UNL     1       2.184   7.897  18.094  0.00  0.00    +0.000 A 
ATOM      4  C   UNL     1       2.205   7.248  19.339  0.00  0.00    +0.000 A 
ATOM      5  C   UNL     1       1.670   7.944  20.437  0.00  0.00    +0.000 A 
ATOM      6  C   UNL     1       1.145   9.236  20.307  0.00  0.00    +0.000 A 
ENDROOT
BRANCH   4   7
ATOM      7  N   UNL     1       2.728   5.925  19.474  0.00  0.00    +0.000 N 
ATOM      8  C   UNL     1       2.070   4.899  20.133  0.00  0.00    +0.000 C 
ATOM      9  O   UNL     1       0.959   4.896  20.653  0.00  0.00    +0.000 OA
ATOM     10  C   UNL     1       2.919   3.663  20.095  0.00  0.00    +0.000 C 
ATOM     11  C   UNL     1       2.362   2.491  19.258  0.00  0.00    +0.000 C 
ATOM     12  C   UNL     1       1.923   2.978  17.893  0.00  0.00    +0.000 C 
ATOM     13  C   UNL     1       3.029   3.327  17.220  0.00  0.00    +0.000 C 
ATOM     14  C   UNL     1       4.206   3.083  18.136  0.00  0.00    +0.000 C 
ATOM     15  C   UNL     1       3.679   1.822  18.837  0.00  0.00    +0.000 C 
ATOM     16  C   UNL     1       4.175   4.077  19.314  0.00  0.00    +0.000 C 
ATOM     17  C   UNL     1       3.935   5.509  18.938  0.00  0.00    +0.000 C 
ATOM     18  O   UNL     1       4.754   6.142  18.284  0.00  0.00    +0.000 OA
ENDBRANCH   4   7
BRANCH   1  20
ATOM     19  O   UNL     1      -0.525  11.308  18.337  0.00  0.00    +0.000 OA
ATOM     20  C   UNL     1       0.577  11.218  18.865  0.00  0.00    +0.000 C 
ATOM     21  N   UNL     1       1.402  12.260  19.250  0.00  0.00    +0.000 N 
ATOM     22  H   UNL     1       2.359  12.029  19.484  0.00  0.00    +0.000 HD
BRANCH  21  23
ATOM     23  C   UNL     1       1.098  13.633  19.155  0.00  0.00    +0.000 A 
ATOM     24  C   UNL     1      -0.136  14.171  19.526  0.00  0.00    +0.000 A 
ATOM     25  C   UNL     1      -0.398  15.534  19.358  0.00  0.00    +0.000 A 
ATOM     26  C   UNL     1       0.582  16.364  18.823  0.00  0.00    +0.000 A 
ATOM     27 BR   UNL     1       0.212  18.197  18.555  0.00  0.00    +0.000 Br
ATOM     28  C   UNL     1       1.830  15.848  18.479  0.00  0.00    +0.000 A 
ATOM     29  C   UNL     1       2.091  14.486  18.657  0.00  0.00    +0.000 A 
ENDBRANCH  21  23
ENDBRANCH   1  20
TORSDOF 3
ENDMDL
MODEL 8
REMARK VINA RESULT:      -8.1      1.342      2.078
REMARK  Name = 
REMARK  3 active torsions:
REMARK  status: ('A' for Active; 'I' for Inactive)
REMARK    1  A    between atoms: C_2  and  C_11
REMARK    2  A    between atoms: N_3  and  C_4
REMARK    3  A    between atoms: C_14  and  N_15
REMARK                            x       y       z     vdW  Elec       q    Type
REMARK                         _______ _______ _______ _____ _____    ______ ____
ROOT
ATOM      1  C   UNL     1       1.185   9.835  19.231  0.00  0.00    +0.000 A 
ATOM      2  C   UNL     1       1.186   9.162  20.454  0.00  0.00    +0.000 A 
ATOM      3  C   UNL     1       1.674   7.854  20.538  0.00  0.00    +0.000 A 
ATOM      4  C   UNL     1       2.187   7.190  19.412  0.00  0.00    +0.000 A 
ATOM      5  C   UNL     1       2.191   7.896  18.195  0.00  0.00    +0.000 A 
ATOM      6  C   UNL     1       1.696   9.202  18.099  0.00  0.00    +0.000 A 
ENDROOT
BRANCH   4   7
ATOM      7  N   UNL     1       2.705   5.862  19.508  0.00  0.00    +0.000 N 
ATOM      8  C   UNL     1       2.039   4.816  20.126  0.00  0.00    +0.000 C 
ATOM      9  O   UNL     1       0.924   4.798  20.635  0.00  0.00    +0.000 OA
ATOM     10  C   UNL     1       2.886   3.580  20.053  0.00  0.00    +0.000 C 
ATOM     11  C   UNL     1       2.335   2.439  19.173  0.00  0.00    +0.000 C 
ATOM     12  C   UNL     1       1.909   2.972  17.821  0.00  0.00    +0.000 C 
ATOM     13  C   UNL     1       3.022   3.341  17.170  0.00  0.00    +0.000 C 
ATOM     14  C   UNL     1       4.191   3.063  18.088  0.00  0.00    +0.000 C 
ATOM     15  C   UNL     1       3.655   1.781  18.741  0.00  0.00    +0.000 C 
ATOM     16  C   UNL     1       4.151   4.018  19.299  0.00  0.00    +0.000 C 
ATOM     17  C   UNL     1       3.916   5.462  18.969  0.00  0.00    +0.000 C 
ATOM     18  O   UNL     1       4.744   6.115  18.345  0.00  0.00    +0.000 OA
ENDBRANCH   4   7
BRANCH   1  20
ATOM     19  O   UNL     1      -0.443  11.411  18.715  0.00  0.00    +0.000 OA
ATOM     20  C   UNL     1       0.672  11.227  19.187  0.00  0.00    +0.000 C 
ATOM     21  N   UNL     1       1.555  12.193  19.636  0.00  0.00    +0.000 N 
ATOM     22  H   UNL     1       2.509  11.902  19.809  0.00  0.00    +0.000 HD
BRANCH  21  23
ATOM     23  C   UNL     1       1.309  13.580  19.683  0.00  0.00    +0.000 A 
ATOM     24  C   UNL     1       1.672  14.457  18.658  0.00  0.00    +0.000 A 
ATOM     25  C   UNL     1       1.451  15.830  18.785  0.00  0.00    +0.000 A 
ATOM     26  C   UNL     1       0.858  16.330  19.940  0.00  0.00    +0.000 A 
ATOM     27 BR   UNL     1       0.601  18.192  20.129  0.00  0.00    +0.000 Br
ATOM     28  C   UNL     1       0.461  15.465  20.957  0.00  0.00    +0.000 A 
ATOM     29  C   UNL     1       0.676  14.090  20.823  0.00  0.00    +0.000 A 
ENDBRANCH  21  23
ENDBRANCH   1  20
TORSDOF 3
ENDMDL
MODEL 9
REMARK VINA RESULT:      -8.0      2.363      3.165
REMARK  Name = 
REMARK  3 active torsions:
REMARK  status: ('A' for Active; 'I' for Inactive)
REMARK    1  A    between atoms: C_2  and  C_11
REMARK    2  A    between atoms: N_3  and  C_4
REMARK    3  A    between atoms: C_14  and  N_15
REMARK                            x       y       z     vdW  Elec       q    Type
REMARK                         _______ _______ _______ _____ _____    ______ ____
ROOT
ATOM      1  C   UNL     1       1.078   9.383  20.201  0.00  0.00    +0.000 A 
ATOM      2  C   UNL     1       1.625   8.938  18.997  0.00  0.00    +0.000 A 
ATOM      3  C   UNL     1       2.128   7.637  18.889  0.00  0.00    +0.000 A 
ATOM      4  C   UNL     1       2.085   6.743  19.971  0.00  0.00    +0.000 A 
ATOM      5  C   UNL     1       1.514   7.210  21.169  0.00  0.00    +0.000 A 
ATOM      6  C   UNL     1       1.016   8.514  21.289  0.00  0.00    +0.000 A 
ENDROOT
BRANCH   4   7
ATOM      7  N   UNL     1       2.579   5.409  19.849  0.00  0.00    +0.000 N 
ATOM      8  C   UNL     1       1.809   4.277  20.065  0.00  0.00    +0.000 C 
ATOM      9  O   UNL     1       0.616   4.190  20.334  0.00  0.00    +0.000 OA
ATOM     10  C   UNL     1       2.658   3.057  19.867  0.00  0.00    +0.000 C 
ATOM     11  C   UNL     1       2.294   2.175  18.654  0.00  0.00    +0.000 C 
ATOM     12  C   UNL     1       2.139   3.024  17.410  0.00  0.00    +0.000 C 
ATOM     13  C   UNL     1       3.356   3.485  17.088  0.00  0.00    +0.000 C 
ATOM     14  C   UNL     1       4.324   2.954  18.121  0.00  0.00    +0.000 C 
ATOM     15  C   UNL     1       3.675   1.579  18.340  0.00  0.00    +0.000 C 
ATOM     16  C   UNL     1       4.044   3.603  19.492  0.00  0.00    +0.000 C 
ATOM     17  C   UNL     1       3.874   5.093  19.472  0.00  0.00    +0.000 C 
ATOM     18  O   UNL     1       4.805   5.837  19.189  0.00  0.00    +0.000 OA
ENDBRANCH   4   7
BRANCH   1  20
ATOM     19  O   UNL     1       1.129  11.638  19.642  0.00  0.00    +0.000 OA
ATOM     20  C   UNL     1       0.543  10.765  20.270  0.00  0.00    +0.000 C 
ATOM     21  N   UNL     1      -0.547  10.931  21.106  0.00  0.00    +0.000 N 
ATOM     22  H   UNL     1      -0.791  10.155  21.707  0.00  0.00    +0.000 HD
BRANCH  21  23
ATOM     23  C   UNL     1      -1.225  12.143  21.349  0.00  0.00    +0.000 A 
ATOM     24  C   UNL     1      -2.217  12.647  20.504  0.00  0.00    +0.000 A 
ATOM     25  C   UNL     1      -2.817  13.882  20.768  0.00  0.00    +0.000 A 
ATOM     26  C   UNL     1      -2.427  14.613  21.886  0.00  0.00    +0.000 A 
ATOM     27 BR   UNL     1      -3.207  16.302  22.217  0.00  0.00    +0.000 Br
ATOM     28  C   UNL     1      -1.463  14.108  22.756  0.00  0.00    +0.000 A 
ATOM     29  C   UNL     1      -0.872  12.869  22.493  0.00  0.00    +0.000 A 
ENDBRANCH  21  23
ENDBRANCH   1  20
TORSDOF 3
ENDMDL
