MODEL 1
REMARK VINA RESULT:      -8.3      0.000      0.000
REMARK  Name = 
REMARK  5 active torsions:
REMARK  status: ('A' for Active; 'I' for Inactive)
REMARK    1  A    between atoms: C_1  and  C_2
REMARK    2  A    between atoms: C_4  and  C_5
REMARK    3  A    between atoms: N_7  and  C_8
REMARK    4  A    between atoms: C_8  and  C_9
REMARK    5  A    between atoms: C_14  and  C_15
REMARK                            x       y       z     vdW  Elec       q    Type
REMARK                         _______ _______ _______ _____ _____    ______ ____
ROOT
ATOM      1  C   UNL     1       6.919   4.534  16.814  0.00  0.00    +0.000 C 
ATOM      2  C   UNL     1       5.433   4.634  17.246  0.00  0.00    +0.000 C 
ATOM      3  N   UNL     1       5.150   4.812  18.680  0.00  0.00    +0.000 NA
ATOM      4  C   UNL     1       6.142   5.641  19.371  0.00  0.00    +0.000 C 
ATOM      5  C   UNL     1       7.580   5.611  18.828  0.00  0.00    +0.000 C 
ATOM      6  O   UNL     1       7.671   5.613  17.405  0.00  0.00    +0.000 OA
ENDROOT
BRANCH   1  10
ATOM      7  C   UNL     1       6.441   3.653  11.914  0.00  0.00    +0.000 C 
ATOM      8  C   UNL     1       6.757   4.135  13.271  0.00  0.00    +0.000 A 
ATOM      9  N   UNL     1       6.364   3.713  14.455  0.00  0.00    +0.000 NA
ATOM     10  C   UNL     1       7.020   4.582  15.305  0.00  0.00    +0.000 A 
ATOM     11  N   UNL     1       7.769   5.504  14.677  0.00  0.00    +0.000 NA
ATOM     12  O   UNL     1       7.594   5.215  13.333  0.00  0.00    +0.000 OA
ENDBRANCH   1  10
BRANCH   3  13
ATOM     13  C   UNL     1       4.684   3.655  19.436  0.00  0.00    +0.000 C 
BRANCH  13  14
ATOM     14  C   UNL     1       3.168   3.568  19.493  0.00  0.00    +0.000 A 
ATOM     15  C   UNL     1       2.493   4.454  20.356  0.00  0.00    +0.000 A 
ATOM     16  C   UNL     1       1.130   4.321  20.602  0.00  0.00    +0.000 A 
ATOM     17  C   UNL     1       0.409   3.315  19.971  0.00  0.00    +0.000 A 
ATOM     18  C   UNL     1       1.046   2.462  19.070  0.00  0.00    +0.000 A 
ATOM     19  C   UNL     1       2.424   2.572  18.816  0.00  0.00    +0.000 A 
ATOM     20  C   UNL     1       3.048   1.635  17.817  0.00  0.00    +0.000 C 
ENDBRANCH  13  14
ENDBRANCH   3  13
TORSDOF 3
ENDMDL
MODEL 2
REMARK VINA RESULT:      -8.2      1.329      2.185
REMARK  Name = 
REMARK  5 active torsions:
REMARK  status: ('A' for Active; 'I' for Inactive)
REMARK    1  A    between atoms: C_1  and  C_2
REMARK    2  A    between atoms: C_4  and  C_5
REMARK    3  A    between atoms: N_7  and  C_8
REMARK    4  A    between atoms: C_8  and  C_9
REMARK    5  A    between atoms: C_14  and  C_15
REMARK                            x       y       z     vdW  Elec       q    Type
REMARK                         _______ _______ _______ _____ _____    ______ ____
ROOT
ATOM      1  C   UNL     1       5.442   4.724  16.553  0.00  0.00    +0.000 C 
ATOM      2  C   UNL     1       4.729   6.081  16.789  0.00  0.00    +0.000 C 
ATOM      3  N   UNL     1       4.050   6.279  18.080  0.00  0.00    +0.000 NA
ATOM      4  C   UNL     1       4.739   5.641  19.206  0.00  0.00    +0.000 C 
ATOM      5  C   UNL     1       5.543   4.366  18.903  0.00  0.00    +0.000 C 
ATOM      6  O   UNL     1       6.282   4.414  17.684  0.00  0.00    +0.000 OA
ENDROOT
BRANCH   1  10
ATOM      7  C   UNL     1       7.230   4.102  11.924  0.00  0.00    +0.000 C 
ATOM      8  C   UNL     1       6.935   4.466  13.323  0.00  0.00    +0.000 A 
ATOM      9  N   UNL     1       5.951   4.111  14.122  0.00  0.00    +0.000 NA
ATOM     10  C   UNL     1       6.264   4.789  15.284  0.00  0.00    +0.000 A 
ATOM     11  N   UNL     1       7.377   5.537  15.202  0.00  0.00    +0.000 NA
ATOM     12  O   UNL     1       7.821   5.330  13.906  0.00  0.00    +0.000 OA
ENDBRANCH   1  10
BRANCH   3  13
ATOM     13  C   UNL     1       2.596   6.175  18.114  0.00  0.00    +0.000 C 
BRANCH  13  14
ATOM     14  C   UNL     1       2.118   4.853  18.693  0.00  0.00    +0.000 A 
ATOM     15  C   UNL     1       2.133   3.725  17.848  0.00  0.00    +0.000 A 
ATOM     16  C   UNL     1       1.549   2.525  18.240  0.00  0.00    +0.000 A 
ATOM     17  C   UNL     1       0.960   2.420  19.494  0.00  0.00    +0.000 A 
ATOM     18  C   UNL     1       0.984   3.506  20.368  0.00  0.00    +0.000 A 
ATOM     19  C   UNL     1       1.559   4.731  19.987  0.00  0.00    +0.000 A 
ATOM     20  C   UNL     1       1.572   5.860  20.983  0.00  0.00    +0.000 C 
ENDBRANCH  13  14
ENDBRANCH   3  13
TORSDOF 3
ENDMDL
MODEL 3
REMARK VINA RESULT:      -8.0      2.361      4.194
REMARK  Name = 
REMARK  5 active torsions:
REMARK  status: ('A' for Active; 'I' for Inactive)
REMARK    1  A    between atoms: C_1  and  C_2
REMARK    2  A    between atoms: C_4  and  C_5
REMARK    3  A    between atoms: N_7  and  C_8
REMARK    4  A    between atoms: C_8  and  C_9
REMARK    5  A    between atoms: C_14  and  C_15
REMARK                            x       y       z     vdW  Elec       q    Type
REMARK                         _______ _______ _______ _____ _____    ______ ____
ROOT
ATOM      1  C   UNL     1       6.497   6.271  16.743  0.00  0.00    +0.000 C 
ATOM      2  C   UNL     1       5.941   5.179  17.693  0.00  0.00    +0.000 C 
ATOM      3  N   UNL     1       5.238   4.038  17.083  0.00  0.00    +0.000 NA
ATOM      4  C   UNL     1       5.799   3.629  15.793  0.00  0.00    +0.000 C 
ATOM      5  C   UNL     1       6.460   4.723  14.938  0.00  0.00    +0.000 C 
ATOM      6  O   UNL     1       7.248   5.652  15.678  0.00  0.00    +0.000 OA
ENDROOT
BRANCH   1  10
ATOM      7  C   UNL     1       8.955  10.300  18.399  0.00  0.00    +0.000 C 
ATOM      8  C   UNL     1       8.360   8.975  18.139  0.00  0.00    +0.000 A 
ATOM      9  N   UNL     1       7.519   8.569  17.212  0.00  0.00    +0.000 NA
ATOM     10  C   UNL     1       7.373   7.231  17.520  0.00  0.00    +0.000 A 
ATOM     11  N   UNL     1       8.077   6.834  18.592  0.00  0.00    +0.000 NA
ATOM     12  O   UNL     1       8.727   7.984  19.007  0.00  0.00    +0.000 OA
ENDBRANCH   1  10
BRANCH   3  13
ATOM     13  C   UNL     1       3.781   4.014  17.152  0.00  0.00    +0.000 C 
BRANCH  13  14
ATOM     14  C   UNL     1       3.262   4.129  18.576  0.00  0.00    +0.000 A 
ATOM     15  C   UNL     1       3.374   2.996  19.406  0.00  0.00    +0.000 A 
ATOM     16  C   UNL     1       2.766   2.957  20.657  0.00  0.00    +0.000 A 
ATOM     17  C   UNL     1       2.054   4.060  21.113  0.00  0.00    +0.000 A 
ATOM     18  C   UNL     1       1.977   5.212  20.331  0.00  0.00    +0.000 A 
ATOM     19  C   UNL     1       2.575   5.267  19.060  0.00  0.00    +0.000 A 
ATOM     20  C   UNL     1       2.474   6.546  18.274  0.00  0.00    +0.000 C 
ENDBRANCH  13  14
ENDBRANCH   3  13
TORSDOF 3
ENDMDL
MODEL 4
REMARK VINA RESULT:      -8.0      1.310      1.528
REMARK  Name = 
REMARK  5 active torsions:
REMARK  status: ('A' for Active; 'I' for Inactive)
REMARK    1  A    between atoms: C_1  and  C_2
REMARK    2  A    between atoms: C_4  and  C_5
REMARK    3  A    between atoms: N_7  and  C_8
REMARK    4  A    between atoms: C_8  and  C_9
REMARK    5  A    between atoms: C_14  and  C_15
REMARK                            x       y       z     vdW  Elec       q    Type
REMARK                         _______ _______ _______ _____ _____    ______ ____
ROOT
ATOM      1  C   UNL     1       5.412   4.650  16.703  0.00  0.00    +0.000 C 
ATOM      2  C   UNL     1       4.611   5.956  16.940  0.00  0.00    +0.000 C 
ATOM      3  N   UNL     1       3.922   6.108  18.233  0.00  0.00    +0.000 NA
ATOM      4  C   UNL     1       4.654   5.517  19.357  0.00  0.00    +0.000 C 
ATOM      5  C   UNL     1       5.541   4.299  19.052  0.00  0.00    +0.000 C 
ATOM      6  O   UNL     1       6.273   4.396  17.832  0.00  0.00    +0.000 OA
ENDROOT
BRANCH   1  10
ATOM      7  C   UNL     1       7.199   4.190  12.054  0.00  0.00    +0.000 C 
ATOM      8  C   UNL     1       6.899   4.513  13.462  0.00  0.00    +0.000 A 
ATOM      9  N   UNL     1       5.930   4.108  14.257  0.00  0.00    +0.000 NA
ATOM     10  C   UNL     1       6.227   4.770  15.433  0.00  0.00    +0.000 A 
ATOM     11  N   UNL     1       7.315   5.554  15.363  0.00  0.00    +0.000 NA
ATOM     12  O   UNL     1       7.759   5.390  14.061  0.00  0.00    +0.000 OA
ENDBRANCH   1  10
BRANCH   3  13
ATOM     13  C   UNL     1       2.478   5.908  18.268  0.00  0.00    +0.000 C 
BRANCH  13  14
ATOM     14  C   UNL     1       2.077   4.702  19.102  0.00  0.00    +0.000 A 
ATOM     15  C   UNL     1       1.799   4.913  20.467  0.00  0.00    +0.000 A 
ATOM     16  C   UNL     1       1.600   3.845  21.335  0.00  0.00    +0.000 A 
ATOM     17  C   UNL     1       1.652   2.543  20.852  0.00  0.00    +0.000 A 
ATOM     18  C   UNL     1       1.870   2.312  19.494  0.00  0.00    +0.000 A 
ATOM     19  C   UNL     1       2.084   3.378  18.602  0.00  0.00    +0.000 A 
ATOM     20  C   UNL     1       2.294   3.065  17.145  0.00  0.00    +0.000 C 
ENDBRANCH  13  14
ENDBRANCH   3  13
TORSDOF 3
ENDMDL
MODEL 5
REMARK VINA RESULT:      -7.9      0.688      1.013
REMARK  Name = 
REMARK  5 active torsions:
REMARK  status: ('A' for Active; 'I' for Inactive)
REMARK    1  A    between atoms: C_1  and  C_2
REMARK    2  A    between atoms: C_4  and  C_5
REMARK    3  A    between atoms: N_7  and  C_8
REMARK    4  A    between atoms: C_8  and  C_9
REMARK    5  A    between atoms: C_14  and  C_15
REMARK                            x       y       z     vdW  Elec       q    Type
REMARK                         _______ _______ _______ _____ _____    ______ ____
ROOT
ATOM      1  C   UNL     1       6.922   4.476  16.730  0.00  0.00    +0.000 C 
ATOM      2  C   UNL     1       5.468   4.637  17.245  0.00  0.00    +0.000 C 
ATOM      3  N   UNL     1       5.276   4.829  18.692  0.00  0.00    +0.000 NA
ATOM      4  C   UNL     1       6.337   5.619  19.323  0.00  0.00    +0.000 C 
ATOM      5  C   UNL     1       7.740   5.531  18.698  0.00  0.00    +0.000 C 
ATOM      6  O   UNL     1       7.749   5.526  17.273  0.00  0.00    +0.000 OA
ENDROOT
BRANCH   1  10
ATOM      7  C   UNL     1       7.827   5.606  11.942  0.00  0.00    +0.000 C 
ATOM      8  C   UNL     1       7.383   5.065  13.240  0.00  0.00    +0.000 A 
ATOM      9  N   UNL     1       7.701   5.398  14.474  0.00  0.00    +0.000 NA
ATOM     10  C   UNL     1       6.938   4.518  15.217  0.00  0.00    +0.000 A 
ATOM     11  N   UNL     1       6.198   3.674  14.479  0.00  0.00    +0.000 NA
ATOM     12  O   UNL     1       6.492   4.029  13.173  0.00  0.00    +0.000 OA
ENDBRANCH   1  10
BRANCH   3  13
ATOM     13  C   UNL     1       4.808   3.694  19.479  0.00  0.00    +0.000 C 
BRANCH  13  14
ATOM     14  C   UNL     1       3.291   3.608  19.536  0.00  0.00    +0.000 A 
ATOM     15  C   UNL     1       2.612   4.550  20.333  0.00  0.00    +0.000 A 
ATOM     16  C   UNL     1       1.248   4.433  20.582  0.00  0.00    +0.000 A 
ATOM     17  C   UNL     1       0.531   3.385  20.019  0.00  0.00    +0.000 A 
ATOM     18  C   UNL     1       1.172   2.473  19.181  0.00  0.00    +0.000 A 
ATOM     19  C   UNL     1       2.551   2.567  18.926  0.00  0.00    +0.000 A 
ATOM     20  C   UNL     1       3.181   1.565  17.996  0.00  0.00    +0.000 C 
ENDBRANCH  13  14
ENDBRANCH   3  13
TORSDOF 3
ENDMDL
MODEL 6
REMARK VINA RESULT:      -7.9      1.167      1.220
REMARK  Name = 
REMARK  5 active torsions:
REMARK  status: ('A' for Active; 'I' for Inactive)
REMARK    1  A    between atoms: C_1  and  C_2
REMARK    2  A    between atoms: C_4  and  C_5
REMARK    3  A    between atoms: N_7  and  C_8
REMARK    4  A    between atoms: C_8  and  C_9
REMARK    5  A    between atoms: C_14  and  C_15
REMARK                            x       y       z     vdW  Elec       q    Type
REMARK                         _______ _______ _______ _____ _____    ______ ____
ROOT
ATOM      1  C   UNL     1       6.550   4.607  15.769  0.00  0.00    +0.000 C 
ATOM      2  C   UNL     1       5.171   4.637  16.478  0.00  0.00    +0.000 C 
ATOM      3  N   UNL     1       5.123   5.160  17.854  0.00  0.00    +0.000 NA
ATOM      4  C   UNL     1       6.062   6.259  18.094  0.00  0.00    +0.000 C 
ATOM      5  C   UNL     1       7.362   6.261  17.274  0.00  0.00    +0.000 C 
ATOM      6  O   UNL     1       7.195   5.890  15.907  0.00  0.00    +0.000 OA
ENDROOT
BRANCH   1  10
ATOM      7  C   UNL     1       4.780   3.017  11.370  0.00  0.00    +0.000 C 
ATOM      8  C   UNL     1       5.540   3.565  12.509  0.00  0.00    +0.000 A 
ATOM      9  N   UNL     1       5.232   3.674  13.785  0.00  0.00    +0.000 NA
ATOM     10  C   UNL     1       6.368   4.260  14.307  0.00  0.00    +0.000 A 
ATOM     11  N   UNL     1       7.324   4.513  13.398  0.00  0.00    +0.000 NA
ATOM     12  O   UNL     1       6.779   4.059  12.208  0.00  0.00    +0.000 OA
ENDBRANCH   1  10
BRANCH   3  13
ATOM     13  C   UNL     1       5.009   4.201  18.948  0.00  0.00    +0.000 C 
BRANCH  13  14
ATOM     14  C   UNL     1       3.568   3.963  19.368  0.00  0.00    +0.000 A 
ATOM     15  C   UNL     1       2.917   4.988  20.081  0.00  0.00    +0.000 A 
ATOM     16  C   UNL     1       1.666   4.783  20.655  0.00  0.00    +0.000 A 
ATOM     17  C   UNL     1       1.030   3.556  20.507  0.00  0.00    +0.000 A 
ATOM     18  C   UNL     1       1.632   2.546  19.757  0.00  0.00    +0.000 A 
ATOM     19  C   UNL     1       2.900   2.729  19.179  0.00  0.00    +0.000 A 
ATOM     20  C   UNL     1       3.487   1.609  18.363  0.00  0.00    +0.000 C 
ENDBRANCH  13  14
ENDBRANCH   3  13
TORSDOF 3
ENDMDL
MODEL 7
REMARK VINA RESULT:      -7.8      2.236      3.942
REMARK  Name = 
REMARK  5 active torsions:
REMARK  status: ('A' for Active; 'I' for Inactive)
REMARK    1  A    between atoms: C_1  and  C_2
REMARK    2  A    between atoms: C_4  and  C_5
REMARK    3  A    between atoms: N_7  and  C_8
REMARK    4  A    between atoms: C_8  and  C_9
REMARK    5  A    between atoms: C_14  and  C_15
REMARK                            x       y       z     vdW  Elec       q    Type
REMARK                         _______ _______ _______ _____ _____    ______ ____
ROOT
ATOM      1  C   UNL     1       6.485   6.182  16.656  0.00  0.00    +0.000 C 
ATOM      2  C   UNL     1       5.821   5.131  17.583  0.00  0.00    +0.000 C 
ATOM      3  N   UNL     1       5.113   4.010  16.944  0.00  0.00    +0.000 NA
ATOM      4  C   UNL     1       5.740   3.555  15.700  0.00  0.00    +0.000 C 
ATOM      5  C   UNL     1       6.501   4.607  14.875  0.00  0.00    +0.000 C 
ATOM      6  O   UNL     1       7.277   5.515  15.653  0.00  0.00    +0.000 OA
ENDROOT
BRANCH   1  10
ATOM      7  C   UNL     1       8.936  10.153  18.456  0.00  0.00    +0.000 C 
ATOM      8  C   UNL     1       8.335   8.840  18.155  0.00  0.00    +0.000 A 
ATOM      9  N   UNL     1       7.518   8.460  17.195  0.00  0.00    +0.000 NA
ATOM     10  C   UNL     1       7.347   7.118  17.476  0.00  0.00    +0.000 A 
ATOM     11  N   UNL     1       8.014   6.695  18.562  0.00  0.00    +0.000 NA
ATOM     12  O   UNL     1       8.664   7.830  19.016  0.00  0.00    +0.000 OA
ENDBRANCH   1  10
BRANCH   3  13
ATOM     13  C   UNL     1       3.655   4.046  16.916  0.00  0.00    +0.000 C 
BRANCH  13  14
ATOM     14  C   UNL     1       3.043   4.002  18.307  0.00  0.00    +0.000 A 
ATOM     15  C   UNL     1       2.521   5.202  18.830  0.00  0.00    +0.000 A 
ATOM     16  C   UNL     1       2.109   5.290  20.156  0.00  0.00    +0.000 A 
ATOM     17  C   UNL     1       2.187   4.173  20.979  0.00  0.00    +0.000 A 
ATOM     18  C   UNL     1       2.648   2.961  20.467  0.00  0.00    +0.000 A 
ATOM     19  C   UNL     1       3.080   2.854  19.133  0.00  0.00    +0.000 A 
ATOM     20  C   UNL     1       3.547   1.513  18.634  0.00  0.00    +0.000 C 
ENDBRANCH  13  14
ENDBRANCH   3  13
TORSDOF 3
ENDMDL
MODEL 8
REMARK VINA RESULT:      -7.7      1.183      1.916
REMARK  Name = 
REMARK  5 active torsions:
REMARK  status: ('A' for Active; 'I' for Inactive)
REMARK    1  A    between atoms: C_1  and  C_2
REMARK    2  A    between atoms: C_4  and  C_5
REMARK    3  A    between atoms: N_7  and  C_8
REMARK    4  A    between atoms: C_8  and  C_9
REMARK    5  A    between atoms: C_14  and  C_15
REMARK                            x       y       z     vdW  Elec       q    Type
REMARK                         _______ _______ _______ _____ _____    ______ ____
ROOT
ATOM      1  C   UNL     1       6.866   5.051  15.990  0.00  0.00    +0.000 C 
ATOM      2  C   UNL     1       5.436   5.062  16.590  0.00  0.00    +0.000 C 
ATOM      3  N   UNL     1       5.263   5.652  17.928  0.00  0.00    +0.000 NA
ATOM      4  C   UNL     1       6.141   6.798  18.180  0.00  0.00    +0.000 C 
ATOM      5  C   UNL     1       7.500   6.809  17.461  0.00  0.00    +0.000 C 
ATOM      6  O   UNL     1       7.453   6.363  16.107  0.00  0.00    +0.000 OA
ENDROOT
BRANCH   1  10
ATOM      7  C   UNL     1       5.800   2.772  11.667  0.00  0.00    +0.000 C 
ATOM      8  C   UNL     1       6.297   3.608  12.776  0.00  0.00    +0.000 A 
ATOM      9  N   UNL     1       5.996   3.617  14.058  0.00  0.00    +0.000 NA
ATOM     10  C   UNL     1       6.811   4.623  14.539  0.00  0.00    +0.000 A 
ATOM     11  N   UNL     1       7.567   5.214  13.600  0.00  0.00    +0.000 NA
ATOM     12  O   UNL     1       7.227   4.550  12.433  0.00  0.00    +0.000 OA
ENDBRANCH   1  10
BRANCH   3  13
ATOM     13  C   UNL     1       5.098   4.746  19.060  0.00  0.00    +0.000 C 
BRANCH  13  14
ATOM     14  C   UNL     1       3.776   3.997  19.020  0.00  0.00    +0.000 A 
ATOM     15  C   UNL     1       3.803   2.646  18.620  0.00  0.00    +0.000 A 
ATOM     16  C   UNL     1       2.626   1.942  18.386  0.00  0.00    +0.000 A 
ATOM     17  C   UNL     1       1.398   2.567  18.569  0.00  0.00    +0.000 A 
ATOM     18  C   UNL     1       1.349   3.886  19.019  0.00  0.00    +0.000 A 
ATOM     19  C   UNL     1       2.526   4.618  19.251  0.00  0.00    +0.000 A 
ATOM     20  C   UNL     1       2.406   6.031  19.755  0.00  0.00    +0.000 C 
ENDBRANCH  13  14
ENDBRANCH   3  13
TORSDOF 3
ENDMDL
MODEL 9
REMARK VINA RESULT:      -7.5      0.814      1.875
REMARK  Name = 
REMARK  5 active torsions:
REMARK  status: ('A' for Active; 'I' for Inactive)
REMARK    1  A    between atoms: C_1  and  C_2
REMARK    2  A    between atoms: C_4  and  C_5
REMARK    3  A    between atoms: N_7  and  C_8
REMARK    4  A    between atoms: C_8  and  C_9
REMARK    5  A    between atoms: C_14  and  C_15
REMARK                            x       y       z     vdW  Elec       q    Type
REMARK                         _______ _______ _______ _____ _____    ______ ____
ROOT
ATOM      1  C   UNL     1       6.870   4.464  16.800  0.00  0.00    +0.000 C 
ATOM      2  C   UNL     1       5.401   4.469  17.297  0.00  0.00    +0.000 C 
ATOM      3  N   UNL     1       5.170   4.654  18.739  0.00  0.00    +0.000 NA
ATOM      4  C   UNL     1       6.130   5.562  19.373  0.00  0.00    +0.000 C 
ATOM      5  C   UNL     1       7.542   5.622  18.766  0.00  0.00    +0.000 C 
ATOM      6  O   UNL     1       7.570   5.604  17.340  0.00  0.00    +0.000 OA
ENDROOT
BRANCH   1  10
ATOM      7  C   UNL     1       7.844   5.530  12.011  0.00  0.00    +0.000 C 
ATOM      8  C   UNL     1       7.376   5.011  13.310  0.00  0.00    +0.000 A 
ATOM      9  N   UNL     1       7.690   5.348  14.543  0.00  0.00    +0.000 NA
ATOM     10  C   UNL     1       6.901   4.492  15.287  0.00  0.00    +0.000 A 
ATOM     11  N   UNL     1       6.149   3.658  14.550  0.00  0.00    +0.000 NA
ATOM     12  O   UNL     1       6.462   3.995  13.243  0.00  0.00    +0.000 OA
ENDBRANCH   1  10
BRANCH   3  13
ATOM     13  C   UNL     1       4.820   3.482  19.534  0.00  0.00    +0.000 C 
BRANCH  13  14
ATOM     14  C   UNL     1       3.353   3.105  19.404  0.00  0.00    +0.000 A 
ATOM     15  C   UNL     1       3.024   2.049  18.532  0.00  0.00    +0.000 A 
ATOM     16  C   UNL     1       1.699   1.760  18.219  0.00  0.00    +0.000 A 
ATOM     17  C   UNL     1       0.676   2.506  18.791  0.00  0.00    +0.000 A 
ATOM     18  C   UNL     1       0.977   3.520  19.700  0.00  0.00    +0.000 A 
ATOM     19  C   UNL     1       2.309   3.835  20.020  0.00  0.00    +0.000 A 
ATOM     20  C   UNL     1       2.568   4.926  21.024  0.00  0.00    +0.000 C 
ENDBRANCH  13  14
ENDBRANCH   3  13
TORSDOF 3
ENDMDL
