MODEL 1
REMARK VINA RESULT:      -5.7      0.000      0.000
REMARK  Name = 
REMARK  12 active torsions:
REMARK  status: ('A' for Active; 'I' for Inactive)
REMARK    1  A    between atoms: C_1  and  O_2
REMARK    2  A    between atoms: O_2  and  C_3
REMARK    3  A    between atoms: C_3  and  C_5
REMARK    4  A    between atoms: C_5  and  C_6
REMARK    5  A    between atoms: C_6  and  C_7
REMARK    6  A    between atoms: C_6  and  C_14
REMARK    7  A    between atoms: C_7  and  C_8
REMARK    8  A    between atoms: C_8  and  C_10
REMARK    9  A    between atoms: C_10  and  O_12
REMARK   10  A    between atoms: O_12  and  C_13
REMARK   11  A    between atoms: C_14  and  O_16
REMARK   12  A    between atoms: O_16  and  C_17
REMARK                            x       y       z     vdW  Elec       q    Type
REMARK                         _______ _______ _______ _____ _____    ______ ____
ROOT
ATOM      1  C   UNL     1       3.964   4.910  17.733  0.00  0.00    +0.000 C 
ENDROOT
BRANCH   1   2
ATOM      2  C   UNL     1       4.486   3.628  18.365  0.00  0.00    +0.000 C 
ATOM      3  O   UNL     1       5.149   3.572  19.390  0.00  0.00    +0.000 OA
BRANCH   2   4
ATOM      4  O   UNL     1       4.094   2.545  17.636  0.00  0.00    +0.000 OA
ATOM      5  C   UNL     1       3.582   1.483  18.445  0.00  0.00    +0.000 C 
ENDBRANCH   2   4
ENDBRANCH   1   2
BRANCH   1   6
ATOM      6  C   UNL     1       2.696   5.390  18.456  0.00  0.00    +0.000 C 
BRANCH   6   7
ATOM      7  C   UNL     1       1.546   4.425  18.273  0.00  0.00    +0.000 C 
ATOM      8  O   UNL     1       1.038   4.156  17.196  0.00  0.00    +0.000 OA
BRANCH   7  10
ATOM      9  C   UNL     1       1.485   4.756  20.625  0.00  0.00    +0.000 C 
ATOM     10  O   UNL     1       1.149   3.958  19.488  0.00  0.00    +0.000 OA
ENDBRANCH   7  10
ENDBRANCH   6   7
ENDBRANCH   1   6
BRANCH   1  11
ATOM     11  C   UNL     1       5.056   5.992  17.661  0.00  0.00    +0.000 C 
BRANCH  11  12
ATOM     12  C   UNL     1       5.708   6.135  16.300  0.00  0.00    +0.000 C 
ATOM     13  O   UNL     1       5.277   6.852  15.405  0.00  0.00    +0.000 OA
BRANCH  12  14
ATOM     14  C   UNL     1       6.976   5.310  16.063  0.00  0.00    +0.000 C 
ATOM     15  O   UNL     1       7.607   4.800  16.971  0.00  0.00    +0.000 OA
BRANCH  14  16
ATOM     16  O   UNL     1       7.231   5.243  14.740  0.00  0.00    +0.000 OA
ATOM     17  C   UNL     1       6.601   4.169  14.049  0.00  0.00    +0.000 C 
ENDBRANCH  14  16
ENDBRANCH  12  14
ENDBRANCH  11  12
ENDBRANCH   1  11
TORSDOF 9
ENDMDL
MODEL 2
REMARK VINA RESULT:      -5.6      1.540      2.299
REMARK  Name = 
REMARK  12 active torsions:
REMARK  status: ('A' for Active; 'I' for Inactive)
REMARK    1  A    between atoms: C_1  and  O_2
REMARK    2  A    between atoms: O_2  and  C_3
REMARK    3  A    between atoms: C_3  and  C_5
REMARK    4  A    between atoms: C_5  and  C_6
REMARK    5  A    between atoms: C_6  and  C_7
REMARK    6  A    between atoms: C_6  and  C_14
REMARK    7  A    between atoms: C_7  and  C_8
REMARK    8  A    between atoms: C_8  and  C_10
REMARK    9  A    between atoms: C_10  and  O_12
REMARK   10  A    between atoms: O_12  and  C_13
REMARK   11  A    between atoms: C_14  and  O_16
REMARK   12  A    between atoms: O_16  and  C_17
REMARK                            x       y       z     vdW  Elec       q    Type
REMARK                         _______ _______ _______ _____ _____    ______ ____
ROOT
ATOM      1  C   UNL     1       4.762   4.898  18.808  0.00  0.00    +0.000 C 
ENDROOT
BRANCH   1   2
ATOM      2  C   UNL     1       4.708   3.381  18.910  0.00  0.00    +0.000 C 
ATOM      3  O   UNL     1       5.066   2.731  19.881  0.00  0.00    +0.000 OA
BRANCH   2   4
ATOM      4  O   UNL     1       4.185   2.847  17.770  0.00  0.00    +0.000 OA
ATOM      5  C   UNL     1       3.240   1.804  18.024  0.00  0.00    +0.000 C 
ENDBRANCH   2   4
ENDBRANCH   1   2
BRANCH   1   6
ATOM      6  C   UNL     1       3.655   5.536  19.662  0.00  0.00    +0.000 C 
BRANCH   6   7
ATOM      7  C   UNL     1       2.279   5.245  19.108  0.00  0.00    +0.000 C 
ATOM      8  O   UNL     1       1.954   5.421  17.944  0.00  0.00    +0.000 OA
BRANCH   7  10
ATOM      9  C   UNL     1       2.108   4.258  21.262  0.00  0.00    +0.000 C 
ATOM     10  O   UNL     1       1.468   4.812  20.111  0.00  0.00    +0.000 OA
ENDBRANCH   7  10
ENDBRANCH   6   7
ENDBRANCH   1   6
BRANCH   1  11
ATOM     11  C   UNL     1       6.162   5.441  19.145  0.00  0.00    +0.000 C 
BRANCH  11  12
ATOM     12  C   UNL     1       7.204   5.196  18.072  0.00  0.00    +0.000 C 
ATOM     13  O   UNL     1       8.075   4.337  18.145  0.00  0.00    +0.000 OA
BRANCH  12  14
ATOM     14  C   UNL     1       7.138   6.102  16.839  0.00  0.00    +0.000 C 
ATOM     15  O   UNL     1       7.370   5.699  15.714  0.00  0.00    +0.000 OA
BRANCH  14  16
ATOM     16  O   UNL     1       6.775   7.347  17.212  0.00  0.00    +0.000 OA
ATOM     17  C   UNL     1       7.841   8.201  17.613  0.00  0.00    +0.000 C 
ENDBRANCH  14  16
ENDBRANCH  12  14
ENDBRANCH  11  12
ENDBRANCH   1  11
TORSDOF 9
ENDMDL
MODEL 3
REMARK VINA RESULT:      -5.6      1.887      2.958
REMARK  Name = 
REMARK  12 active torsions:
REMARK  status: ('A' for Active; 'I' for Inactive)
REMARK    1  A    between atoms: C_1  and  O_2
REMARK    2  A    between atoms: O_2  and  C_3
REMARK    3  A    between atoms: C_3  and  C_5
REMARK    4  A    between atoms: C_5  and  C_6
REMARK    5  A    between atoms: C_6  and  C_7
REMARK    6  A    between atoms: C_6  and  C_14
REMARK    7  A    between atoms: C_7  and  C_8
REMARK    8  A    between atoms: C_8  and  C_10
REMARK    9  A    between atoms: C_10  and  O_12
REMARK   10  A    between atoms: O_12  and  C_13
REMARK   11  A    between atoms: C_14  and  O_16
REMARK   12  A    between atoms: O_16  and  C_17
REMARK                            x       y       z     vdW  Elec       q    Type
REMARK                         _______ _______ _______ _____ _____    ______ ____
ROOT
ATOM      1  C   UNL     1       5.063   3.929  17.899  0.00  0.00    +0.000 C 
ENDROOT
BRANCH   1   2
ATOM      2  C   UNL     1       4.851   5.154  18.777  0.00  0.00    +0.000 C 
ATOM      3  O   UNL     1       5.615   5.527  19.655  0.00  0.00    +0.000 OA
BRANCH   2   4
ATOM      4  O   UNL     1       3.696   5.790  18.432  0.00  0.00    +0.000 OA
ATOM      5  C   UNL     1       2.894   6.143  19.562  0.00  0.00    +0.000 C 
ENDBRANCH   2   4
ENDBRANCH   1   2
BRANCH   1   6
ATOM      6  C   UNL     1       3.962   2.887  18.152  0.00  0.00    +0.000 C 
BRANCH   6   7
ATOM      7  C   UNL     1       3.926   2.446  19.597  0.00  0.00    +0.000 C 
ATOM      8  O   UNL     1       4.894   2.029  20.215  0.00  0.00    +0.000 OA
BRANCH   7  10
ATOM      9  C   UNL     1       1.601   2.335  19.126  0.00  0.00    +0.000 C 
ATOM     10  O   UNL     1       2.654   2.543  20.069  0.00  0.00    +0.000 OA
ENDBRANCH   7  10
ENDBRANCH   6   7
ENDBRANCH   1   6
BRANCH   1  11
ATOM     11  C   UNL     1       5.196   4.310  16.414  0.00  0.00    +0.000 C 
BRANCH  11  12
ATOM     12  C   UNL     1       6.624   4.462  15.930  0.00  0.00    +0.000 C 
ATOM     13  O   UNL     1       7.594   4.540  16.673  0.00  0.00    +0.000 OA
BRANCH  12  14
ATOM     14  C   UNL     1       6.825   4.527  14.413  0.00  0.00    +0.000 C 
ATOM     15  O   UNL     1       6.208   3.820  13.638  0.00  0.00    +0.000 OA
BRANCH  14  16
ATOM     16  O   UNL     1       7.740   5.474  14.120  0.00  0.00    +0.000 OA
ATOM     17  C   UNL     1       8.144   5.532  12.756  0.00  0.00    +0.000 C 
ENDBRANCH  14  16
ENDBRANCH  12  14
ENDBRANCH  11  12
ENDBRANCH   1  11
TORSDOF 9
ENDMDL
MODEL 4
REMARK VINA RESULT:      -5.5      1.600      3.721
REMARK  Name = 
REMARK  12 active torsions:
REMARK  status: ('A' for Active; 'I' for Inactive)
REMARK    1  A    between atoms: C_1  and  O_2
REMARK    2  A    between atoms: O_2  and  C_3
REMARK    3  A    between atoms: C_3  and  C_5
REMARK    4  A    between atoms: C_5  and  C_6
REMARK    5  A    between atoms: C_6  and  C_7
REMARK    6  A    between atoms: C_6  and  C_14
REMARK    7  A    between atoms: C_7  and  C_8
REMARK    8  A    between atoms: C_8  and  C_10
REMARK    9  A    between atoms: C_10  and  O_12
REMARK   10  A    between atoms: O_12  and  C_13
REMARK   11  A    between atoms: C_14  and  O_16
REMARK   12  A    between atoms: O_16  and  C_17
REMARK                            x       y       z     vdW  Elec       q    Type
REMARK                         _______ _______ _______ _____ _____    ______ ____
ROOT
ATOM      1  C   UNL     1       4.448   4.684  17.473  0.00  0.00    +0.000 C 
ENDROOT
BRANCH   1   2
ATOM      2  C   UNL     1       3.065   4.151  17.818  0.00  0.00    +0.000 C 
ATOM      3  O   UNL     1       2.350   3.517  17.057  0.00  0.00    +0.000 OA
BRANCH   2   4
ATOM      4  O   UNL     1       2.744   4.464  19.105  0.00  0.00    +0.000 OA
ATOM      5  C   UNL     1       1.477   3.938  19.508  0.00  0.00    +0.000 C 
ENDBRANCH   2   4
ENDBRANCH   1   2
BRANCH   1   6
ATOM      6  C   UNL     1       5.448   4.354  18.591  0.00  0.00    +0.000 C 
BRANCH   6   7
ATOM      7  C   UNL     1       6.792   5.006  18.355  0.00  0.00    +0.000 C 
ATOM      8  O   UNL     1       7.832   4.392  18.173  0.00  0.00    +0.000 OA
BRANCH   7  10
ATOM      9  C   UNL     1       7.646   7.138  17.750  0.00  0.00    +0.000 C 
ATOM     10  O   UNL     1       6.659   6.358  18.427  0.00  0.00    +0.000 OA
ENDBRANCH   7  10
ENDBRANCH   6   7
ENDBRANCH   1   6
BRANCH   1  11
ATOM     11  C   UNL     1       4.916   4.195  16.090  0.00  0.00    +0.000 C 
BRANCH  11  12
ATOM     12  C   UNL     1       5.564   5.264  15.233  0.00  0.00    +0.000 C 
ATOM     13  O   UNL     1       5.233   6.444  15.243  0.00  0.00    +0.000 OA
BRANCH  12  14
ATOM     14  C   UNL     1       6.691   4.802  14.305  0.00  0.00    +0.000 C 
ATOM     15  O   UNL     1       7.764   5.373  14.240  0.00  0.00    +0.000 OA
BRANCH  14  16
ATOM     16  O   UNL     1       6.300   3.700  13.634  0.00  0.00    +0.000 OA
ATOM     17  C   UNL     1       6.685   3.647  12.264  0.00  0.00    +0.000 C 
ENDBRANCH  14  16
ENDBRANCH  12  14
ENDBRANCH  11  12
ENDBRANCH   1  11
TORSDOF 9
ENDMDL
MODEL 5
REMARK VINA RESULT:      -5.5      1.687      3.130
REMARK  Name = 
REMARK  12 active torsions:
REMARK  status: ('A' for Active; 'I' for Inactive)
REMARK    1  A    between atoms: C_1  and  O_2
REMARK    2  A    between atoms: O_2  and  C_3
REMARK    3  A    between atoms: C_3  and  C_5
REMARK    4  A    between atoms: C_5  and  C_6
REMARK    5  A    between atoms: C_6  and  C_7
REMARK    6  A    between atoms: C_6  and  C_14
REMARK    7  A    between atoms: C_7  and  C_8
REMARK    8  A    between atoms: C_8  and  C_10
REMARK    9  A    between atoms: C_10  and  O_12
REMARK   10  A    between atoms: O_12  and  C_13
REMARK   11  A    between atoms: C_14  and  O_16
REMARK   12  A    between atoms: O_16  and  C_17
REMARK                            x       y       z     vdW  Elec       q    Type
REMARK                         _______ _______ _______ _____ _____    ______ ____
ROOT
ATOM      1  C   UNL     1       4.177   4.124  17.655  0.00  0.00    +0.000 C 
ENDROOT
BRANCH   1   2
ATOM      2  C   UNL     1       2.969   5.020  17.885  0.00  0.00    +0.000 C 
ATOM      3  O   UNL     1       1.811   4.707  17.652  0.00  0.00    +0.000 OA
BRANCH   2   4
ATOM      4  O   UNL     1       3.359   6.218  18.405  0.00  0.00    +0.000 OA
ATOM      5  C   UNL     1       2.503   6.675  19.456  0.00  0.00    +0.000 C 
ENDBRANCH   2   4
ENDBRANCH   1   2
BRANCH   1   6
ATOM      6  C   UNL     1       3.845   2.668  18.016  0.00  0.00    +0.000 C 
BRANCH   6   7
ATOM      7  C   UNL     1       3.878   2.437  19.510  0.00  0.00    +0.000 C 
ATOM      8  O   UNL     1       4.900   2.293  20.162  0.00  0.00    +0.000 OA
BRANCH   7  10
ATOM      9  C   UNL     1       2.415   2.703  21.362  0.00  0.00    +0.000 C 
ATOM     10  O   UNL     1       2.605   2.369  19.986  0.00  0.00    +0.000 OA
ENDBRANCH   7  10
ENDBRANCH   6   7
ENDBRANCH   1   6
BRANCH   1  11
ATOM     11  C   UNL     1       4.732   4.273  16.228  0.00  0.00    +0.000 C 
BRANCH  11  12
ATOM     12  C   UNL     1       5.697   5.428  16.048  0.00  0.00    +0.000 C 
ATOM     13  O   UNL     1       5.456   6.424  15.376  0.00  0.00    +0.000 OA
BRANCH  12  14
ATOM     14  C   UNL     1       7.050   5.302  16.756  0.00  0.00    +0.000 C 
ATOM     15  O   UNL     1       7.873   4.459  16.453  0.00  0.00    +0.000 OA
BRANCH  14  16
ATOM     16  O   UNL     1       7.155   6.258  17.702  0.00  0.00    +0.000 OA
ATOM     17  C   UNL     1       7.550   5.802  18.991  0.00  0.00    +0.000 C 
ENDBRANCH  14  16
ENDBRANCH  12  14
ENDBRANCH  11  12
ENDBRANCH   1  11
TORSDOF 9
ENDMDL
MODEL 6
REMARK VINA RESULT:      -5.5      1.543      2.258
REMARK  Name = 
REMARK  12 active torsions:
REMARK  status: ('A' for Active; 'I' for Inactive)
REMARK    1  A    between atoms: C_1  and  O_2
REMARK    2  A    between atoms: O_2  and  C_3
REMARK    3  A    between atoms: C_3  and  C_5
REMARK    4  A    between atoms: C_5  and  C_6
REMARK    5  A    between atoms: C_6  and  C_7
REMARK    6  A    between atoms: C_6  and  C_14
REMARK    7  A    between atoms: C_7  and  C_8
REMARK    8  A    between atoms: C_8  and  C_10
REMARK    9  A    between atoms: C_10  and  O_12
REMARK   10  A    between atoms: O_12  and  C_13
REMARK   11  A    between atoms: C_14  and  O_16
REMARK   12  A    between atoms: O_16  and  C_17
REMARK                            x       y       z     vdW  Elec       q    Type
REMARK                         _______ _______ _______ _____ _____    ______ ____
ROOT
ATOM      1  C   UNL     1       3.816   3.815  17.724  0.00  0.00    +0.000 C 
ENDROOT
BRANCH   1   2
ATOM      2  C   UNL     1       3.021   2.522  17.838  0.00  0.00    +0.000 C 
ATOM      3  O   UNL     1       3.502   1.424  18.076  0.00  0.00    +0.000 OA
BRANCH   2   4
ATOM      4  O   UNL     1       1.692   2.765  17.657  0.00  0.00    +0.000 OA
ATOM      5  C   UNL     1       0.902   2.423  18.799  0.00  0.00    +0.000 C 
ENDBRANCH   2   4
ENDBRANCH   1   2
BRANCH   1   6
ATOM      6  C   UNL     1       4.366   4.233  19.096  0.00  0.00    +0.000 C 
BRANCH   6   7
ATOM      7  C   UNL     1       3.446   5.206  19.799  0.00  0.00    +0.000 C 
ATOM      8  O   UNL     1       2.640   4.891  20.661  0.00  0.00    +0.000 OA
BRANCH   7  10
ATOM      9  C   UNL     1       2.478   7.091  18.727  0.00  0.00    +0.000 C 
ATOM     10  O   UNL     1       3.627   6.453  19.286  0.00  0.00    +0.000 OA
ENDBRANCH   7  10
ENDBRANCH   6   7
ENDBRANCH   1   6
BRANCH   1  11
ATOM     11  C   UNL     1       4.910   3.716  16.647  0.00  0.00    +0.000 C 
BRANCH  11  12
ATOM     12  C   UNL     1       5.634   5.017  16.366  0.00  0.00    +0.000 C 
ATOM     13  O   UNL     1       5.080   6.106  16.287  0.00  0.00    +0.000 OA
BRANCH  12  14
ATOM     14  C   UNL     1       7.150   4.923  16.165  0.00  0.00    +0.000 C 
ATOM     15  O   UNL     1       7.887   4.389  16.972  0.00  0.00    +0.000 OA
BRANCH  14  16
ATOM     16  O   UNL     1       7.485   5.489  14.987  0.00  0.00    +0.000 OA
ATOM     17  C   UNL     1       7.102   4.759  13.826  0.00  0.00    +0.000 C 
ENDBRANCH  14  16
ENDBRANCH  12  14
ENDBRANCH  11  12
ENDBRANCH   1  11
TORSDOF 9
ENDMDL
MODEL 7
REMARK VINA RESULT:      -5.5      1.700      2.649
REMARK  Name = 
REMARK  12 active torsions:
REMARK  status: ('A' for Active; 'I' for Inactive)
REMARK    1  A    between atoms: C_1  and  O_2
REMARK    2  A    between atoms: O_2  and  C_3
REMARK    3  A    between atoms: C_3  and  C_5
REMARK    4  A    between atoms: C_5  and  C_6
REMARK    5  A    between atoms: C_6  and  C_7
REMARK    6  A    between atoms: C_6  and  C_14
REMARK    7  A    between atoms: C_7  and  C_8
REMARK    8  A    between atoms: C_8  and  C_10
REMARK    9  A    between atoms: C_10  and  O_12
REMARK   10  A    between atoms: O_12  and  C_13
REMARK   11  A    between atoms: C_14  and  O_16
REMARK   12  A    between atoms: O_16  and  C_17
REMARK                            x       y       z     vdW  Elec       q    Type
REMARK                         _______ _______ _______ _____ _____    ______ ____
ROOT
ATOM      1  C   UNL     1       4.803   3.945  18.014  0.00  0.00    +0.000 C 
ENDROOT
BRANCH   1   2
ATOM      2  C   UNL     1       5.650   4.839  18.907  0.00  0.00    +0.000 C 
ATOM      3  O   UNL     1       5.209   5.691  19.665  0.00  0.00    +0.000 OA
BRANCH   2   4
ATOM      4  O   UNL     1       6.972   4.543  18.758  0.00  0.00    +0.000 OA
ATOM      5  C   UNL     1       7.827   5.662  19.008  0.00  0.00    +0.000 C 
ENDBRANCH   2   4
ENDBRANCH   1   2
BRANCH   1   6
ATOM      6  C   UNL     1       3.614   3.369  18.798  0.00  0.00    +0.000 C 
BRANCH   6   7
ATOM      7  C   UNL     1       3.154   2.045  18.231  0.00  0.00    +0.000 C 
ATOM      8  O   UNL     1       3.850   1.043  18.170  0.00  0.00    +0.000 OA
BRANCH   7  10
ATOM      9  C   UNL     1       0.871   2.469  18.730  0.00  0.00    +0.000 C 
ATOM     10  O   UNL     1       1.882   2.168  17.766  0.00  0.00    +0.000 OA
ENDBRANCH   7  10
ENDBRANCH   6   7
ENDBRANCH   1   6
BRANCH   1  11
ATOM     11  C   UNL     1       4.373   4.672  16.727  0.00  0.00    +0.000 C 
BRANCH  11  12
ATOM     12  C   UNL     1       5.471   5.482  16.067  0.00  0.00    +0.000 C 
ATOM     13  O   UNL     1       5.520   6.706  16.079  0.00  0.00    +0.000 OA
BRANCH  12  14
ATOM     14  C   UNL     1       6.562   4.687  15.344  0.00  0.00    +0.000 C 
ATOM     15  O   UNL     1       7.741   4.981  15.411  0.00  0.00    +0.000 OA
BRANCH  14  16
ATOM     16  O   UNL     1       6.004   3.653  14.681  0.00  0.00    +0.000 OA
ATOM     17  C   UNL     1       6.119   3.701  13.263  0.00  0.00    +0.000 C 
ENDBRANCH  14  16
ENDBRANCH  12  14
ENDBRANCH  11  12
ENDBRANCH   1  11
TORSDOF 9
ENDMDL
MODEL 8
REMARK VINA RESULT:      -5.5      1.471      5.429
REMARK  Name = 
REMARK  12 active torsions:
REMARK  status: ('A' for Active; 'I' for Inactive)
REMARK    1  A    between atoms: C_1  and  O_2
REMARK    2  A    between atoms: O_2  and  C_3
REMARK    3  A    between atoms: C_3  and  C_5
REMARK    4  A    between atoms: C_5  and  C_6
REMARK    5  A    between atoms: C_6  and  C_7
REMARK    6  A    between atoms: C_6  and  C_14
REMARK    7  A    between atoms: C_7  and  C_8
REMARK    8  A    between atoms: C_8  and  C_10
REMARK    9  A    between atoms: C_10  and  O_12
REMARK   10  A    between atoms: O_12  and  C_13
REMARK   11  A    between atoms: C_14  and  O_16
REMARK   12  A    between atoms: O_16  and  C_17
REMARK                            x       y       z     vdW  Elec       q    Type
REMARK                         _______ _______ _______ _____ _____    ______ ____
ROOT
ATOM      1  C   UNL     1       4.254   5.192  18.063  0.00  0.00    +0.000 C 
ENDROOT
BRANCH   1   2
ATOM      2  C   UNL     1       5.363   4.702  18.982  0.00  0.00    +0.000 C 
ATOM      3  O   UNL     1       5.450   3.569  19.431  0.00  0.00    +0.000 OA
BRANCH   2   4
ATOM      4  O   UNL     1       6.258   5.701  19.220  0.00  0.00    +0.000 OA
ATOM      5  C   UNL     1       7.533   5.465  18.617  0.00  0.00    +0.000 C 
ENDBRANCH   2   4
ENDBRANCH   1   2
BRANCH   1   6
ATOM      6  C   UNL     1       4.263   4.409  16.741  0.00  0.00    +0.000 C 
BRANCH   6   7
ATOM      7  C   UNL     1       5.340   4.903  15.802  0.00  0.00    +0.000 C 
ATOM      8  O   UNL     1       5.545   6.079  15.547  0.00  0.00    +0.000 OA
BRANCH   7  10
ATOM      9  C   UNL     1       6.296   3.907  13.869  0.00  0.00    +0.000 C 
ATOM     10  O   UNL     1       5.995   3.838  15.264  0.00  0.00    +0.000 OA
ENDBRANCH   7  10
ENDBRANCH   6   7
ENDBRANCH   1   6
BRANCH   1  11
ATOM     11  C   UNL     1       2.883   5.166  18.762  0.00  0.00    +0.000 C 
BRANCH  11  12
ATOM     12  C   UNL     1       1.944   4.087  18.262  0.00  0.00    +0.000 C 
ATOM     13  O   UNL     1       1.188   4.225  17.308  0.00  0.00    +0.000 OA
BRANCH  12  14
ATOM     14  C   UNL     1       1.962   2.760  19.026  0.00  0.00    +0.000 C 
ATOM     15  O   UNL     1       2.750   1.868  18.774  0.00  0.00    +0.000 OA
BRANCH  14  16
ATOM     16  O   UNL     1       1.013   2.779  19.985  0.00  0.00    +0.000 OA
ATOM     17  C   UNL     1       1.496   2.789  21.324  0.00  0.00    +0.000 C 
ENDBRANCH  14  16
ENDBRANCH  12  14
ENDBRANCH  11  12
ENDBRANCH   1  11
TORSDOF 9
ENDMDL
MODEL 9
REMARK VINA RESULT:      -5.5      2.028      5.808
REMARK  Name = 
REMARK  12 active torsions:
REMARK  status: ('A' for Active; 'I' for Inactive)
REMARK    1  A    between atoms: C_1  and  O_2
REMARK    2  A    between atoms: O_2  and  C_3
REMARK    3  A    between atoms: C_3  and  C_5
REMARK    4  A    between atoms: C_5  and  C_6
REMARK    5  A    between atoms: C_6  and  C_7
REMARK    6  A    between atoms: C_6  and  C_14
REMARK    7  A    between atoms: C_7  and  C_8
REMARK    8  A    between atoms: C_8  and  C_10
REMARK    9  A    between atoms: C_10  and  O_12
REMARK   10  A    between atoms: O_12  and  C_13
REMARK   11  A    between atoms: C_14  and  O_16
REMARK   12  A    between atoms: O_16  and  C_17
REMARK                            x       y       z     vdW  Elec       q    Type
REMARK                         _______ _______ _______ _____ _____    ______ ____
ROOT
ATOM      1  C   UNL     1       3.853   5.122  17.968  0.00  0.00    +0.000 C 
ENDROOT
BRANCH   1   2
ATOM      2  C   UNL     1       3.802   6.601  17.613  0.00  0.00    +0.000 C 
ATOM      3  O   UNL     1       4.449   7.129  16.722  0.00  0.00    +0.000 OA
BRANCH   2   4
ATOM      4  O   UNL     1       2.918   7.252  18.419  0.00  0.00    +0.000 OA
ATOM      5  C   UNL     1       2.428   8.467  17.845  0.00  0.00    +0.000 C 
ENDBRANCH   2   4
ENDBRANCH   1   2
BRANCH   1   6
ATOM      6  C   UNL     1       4.537   4.916  19.329  0.00  0.00    +0.000 C 
BRANCH   6   7
ATOM      7  C   UNL     1       6.042   4.872  19.200  0.00  0.00    +0.000 C 
ATOM      8  O   UNL     1       6.814   5.459  19.942  0.00  0.00    +0.000 OA
BRANCH   7  10
ATOM      9  C   UNL     1       7.460   4.612  17.312  0.00  0.00    +0.000 C 
ATOM     10  O   UNL     1       6.383   4.125  18.115  0.00  0.00    +0.000 OA
ENDBRANCH   7  10
ENDBRANCH   6   7
ENDBRANCH   1   6
BRANCH   1  11
ATOM     11  C   UNL     1       2.459   4.473  17.896  0.00  0.00    +0.000 C 
BRANCH  11  12
ATOM     12  C   UNL     1       2.454   2.972  18.107  0.00  0.00    +0.000 C 
ATOM     13  O   UNL     1       3.289   2.211  17.634  0.00  0.00    +0.000 OA
BRANCH  12  14
ATOM     14  C   UNL     1       1.315   2.408  18.962  0.00  0.00    +0.000 C 
ATOM     15  O   UNL     1       0.189   2.246  18.530  0.00  0.00    +0.000 OA
BRANCH  14  16
ATOM     16  O   UNL     1       1.776   2.124  20.197  0.00  0.00    +0.000 OA
ATOM     17  C   UNL     1       1.467   3.083  21.202  0.00  0.00    +0.000 C 
ENDBRANCH  14  16
ENDBRANCH  12  14
ENDBRANCH  11  12
ENDBRANCH   1  11
TORSDOF 9
ENDMDL
