MODEL 1
REMARK VINA RESULT:      -8.2      0.000      0.000
REMARK  Name = 
REMARK  14 active torsions:
REMARK  status: ('A' for Active; 'I' for Inactive)
REMARK    1  A    between atoms: C_1  and  O_2
REMARK    2  A    between atoms: O_2  and  C_3
REMARK    3  A    between atoms: C_3  and  C_5
REMARK    4  A    between atoms: C_5  and  C_6
REMARK    5  A    between atoms: C_6  and  C_7
REMARK    6  A    between atoms: C_7  and  C_8
REMARK    7  A    between atoms: C_8  and  C_9
REMARK    8  A    between atoms: C_9  and  C_10
REMARK    9  A    between atoms: C_10  and  N_11
REMARK   10  A    between atoms: C_10  and  C_22
REMARK   11  A    between atoms: C_12  and  O_14
REMARK   12  A    between atoms: O_14  and  C_15
REMARK   13  A    between atoms: C_15  and  C_16
REMARK   14  A    between atoms: N_24  and  C_25
REMARK                            x       y       z     vdW  Elec       q    Type
REMARK                         _______ _______ _______ _____ _____    ______ ____
ROOT
ATOM      1  C   UNL     1       6.660   6.590  17.148  0.00  0.00    +0.000 C 
ENDROOT
BRANCH   1   2
ATOM      2  N   UNL     1       5.746   6.063  18.157  0.00  0.00    +0.000 N 
ATOM      3  C   UNL     1       6.176   5.415  19.274  0.00  0.00    +0.000 C 
ATOM      4  O   UNL     1       7.353   5.254  19.567  0.00  0.00    +0.000 OA
ATOM      5  H   UNL     1       4.759   6.278  18.106  0.00  0.00    +0.000 HD
BRANCH   3   6
ATOM      6  O   UNL     1       5.115   4.918  19.952  0.00  0.00    +0.000 OA
BRANCH   6   7
ATOM      7  C   UNL     1       4.755   3.569  19.622  0.00  0.00    +0.000 C 
BRANCH   7   8
ATOM      8  C   UNL     1       3.262   3.372  19.586  0.00  0.00    +0.000 A 
ATOM      9  C   UNL     1       2.539   3.541  18.395  0.00  0.00    +0.000 A 
ATOM     10  C   UNL     1       1.160   3.322  18.365  0.00  0.00    +0.000 A 
ATOM     11  C   UNL     1       0.489   2.936  19.524  0.00  0.00    +0.000 A 
ATOM     12  C   UNL     1       1.195   2.766  20.713  0.00  0.00    +0.000 A 
ATOM     13  C   UNL     1       2.574   2.986  20.745  0.00  0.00    +0.000 A 
ENDBRANCH   7   8
ENDBRANCH   6   7
ENDBRANCH   3   6
ENDBRANCH   1   2
BRANCH   1  14
ATOM     14  C   UNL     1       7.055   5.436  16.202  0.00  0.00    +0.000 C 
ATOM     15  O   UNL     1       7.927   4.618  16.491  0.00  0.00    +0.000 OA
ATOM     16  N   UNL     1       6.283   5.346  15.064  0.00  0.00    +0.000 N 
ATOM     17  H   UNL     1       5.564   6.043  14.899  0.00  0.00    +0.000 HD
BRANCH  16  18
ATOM     18  C   UNL     1       6.569   4.370  14.033  0.00  0.00    +0.000 C 
ATOM     19  C   UNL     1       5.320   3.852  13.332  0.00  0.00    +0.000 C 
ATOM     20  C   UNL     1       5.876   3.181  12.080  0.00  0.00    +0.000 C 
ATOM     21  C   UNL     1       7.142   3.962  11.720  0.00  0.00    +0.000 C 
ATOM     22  C   UNL     1       7.380   4.942  12.869  0.00  0.00    +0.000 C 
ENDBRANCH  16  18
ENDBRANCH   1  14
BRANCH   1  23
ATOM     23  C   UNL     1       7.889   7.218  17.827  0.00  0.00    +0.000 C 
BRANCH  23  24
ATOM     24  C   UNL     1       7.904   8.749  17.719  0.00  0.00    +0.000 C 
BRANCH  24  25
ATOM     25  C   UNL     1       8.790   9.391  18.794  0.00  0.00    +0.000 C 
BRANCH  25  26
ATOM     26  C   UNL     1       9.331  10.742  18.317  0.00  0.00    +0.000 C 
BRANCH  26  27
ATOM     27  C   UNL     1      10.160  11.453  19.388  0.00  0.00    +0.000 C 
BRANCH  27  28
ATOM     28  C   UNL     1      11.084  12.478  18.769  0.00  0.00    +0.000 C 
ATOM     29  O   UNL     1      11.706  13.333  19.385  0.00  0.00    +0.000 OA
BRANCH  28  31
ATOM     30  C   UNL     1      11.945  13.267  16.745  0.00  0.00    +0.000 C 
ATOM     31  O   UNL     1      11.127  12.308  17.418  0.00  0.00    +0.000 OA
ENDBRANCH  28  31
ENDBRANCH  27  28
ENDBRANCH  26  27
ENDBRANCH  25  26
ENDBRANCH  24  25
ENDBRANCH  23  24
ENDBRANCH   1  23
TORSDOF 13
ENDMDL
MODEL 2
REMARK VINA RESULT:      -8.2      1.551      2.038
REMARK  Name = 
REMARK  14 active torsions:
REMARK  status: ('A' for Active; 'I' for Inactive)
REMARK    1  A    between atoms: C_1  and  O_2
REMARK    2  A    between atoms: O_2  and  C_3
REMARK    3  A    between atoms: C_3  and  C_5
REMARK    4  A    between atoms: C_5  and  C_6
REMARK    5  A    between atoms: C_6  and  C_7
REMARK    6  A    between atoms: C_7  and  C_8
REMARK    7  A    between atoms: C_8  and  C_9
REMARK    8  A    between atoms: C_9  and  C_10
REMARK    9  A    between atoms: C_10  and  N_11
REMARK   10  A    between atoms: C_10  and  C_22
REMARK   11  A    between atoms: C_12  and  O_14
REMARK   12  A    between atoms: O_14  and  C_15
REMARK   13  A    between atoms: C_15  and  C_16
REMARK   14  A    between atoms: N_24  and  C_25
REMARK                            x       y       z     vdW  Elec       q    Type
REMARK                         _______ _______ _______ _____ _____    ______ ____
ROOT
ATOM      1  C   UNL     1       6.502   6.193  17.279  0.00  0.00    +0.000 C 
ENDROOT
BRANCH   1   2
ATOM      2  N   UNL     1       5.129   5.908  17.687  0.00  0.00    +0.000 N 
ATOM      3  C   UNL     1       4.113   6.799  17.528  0.00  0.00    +0.000 C 
ATOM      4  O   UNL     1       4.234   7.893  16.993  0.00  0.00    +0.000 OA
ATOM      5  H   UNL     1       4.875   4.977  17.991  0.00  0.00    +0.000 HD
BRANCH   3   6
ATOM      6  O   UNL     1       2.991   6.325  18.119  0.00  0.00    +0.000 OA
BRANCH   6   7
ATOM      7  C   UNL     1       2.666   4.962  17.809  0.00  0.00    +0.000 C 
BRANCH   7   8
ATOM      8  C   UNL     1       2.224   4.193  19.027  0.00  0.00    +0.000 A 
ATOM      9  C   UNL     1       2.567   4.623  20.318  0.00  0.00    +0.000 A 
ATOM     10  C   UNL     1       2.123   3.922  21.441  0.00  0.00    +0.000 A 
ATOM     11  C   UNL     1       1.336   2.782  21.286  0.00  0.00    +0.000 A 
ATOM     12  C   UNL     1       0.991   2.344  20.010  0.00  0.00    +0.000 A 
ATOM     13  C   UNL     1       1.435   3.043  18.886  0.00  0.00    +0.000 A 
ENDBRANCH   7   8
ENDBRANCH   6   7
ENDBRANCH   3   6
ENDBRANCH   1   2
BRANCH   1  14
ATOM     14  C   UNL     1       6.934   5.122  16.255  0.00  0.00    +0.000 C 
ATOM     15  O   UNL     1       7.894   4.378  16.446  0.00  0.00    +0.000 OA
ATOM     16  N   UNL     1       6.097   5.009  15.166  0.00  0.00    +0.000 N 
ATOM     17  H   UNL     1       5.308   5.641  15.082  0.00  0.00    +0.000 HD
BRANCH  16  18
ATOM     18  C   UNL     1       6.399   4.109  14.072  0.00  0.00    +0.000 C 
ATOM     19  C   UNL     1       5.168   3.695  13.275  0.00  0.00    +0.000 C 
ATOM     20  C   UNL     1       5.760   3.107  11.999  0.00  0.00    +0.000 C 
ATOM     21  C   UNL     1       7.068   3.866  11.761  0.00  0.00    +0.000 C 
ATOM     22  C   UNL     1       7.283   4.742  12.997  0.00  0.00    +0.000 C 
ENDBRANCH  16  18
ENDBRANCH   1  14
BRANCH   1  23
ATOM     23  C   UNL     1       7.424   6.211  18.510  0.00  0.00    +0.000 C 
BRANCH  23  24
ATOM     24  C   UNL     1       8.352   7.432  18.533  0.00  0.00    +0.000 C 
BRANCH  24  25
ATOM     25  C   UNL     1       7.711   8.653  17.862  0.00  0.00    +0.000 C 
BRANCH  25  26
ATOM     26  C   UNL     1       8.642   9.867  17.937  0.00  0.00    +0.000 C 
BRANCH  26  27
ATOM     27  C   UNL     1       9.255  10.052  19.326  0.00  0.00    +0.000 C 
BRANCH  27  28
ATOM     28  C   UNL     1       9.714  11.479  19.532  0.00  0.00    +0.000 C 
ATOM     29  O   UNL     1      10.617  11.830  20.280  0.00  0.00    +0.000 OA
BRANCH  28  31
ATOM     30  C   UNL     1       8.997  13.678  19.204  0.00  0.00    +0.000 C 
ATOM     31  O   UNL     1       8.973  12.320  18.758  0.00  0.00    +0.000 OA
ENDBRANCH  28  31
ENDBRANCH  27  28
ENDBRANCH  26  27
ENDBRANCH  25  26
ENDBRANCH  24  25
ENDBRANCH  23  24
ENDBRANCH   1  23
TORSDOF 13
ENDMDL
MODEL 3
REMARK VINA RESULT:      -8.0      2.040      8.207
REMARK  Name = 
REMARK  14 active torsions:
REMARK  status: ('A' for Active; 'I' for Inactive)
REMARK    1  A    between atoms: C_1  and  O_2
REMARK    2  A    between atoms: O_2  and  C_3
REMARK    3  A    between atoms: C_3  and  C_5
REMARK    4  A    between atoms: C_5  and  C_6
REMARK    5  A    between atoms: C_6  and  C_7
REMARK    6  A    between atoms: C_7  and  C_8
REMARK    7  A    between atoms: C_8  and  C_9
REMARK    8  A    between atoms: C_9  and  C_10
REMARK    9  A    between atoms: C_10  and  N_11
REMARK   10  A    between atoms: C_10  and  C_22
REMARK   11  A    between atoms: C_12  and  O_14
REMARK   12  A    between atoms: O_14  and  C_15
REMARK   13  A    between atoms: C_15  and  C_16
REMARK   14  A    between atoms: N_24  and  C_25
REMARK                            x       y       z     vdW  Elec       q    Type
REMARK                         _______ _______ _______ _____ _____    ______ ____
ROOT
ATOM      1  C   UNL     1       5.729   6.292  17.379  0.00  0.00    +0.000 C 
ENDROOT
BRANCH   1   2
ATOM      2  N   UNL     1       6.867   7.188  17.563  0.00  0.00    +0.000 N 
ATOM      3  C   UNL     1       7.839   6.965  18.489  0.00  0.00    +0.000 C 
ATOM      4  O   UNL     1       7.885   5.982  19.216  0.00  0.00    +0.000 OA
ATOM      5  H   UNL     1       7.024   7.946  16.911  0.00  0.00    +0.000 HD
BRANCH   3   6
ATOM      6  O   UNL     1       8.684   8.022  18.531  0.00  0.00    +0.000 OA
BRANCH   6   7
ATOM      7  C   UNL     1       8.168   9.240  17.974  0.00  0.00    +0.000 C 
BRANCH   7   8
ATOM      8  C   UNL     1       8.875  10.456  18.515  0.00  0.00    +0.000 A 
ATOM      9  C   UNL     1       9.592  10.399  19.718  0.00  0.00    +0.000 A 
ATOM     10  C   UNL     1      10.272  11.523  20.193  0.00  0.00    +0.000 A 
ATOM     11  C   UNL     1      10.239  12.715  19.472  0.00  0.00    +0.000 A 
ATOM     12  C   UNL     1       9.528  12.784  18.276  0.00  0.00    +0.000 A 
ATOM     13  C   UNL     1       8.846  11.662  17.801  0.00  0.00    +0.000 A 
ENDBRANCH   7   8
ENDBRANCH   6   7
ENDBRANCH   3   6
ENDBRANCH   1   2
BRANCH   1  14
ATOM     14  C   UNL     1       6.169   5.136  16.457  0.00  0.00    +0.000 C 
ATOM     15  O   UNL     1       6.428   4.013  16.888  0.00  0.00    +0.000 OA
ATOM     16  N   UNL     1       6.150   5.442  15.114  0.00  0.00    +0.000 N 
ATOM     17  H   UNL     1       5.904   6.384  14.826  0.00  0.00    +0.000 HD
BRANCH  16  18
ATOM     18  C   UNL     1       6.609   4.498  14.117  0.00  0.00    +0.000 C 
ATOM     19  C   UNL     1       5.474   3.834  13.348  0.00  0.00    +0.000 C 
ATOM     20  C   UNL     1       6.180   3.222  12.143  0.00  0.00    +0.000 C 
ATOM     21  C   UNL     1       7.369   4.140  11.850  0.00  0.00    +0.000 C 
ATOM     22  C   UNL     1       7.422   5.150  12.997  0.00  0.00    +0.000 C 
ENDBRANCH  16  18
ENDBRANCH   1  14
BRANCH   1  23
ATOM     23  C   UNL     1       4.537   7.068  16.794  0.00  0.00    +0.000 C 
BRANCH  23  24
ATOM     24  C   UNL     1       3.539   7.516  17.871  0.00  0.00    +0.000 C 
BRANCH  24  25
ATOM     25  C   UNL     1       2.548   6.404  18.232  0.00  0.00    +0.000 C 
BRANCH  25  26
ATOM     26  C   UNL     1       2.924   5.749  19.564  0.00  0.00    +0.000 C 
BRANCH  26  27
ATOM     27  C   UNL     1       1.710   5.497  20.458  0.00  0.00    +0.000 C 
BRANCH  27  28
ATOM     28  C   UNL     1       1.647   4.050  20.896  0.00  0.00    +0.000 C 
ATOM     29  O   UNL     1       2.400   3.522  21.703  0.00  0.00    +0.000 OA
BRANCH  28  31
ATOM     30  C   UNL     1       1.026   2.717  19.080  0.00  0.00    +0.000 C 
ATOM     31  O   UNL     1       0.622   3.417  20.259  0.00  0.00    +0.000 OA
ENDBRANCH  28  31
ENDBRANCH  27  28
ENDBRANCH  26  27
ENDBRANCH  25  26
ENDBRANCH  24  25
ENDBRANCH  23  24
ENDBRANCH   1  23
TORSDOF 13
ENDMDL
MODEL 4
REMARK VINA RESULT:      -8.0      1.123      1.521
REMARK  Name = 
REMARK  14 active torsions:
REMARK  status: ('A' for Active; 'I' for Inactive)
REMARK    1  A    between atoms: C_1  and  O_2
REMARK    2  A    between atoms: O_2  and  C_3
REMARK    3  A    between atoms: C_3  and  C_5
REMARK    4  A    between atoms: C_5  and  C_6
REMARK    5  A    between atoms: C_6  and  C_7
REMARK    6  A    between atoms: C_7  and  C_8
REMARK    7  A    between atoms: C_8  and  C_9
REMARK    8  A    between atoms: C_9  and  C_10
REMARK    9  A    between atoms: C_10  and  N_11
REMARK   10  A    between atoms: C_10  and  C_22
REMARK   11  A    between atoms: C_12  and  O_14
REMARK   12  A    between atoms: O_14  and  C_15
REMARK   13  A    between atoms: C_15  and  C_16
REMARK   14  A    between atoms: N_24  and  C_25
REMARK                            x       y       z     vdW  Elec       q    Type
REMARK                         _______ _______ _______ _____ _____    ______ ____
ROOT
ATOM      1  C   UNL     1       6.714   6.662  17.321  0.00  0.00    +0.000 C 
ENDROOT
BRANCH   1   2
ATOM      2  N   UNL     1       5.818   6.151  18.354  0.00  0.00    +0.000 N 
ATOM      3  C   UNL     1       4.493   6.459  18.399  0.00  0.00    +0.000 C 
ATOM      4  O   UNL     1       3.917   7.145  17.566  0.00  0.00    +0.000 OA
ATOM      5  H   UNL     1       6.144   5.445  19.002  0.00  0.00    +0.000 HD
BRANCH   3   6
ATOM      6  O   UNL     1       3.946   5.963  19.534  0.00  0.00    +0.000 OA
BRANCH   6   7
ATOM      7  C   UNL     1       2.531   5.727  19.479  0.00  0.00    +0.000 C 
BRANCH   7   8
ATOM      8  C   UNL     1       2.206   4.294  19.148  0.00  0.00    +0.000 A 
ATOM      9  C   UNL     1       0.981   3.725  19.524  0.00  0.00    +0.000 A 
ATOM     10  C   UNL     1       0.676   2.406  19.182  0.00  0.00    +0.000 A 
ATOM     11  C   UNL     1       1.594   1.641  18.464  0.00  0.00    +0.000 A 
ATOM     12  C   UNL     1       2.815   2.194  18.086  0.00  0.00    +0.000 A 
ATOM     13  C   UNL     1       3.122   3.513  18.429  0.00  0.00    +0.000 A 
ENDBRANCH   7   8
ENDBRANCH   6   7
ENDBRANCH   3   6
ENDBRANCH   1   2
BRANCH   1  14
ATOM     14  C   UNL     1       7.094   5.493  16.389  0.00  0.00    +0.000 C 
ATOM     15  O   UNL     1       7.886   4.614  16.726  0.00  0.00    +0.000 OA
ATOM     16  N   UNL     1       6.401   5.467  15.199  0.00  0.00    +0.000 N 
ATOM     17  H   UNL     1       5.743   6.213  14.994  0.00  0.00    +0.000 HD
BRANCH  16  18
ATOM     18  C   UNL     1       6.691   4.483  14.176  0.00  0.00    +0.000 C 
ATOM     19  C   UNL     1       5.442   3.911  13.518  0.00  0.00    +0.000 C 
ATOM     20  C   UNL     1       5.986   3.238  12.263  0.00  0.00    +0.000 C 
ATOM     21  C   UNL     1       7.215   4.054  11.856  0.00  0.00    +0.000 C 
ATOM     22  C   UNL     1       7.451   5.061  12.982  0.00  0.00    +0.000 C 
ENDBRANCH  16  18
ENDBRANCH   1  14
BRANCH   1  23
ATOM     23  C   UNL     1       7.953   7.304  17.969  0.00  0.00    +0.000 C 
BRANCH  23  24
ATOM     24  C   UNL     1       7.973   8.831  17.817  0.00  0.00    +0.000 C 
BRANCH  24  25
ATOM     25  C   UNL     1       8.891   9.497  18.849  0.00  0.00    +0.000 C 
BRANCH  25  26
ATOM     26  C   UNL     1       9.654  10.668  18.223  0.00  0.00    +0.000 C 
BRANCH  26  27
ATOM     27  C   UNL     1      10.503  11.428  19.243  0.00  0.00    +0.000 C 
BRANCH  27  28
ATOM     28  C   UNL     1      10.782  12.839  18.776  0.00  0.00    +0.000 C 
ATOM     29  O   UNL     1      11.103  13.773  19.498  0.00  0.00    +0.000 OA
BRANCH  28  31
ATOM     30  C   UNL     1      11.248  14.068  16.843  0.00  0.00    +0.000 C 
ATOM     31  O   UNL     1      10.626  12.920  17.424  0.00  0.00    +0.000 OA
ENDBRANCH  28  31
ENDBRANCH  27  28
ENDBRANCH  26  27
ENDBRANCH  25  26
ENDBRANCH  24  25
ENDBRANCH  23  24
ENDBRANCH   1  23
TORSDOF 13
ENDMDL
MODEL 5
REMARK VINA RESULT:      -8.0      2.366      9.353
REMARK  Name = 
REMARK  14 active torsions:
REMARK  status: ('A' for Active; 'I' for Inactive)
REMARK    1  A    between atoms: C_1  and  O_2
REMARK    2  A    between atoms: O_2  and  C_3
REMARK    3  A    between atoms: C_3  and  C_5
REMARK    4  A    between atoms: C_5  and  C_6
REMARK    5  A    between atoms: C_6  and  C_7
REMARK    6  A    between atoms: C_7  and  C_8
REMARK    7  A    between atoms: C_8  and  C_9
REMARK    8  A    between atoms: C_9  and  C_10
REMARK    9  A    between atoms: C_10  and  N_11
REMARK   10  A    between atoms: C_10  and  C_22
REMARK   11  A    between atoms: C_12  and  O_14
REMARK   12  A    between atoms: O_14  and  C_15
REMARK   13  A    between atoms: C_15  and  C_16
REMARK   14  A    between atoms: N_24  and  C_25
REMARK                            x       y       z     vdW  Elec       q    Type
REMARK                         _______ _______ _______ _____ _____    ______ ____
ROOT
ATOM      1  C   UNL     1       6.547   5.715  17.671  0.00  0.00    +0.000 C 
ENDROOT
BRANCH   1   2
ATOM      2  N   UNL     1       7.486   6.719  18.162  0.00  0.00    +0.000 N 
ATOM      3  C   UNL     1       7.439   8.023  17.776  0.00  0.00    +0.000 C 
ATOM      4  O   UNL     1       6.591   8.490  17.028  0.00  0.00    +0.000 OA
ATOM      5  H   UNL     1       8.129   6.487  18.908  0.00  0.00    +0.000 HD
BRANCH   3   6
ATOM      6  O   UNL     1       8.507   8.688  18.277  0.00  0.00    +0.000 OA
BRANCH   6   7
ATOM      7  C   UNL     1       8.692  10.018  17.771  0.00  0.00    +0.000 C 
BRANCH   7   8
ATOM      8  C   UNL     1       9.604  10.837  18.648  0.00  0.00    +0.000 A 
ATOM      9  C   UNL     1       9.393  10.920  20.032  0.00  0.00    +0.000 A 
ATOM     10  C   UNL     1      10.265  11.654  20.840  0.00  0.00    +0.000 A 
ATOM     11  C   UNL     1      11.353  12.315  20.273  0.00  0.00    +0.000 A 
ATOM     12  C   UNL     1      11.572  12.241  18.899  0.00  0.00    +0.000 A 
ATOM     13  C   UNL     1      10.700  11.509  18.090  0.00  0.00    +0.000 A 
ENDBRANCH   7   8
ENDBRANCH   6   7
ENDBRANCH   3   6
ENDBRANCH   1   2
BRANCH   1  14
ATOM     14  C   UNL     1       5.763   5.156  18.876  0.00  0.00    +0.000 C 
ATOM     15  O   UNL     1       6.318   4.791  19.911  0.00  0.00    +0.000 OA
ATOM     16  N   UNL     1       4.393   5.196  18.730  0.00  0.00    +0.000 N 
ATOM     17  H   UNL     1       4.000   5.531  17.856  0.00  0.00    +0.000 HD
BRANCH  16  18
ATOM     18  C   UNL     1       3.509   4.638  19.732  0.00  0.00    +0.000 C 
ATOM     19  C   UNL     1       2.138   5.301  19.763  0.00  0.00    +0.000 C 
ATOM     20  C   UNL     1       1.296   4.324  20.574  0.00  0.00    +0.000 C 
ATOM     21  C   UNL     1       1.884   2.939  20.295  0.00  0.00    +0.000 C 
ATOM     22  C   UNL     1       3.155   3.173  19.477  0.00  0.00    +0.000 C 
ENDBRANCH  16  18
ENDBRANCH   1  14
BRANCH   1  23
ATOM     23  C   UNL     1       7.306   4.607  16.919  0.00  0.00    +0.000 C 
BRANCH  23  24
ATOM     24  C   UNL     1       6.431   3.895  15.879  0.00  0.00    +0.000 C 
BRANCH  24  25
ATOM     25  C   UNL     1       6.524   4.558  14.500  0.00  0.00    +0.000 C 
BRANCH  25  26
ATOM     26  C   UNL     1       5.481   3.975  13.543  0.00  0.00    +0.000 C 
BRANCH  26  27
ATOM     27  C   UNL     1       6.091   3.517  12.218  0.00  0.00    +0.000 C 
BRANCH  27  28
ATOM     28  C   UNL     1       5.249   2.438  11.574  0.00  0.00    +0.000 C 
ATOM     29  O   UNL     1       5.659   1.344  11.210  0.00  0.00    +0.000 OA
BRANCH  28  31
ATOM     30  C   UNL     1       3.750   3.774  10.378  0.00  0.00    +0.000 C 
ATOM     31  O   UNL     1       3.959   2.863  11.460  0.00  0.00    +0.000 OA
ENDBRANCH  28  31
ENDBRANCH  27  28
ENDBRANCH  26  27
ENDBRANCH  25  26
ENDBRANCH  24  25
ENDBRANCH  23  24
ENDBRANCH   1  23
TORSDOF 13
ENDMDL
MODEL 6
REMARK VINA RESULT:      -8.0      2.042      8.296
REMARK  Name = 
REMARK  14 active torsions:
REMARK  status: ('A' for Active; 'I' for Inactive)
REMARK    1  A    between atoms: C_1  and  O_2
REMARK    2  A    between atoms: O_2  and  C_3
REMARK    3  A    between atoms: C_3  and  C_5
REMARK    4  A    between atoms: C_5  and  C_6
REMARK    5  A    between atoms: C_6  and  C_7
REMARK    6  A    between atoms: C_7  and  C_8
REMARK    7  A    between atoms: C_8  and  C_9
REMARK    8  A    between atoms: C_9  and  C_10
REMARK    9  A    between atoms: C_10  and  N_11
REMARK   10  A    between atoms: C_10  and  C_22
REMARK   11  A    between atoms: C_12  and  O_14
REMARK   12  A    between atoms: O_14  and  C_15
REMARK   13  A    between atoms: C_15  and  C_16
REMARK   14  A    between atoms: N_24  and  C_25
REMARK                            x       y       z     vdW  Elec       q    Type
REMARK                         _______ _______ _______ _____ _____    ______ ____
ROOT
ATOM      1  C   UNL     1       6.011   5.991  17.235  0.00  0.00    +0.000 C 
ENDROOT
BRANCH   1   2
ATOM      2  N   UNL     1       6.683   7.287  17.205  0.00  0.00    +0.000 N 
ATOM      3  C   UNL     1       7.736   7.591  18.012  0.00  0.00    +0.000 C 
ATOM      4  O   UNL     1       8.250   6.807  18.798  0.00  0.00    +0.000 OA
ATOM      5  H   UNL     1       6.453   7.958  16.483  0.00  0.00    +0.000 HD
BRANCH   3   6
ATOM      6  O   UNL     1       8.063   8.896  17.866  0.00  0.00    +0.000 OA
BRANCH   6   7
ATOM      7  C   UNL     1       9.025   9.395  18.807  0.00  0.00    +0.000 C 
BRANCH   7   8
ATOM      8  C   UNL     1       9.122  10.898  18.777  0.00  0.00    +0.000 A 
ATOM      9  C   UNL     1       9.782  11.600  19.797  0.00  0.00    +0.000 A 
ATOM     10  C   UNL     1       9.896  12.991  19.742  0.00  0.00    +0.000 A 
ATOM     11  C   UNL     1       9.348  13.695  18.670  0.00  0.00    +0.000 A 
ATOM     12  C   UNL     1       8.689  13.009  17.653  0.00  0.00    +0.000 A 
ATOM     13  C   UNL     1       8.573  11.618  17.707  0.00  0.00    +0.000 A 
ENDBRANCH   7   8
ENDBRANCH   6   7
ENDBRANCH   3   6
ENDBRANCH   1   2
BRANCH   1  14
ATOM     14  C   UNL     1       6.682   5.074  16.191  0.00  0.00    +0.000 C 
ATOM     15  O   UNL     1       7.779   4.550  16.383  0.00  0.00    +0.000 OA
ATOM     16  N   UNL     1       5.909   4.818  15.080  0.00  0.00    +0.000 N 
ATOM     17  H   UNL     1       5.002   5.266  14.997  0.00  0.00    +0.000 HD
BRANCH  16  18
ATOM     18  C   UNL     1       6.417   4.042  13.968  0.00  0.00    +0.000 C 
ATOM     19  C   UNL     1       5.319   3.500  13.061  0.00  0.00    +0.000 C 
ATOM     20  C   UNL     1       6.078   3.086  11.805  0.00  0.00    +0.000 C 
ATOM     21  C   UNL     1       7.267   4.044  11.705  0.00  0.00    +0.000 C 
ATOM     22  C   UNL     1       7.264   4.864  12.996  0.00  0.00    +0.000 C 
ENDBRANCH  16  18
ENDBRANCH   1  14
BRANCH   1  23
ATOM     23  C   UNL     1       4.509   6.170  16.958  0.00  0.00    +0.000 C 
BRANCH  23  24
ATOM     24  C   UNL     1       3.946   7.458  17.572  0.00  0.00    +0.000 C 
BRANCH  24  25
ATOM     25  C   UNL     1       2.798   7.175  18.548  0.00  0.00    +0.000 C 
BRANCH  25  26
ATOM     26  C   UNL     1       3.122   5.969  19.435  0.00  0.00    +0.000 C 
BRANCH  26  27
ATOM     27  C   UNL     1       1.878   5.374  20.095  0.00  0.00    +0.000 C 
BRANCH  27  28
ATOM     28  C   UNL     1       1.572   3.999  19.542  0.00  0.00    +0.000 C 
ATOM     29  O   UNL     1       1.885   3.599  18.429  0.00  0.00    +0.000 OA
BRANCH  28  31
ATOM     30  C   UNL     1       1.726   2.770  21.523  0.00  0.00    +0.000 C 
ATOM     31  O   UNL     1       0.896   3.266  20.470  0.00  0.00    +0.000 OA
ENDBRANCH  28  31
ENDBRANCH  27  28
ENDBRANCH  26  27
ENDBRANCH  25  26
ENDBRANCH  24  25
ENDBRANCH  23  24
ENDBRANCH   1  23
TORSDOF 13
ENDMDL
MODEL 7
REMARK VINA RESULT:      -7.9      2.479      2.651
REMARK  Name = 
REMARK  14 active torsions:
REMARK  status: ('A' for Active; 'I' for Inactive)
REMARK    1  A    between atoms: C_1  and  O_2
REMARK    2  A    between atoms: O_2  and  C_3
REMARK    3  A    between atoms: C_3  and  C_5
REMARK    4  A    between atoms: C_5  and  C_6
REMARK    5  A    between atoms: C_6  and  C_7
REMARK    6  A    between atoms: C_7  and  C_8
REMARK    7  A    between atoms: C_8  and  C_9
REMARK    8  A    between atoms: C_9  and  C_10
REMARK    9  A    between atoms: C_10  and  N_11
REMARK   10  A    between atoms: C_10  and  C_22
REMARK   11  A    between atoms: C_12  and  O_14
REMARK   12  A    between atoms: O_14  and  C_15
REMARK   13  A    between atoms: C_15  and  C_16
REMARK   14  A    between atoms: N_24  and  C_25
REMARK                            x       y       z     vdW  Elec       q    Type
REMARK                         _______ _______ _______ _____ _____    ______ ____
ROOT
ATOM      1  C   UNL     1       6.724   6.655  17.369  0.00  0.00    +0.000 C 
ENDROOT
BRANCH   1   2
ATOM      2  N   UNL     1       5.887   6.132  18.444  0.00  0.00    +0.000 N 
ATOM      3  C   UNL     1       4.692   5.520  18.217  0.00  0.00    +0.000 C 
ATOM      4  O   UNL     1       4.228   5.307  17.106  0.00  0.00    +0.000 OA
ATOM      5  H   UNL     1       6.241   6.103  19.392  0.00  0.00    +0.000 HD
BRANCH   3   6
ATOM      6  O   UNL     1       4.077   5.266  19.396  0.00  0.00    +0.000 OA
BRANCH   6   7
ATOM      7  C   UNL     1       2.645   5.346  19.369  0.00  0.00    +0.000 C 
BRANCH   7   8
ATOM      8  C   UNL     1       2.152   6.762  19.522  0.00  0.00    +0.000 A 
ATOM      9  C   UNL     1       2.161   7.652  18.437  0.00  0.00    +0.000 A 
ATOM     10  C   UNL     1       1.671   8.951  18.581  0.00  0.00    +0.000 A 
ATOM     11  C   UNL     1       1.171   9.377  19.810  0.00  0.00    +0.000 A 
ATOM     12  C   UNL     1       1.159   8.503  20.896  0.00  0.00    +0.000 A 
ATOM     13  C   UNL     1       1.650   7.204  20.753  0.00  0.00    +0.000 A 
ENDBRANCH   7   8
ENDBRANCH   6   7
ENDBRANCH   3   6
ENDBRANCH   1   2
BRANCH   1  14
ATOM     14  C   UNL     1       7.112   5.483  16.444  0.00  0.00    +0.000 C 
ATOM     15  O   UNL     1       7.848   4.569  16.813  0.00  0.00    +0.000 OA
ATOM     16  N   UNL     1       6.487   5.498  15.215  0.00  0.00    +0.000 N 
ATOM     17  H   UNL     1       5.872   6.272  14.984  0.00  0.00    +0.000 HD
BRANCH  16  18
ATOM     18  C   UNL     1       6.798   4.516  14.197  0.00  0.00    +0.000 C 
ATOM     19  C   UNL     1       5.561   3.882  13.575  0.00  0.00    +0.000 C 
ATOM     20  C   UNL     1       6.105   3.218  12.315  0.00  0.00    +0.000 C 
ATOM     21  C   UNL     1       7.287   4.082  11.870  0.00  0.00    +0.000 C 
ATOM     22  C   UNL     1       7.504   5.113  12.979  0.00  0.00    +0.000 C 
ENDBRANCH  16  18
ENDBRANCH   1  14
BRANCH   1  23
ATOM     23  C   UNL     1       7.962   7.353  17.957  0.00  0.00    +0.000 C 
BRANCH  23  24
ATOM     24  C   UNL     1       7.933   8.874  17.757  0.00  0.00    +0.000 C 
BRANCH  24  25
ATOM     25  C   UNL     1       8.921   9.594  18.682  0.00  0.00    +0.000 C 
BRANCH  25  26
ATOM     26  C   UNL     1       9.073  11.063  18.278  0.00  0.00    +0.000 C 
BRANCH  26  27
ATOM     27  C   UNL     1      10.523  11.441  17.970  0.00  0.00    +0.000 C 
BRANCH  27  28
ATOM     28  C   UNL     1      11.125  12.253  19.095  0.00  0.00    +0.000 C 
ATOM     29  O   UNL     1      11.386  11.829  20.213  0.00  0.00    +0.000 OA
BRANCH  28  31
ATOM     30  C   UNL     1      11.677  14.431  19.739  0.00  0.00    +0.000 C 
ATOM     31  O   UNL     1      11.339  13.533  18.679  0.00  0.00    +0.000 OA
ENDBRANCH  28  31
ENDBRANCH  27  28
ENDBRANCH  26  27
ENDBRANCH  25  26
ENDBRANCH  24  25
ENDBRANCH  23  24
ENDBRANCH   1  23
TORSDOF 13
ENDMDL
MODEL 8
REMARK VINA RESULT:      -7.8      3.230      8.015
REMARK  Name = 
REMARK  14 active torsions:
REMARK  status: ('A' for Active; 'I' for Inactive)
REMARK    1  A    between atoms: C_1  and  O_2
REMARK    2  A    between atoms: O_2  and  C_3
REMARK    3  A    between atoms: C_3  and  C_5
REMARK    4  A    between atoms: C_5  and  C_6
REMARK    5  A    between atoms: C_6  and  C_7
REMARK    6  A    between atoms: C_7  and  C_8
REMARK    7  A    between atoms: C_8  and  C_9
REMARK    8  A    between atoms: C_9  and  C_10
REMARK    9  A    between atoms: C_10  and  N_11
REMARK   10  A    between atoms: C_10  and  C_22
REMARK   11  A    between atoms: C_12  and  O_14
REMARK   12  A    between atoms: O_14  and  C_15
REMARK   13  A    between atoms: C_15  and  C_16
REMARK   14  A    between atoms: N_24  and  C_25
REMARK                            x       y       z     vdW  Elec       q    Type
REMARK                         _______ _______ _______ _____ _____    ______ ____
ROOT
ATOM      1  C   UNL     1       6.245   6.489  17.438  0.00  0.00    +0.000 C 
ENDROOT
BRANCH   1   2
ATOM      2  N   UNL     1       7.004   7.717  17.217  0.00  0.00    +0.000 N 
ATOM      3  C   UNL     1       8.069   8.074  17.986  0.00  0.00    +0.000 C 
ATOM      4  O   UNL     1       8.521   7.391  18.894  0.00  0.00    +0.000 OA
ATOM      5  H   UNL     1       6.826   8.280  16.395  0.00  0.00    +0.000 HD
BRANCH   3   6
ATOM      6  O   UNL     1       8.485   9.316  17.643  0.00  0.00    +0.000 OA
BRANCH   6   7
ATOM      7  C   UNL     1       8.971  10.120  18.728  0.00  0.00    +0.000 C 
BRANCH   7   8
ATOM      8  C   UNL     1       9.564  11.420  18.250  0.00  0.00    +0.000 A 
ATOM      9  C   UNL     1       8.832  12.614  18.312  0.00  0.00    +0.000 A 
ATOM     10  C   UNL     1       9.405  13.819  17.899  0.00  0.00    +0.000 A 
ATOM     11  C   UNL     1      10.712  13.842  17.416  0.00  0.00    +0.000 A 
ATOM     12  C   UNL     1      11.448  12.662  17.348  0.00  0.00    +0.000 A 
ATOM     13  C   UNL     1      10.877  11.455  17.759  0.00  0.00    +0.000 A 
ENDBRANCH   7   8
ENDBRANCH   6   7
ENDBRANCH   3   6
ENDBRANCH   1   2
BRANCH   1  14
ATOM     14  C   UNL     1       6.791   5.406  16.486  0.00  0.00    +0.000 C 
ATOM     15  O   UNL     1       7.570   4.531  16.861  0.00  0.00    +0.000 OA
ATOM     16  N   UNL     1       6.257   5.444  15.215  0.00  0.00    +0.000 N 
ATOM     17  H   UNL     1       5.600   6.181  14.979  0.00  0.00    +0.000 HD
BRANCH  16  18
ATOM     18  C   UNL     1       6.718   4.550  14.175  0.00  0.00    +0.000 C 
ATOM     19  C   UNL     1       5.584   3.843  13.442  0.00  0.00    +0.000 C 
ATOM     20  C   UNL     1       6.264   3.298  12.191  0.00  0.00    +0.000 C 
ATOM     21  C   UNL     1       7.387   4.286  11.867  0.00  0.00    +0.000 C 
ATOM     22  C   UNL     1       7.440   5.270  13.036  0.00  0.00    +0.000 C 
ENDBRANCH  16  18
ENDBRANCH   1  14
BRANCH   1  23
ATOM     23  C   UNL     1       4.746   6.749  17.209  0.00  0.00    +0.000 C 
BRANCH  23  24
ATOM     24  C   UNL     1       3.858   5.990  18.204  0.00  0.00    +0.000 C 
BRANCH  24  25
ATOM     25  C   UNL     1       2.376   6.348  18.040  0.00  0.00    +0.000 C 
BRANCH  25  26
ATOM     26  C   UNL     1       2.151   7.846  18.262  0.00  0.00    +0.000 C 
BRANCH  26  27
ATOM     27  C   UNL     1       1.855   8.185  19.724  0.00  0.00    +0.000 C 
BRANCH  27  28
ATOM     28  C   UNL     1       0.895   9.349  19.829  0.00  0.00    +0.000 C 
ATOM     29  O   UNL     1      -0.127   9.364  20.502  0.00  0.00    +0.000 OA
BRANCH  28  31
ATOM     30  C   UNL     1       0.355  11.402  18.852  0.00  0.00    +0.000 C 
ATOM     31  O   UNL     1       1.338  10.386  19.064  0.00  0.00    +0.000 OA
ENDBRANCH  28  31
ENDBRANCH  27  28
ENDBRANCH  26  27
ENDBRANCH  25  26
ENDBRANCH  24  25
ENDBRANCH  23  24
ENDBRANCH   1  23
TORSDOF 13
ENDMDL
MODEL 9
REMARK VINA RESULT:      -7.7      2.050      8.507
REMARK  Name = 
REMARK  14 active torsions:
REMARK  status: ('A' for Active; 'I' for Inactive)
REMARK    1  A    between atoms: C_1  and  O_2
REMARK    2  A    between atoms: O_2  and  C_3
REMARK    3  A    between atoms: C_3  and  C_5
REMARK    4  A    between atoms: C_5  and  C_6
REMARK    5  A    between atoms: C_6  and  C_7
REMARK    6  A    between atoms: C_7  and  C_8
REMARK    7  A    between atoms: C_8  and  C_9
REMARK    8  A    between atoms: C_9  and  C_10
REMARK    9  A    between atoms: C_10  and  N_11
REMARK   10  A    between atoms: C_10  and  C_22
REMARK   11  A    between atoms: C_12  and  O_14
REMARK   12  A    between atoms: O_14  and  C_15
REMARK   13  A    between atoms: C_15  and  C_16
REMARK   14  A    between atoms: N_24  and  C_25
REMARK                            x       y       z     vdW  Elec       q    Type
REMARK                         _______ _______ _______ _____ _____    ______ ____
ROOT
ATOM      1  C   UNL     1       5.658   6.005  17.781  0.00  0.00    +0.000 C 
ENDROOT
BRANCH   1   2
ATOM      2  N   UNL     1       6.624   6.981  18.277  0.00  0.00    +0.000 N 
ATOM      3  C   UNL     1       7.607   7.508  17.497  0.00  0.00    +0.000 C 
ATOM      4  O   UNL     1       7.750   7.259  16.308  0.00  0.00    +0.000 OA
ATOM      5  H   UNL     1       6.506   7.386  19.197  0.00  0.00    +0.000 HD
BRANCH   3   6
ATOM      6  O   UNL     1       8.432   8.272  18.252  0.00  0.00    +0.000 OA
BRANCH   6   7
ATOM      7  C   UNL     1       8.234   9.688  18.133  0.00  0.00    +0.000 C 
BRANCH   7   8
ATOM      8  C   UNL     1       9.353  10.473  18.768  0.00  0.00    +0.000 A 
ATOM      9  C   UNL     1      10.415  10.969  17.999  0.00  0.00    +0.000 A 
ATOM     10  C   UNL     1      11.429  11.725  18.592  0.00  0.00    +0.000 A 
ATOM     11  C   UNL     1      11.393  11.988  19.960  0.00  0.00    +0.000 A 
ATOM     12  C   UNL     1      10.345  11.498  20.736  0.00  0.00    +0.000 A 
ATOM     13  C   UNL     1       9.331  10.741  20.144  0.00  0.00    +0.000 A 
ENDBRANCH   7   8
ENDBRANCH   6   7
ENDBRANCH   3   6
ENDBRANCH   1   2
BRANCH   1  14
ATOM     14  C   UNL     1       6.385   5.062  16.801  0.00  0.00    +0.000 C 
ATOM     15  O   UNL     1       7.279   4.298  17.163  0.00  0.00    +0.000 OA
ATOM     16  N   UNL     1       5.882   5.079  15.518  0.00  0.00    +0.000 N 
ATOM     17  H   UNL     1       5.126   5.718  15.293  0.00  0.00    +0.000 HD
BRANCH  16  18
ATOM     18  C   UNL     1       6.498   4.313  14.455  0.00  0.00    +0.000 C 
ATOM     19  C   UNL     1       5.490   3.711  13.484  0.00  0.00    +0.000 C 
ATOM     20  C   UNL     1       6.350   3.317  12.288  0.00  0.00    +0.000 C 
ATOM     21  C   UNL     1       7.500   4.326  12.255  0.00  0.00    +0.000 C 
ATOM     22  C   UNL     1       7.373   5.160  13.530  0.00  0.00    +0.000 C 
ENDBRANCH  16  18
ENDBRANCH   1  14
BRANCH   1  23
ATOM     23  C   UNL     1       4.477   6.728  17.111  0.00  0.00    +0.000 C 
BRANCH  23  24
ATOM     24  C   UNL     1       3.214   6.728  17.983  0.00  0.00    +0.000 C 
BRANCH  24  25
ATOM     25  C   UNL     1       2.915   5.338  18.558  0.00  0.00    +0.000 C 
BRANCH  25  26
ATOM     26  C   UNL     1       1.708   4.708  17.858  0.00  0.00    +0.000 C 
BRANCH  26  27
ATOM     27  C   UNL     1       1.772   3.180  17.840  0.00  0.00    +0.000 C 
BRANCH  27  28
ATOM     28  C   UNL     1       1.611   2.612  19.233  0.00  0.00    +0.000 C 
ATOM     29  O   UNL     1       0.692   2.867  19.999  0.00  0.00    +0.000 OA
BRANCH  28  31
ATOM     30  C   UNL     1       3.540   1.577  18.414  0.00  0.00    +0.000 C 
ATOM     31  O   UNL     1       2.644   1.768  19.511  0.00  0.00    +0.000 OA
ENDBRANCH  28  31
ENDBRANCH  27  28
ENDBRANCH  26  27
ENDBRANCH  25  26
ENDBRANCH  24  25
ENDBRANCH  23  24
ENDBRANCH   1  23
TORSDOF 13
ENDMDL
