MODEL 1
REMARK VINA RESULT:      -9.0      0.000      0.000
REMARK  Name = 
REMARK  9 active torsions:
REMARK  status: ('A' for Active; 'I' for Inactive)
REMARK    1  A    between atoms: C_1  and  C_2
REMARK    2  A    between atoms: C_2  and  C_3
REMARK    3  A    between atoms: C_2  and  C_4
REMARK    4  A    between atoms: C_7  and  N_8
REMARK    5  A    between atoms: C_12  and  C_14
REMARK    6  A    between atoms: C_19  and  N_20
REMARK    7  A    between atoms: C_21  and  C_23
REMARK    8  A    between atoms: C_28  and  C_29
REMARK    9  A    between atoms: C_29  and  O_31
REMARK                            x       y       z     vdW  Elec       q    Type
REMARK                         _______ _______ _______ _____ _____    ______ ____
ROOT
ATOM      1  C   UNL     1       2.174   5.168  19.929  0.00  0.00    +0.000 A 
ATOM      2  C   UNL     1       0.987   4.612  20.430  0.00  0.00    +0.000 A 
ATOM      3  C   UNL     1       0.990   3.394  21.107  0.00  0.00    +0.000 A 
ATOM      4  C   UNL     1       2.172   2.676  21.224  0.00  0.00    +0.000 A 
ATOM      5  C   UNL     1       3.341   3.156  20.633  0.00  0.00    +0.000 A 
ATOM      6  C   UNL     1       3.359   4.385  19.955  0.00  0.00    +0.000 A 
ENDROOT
BRANCH   1  11
ATOM      7  N   UNL     1       0.004   9.675  20.839  0.00  0.00    +0.000 N 
ATOM      8  C   UNL     1       0.308   9.533  19.401  0.00  0.00    +0.000 C 
ATOM      9  C   UNL     1       1.695   8.920  19.163  0.00  0.00    +0.000 C 
ATOM     10  N   UNL     1       1.853   7.686  19.937  0.00  0.00    +0.000 N 
ATOM     11  C   UNL     1       2.161   6.510  19.254  0.00  0.00    +0.000 C 
ATOM     12  O   UNL     1       2.448   6.525  18.057  0.00  0.00    +0.000 OA
ATOM     13  C   UNL     1       1.716   7.927  21.383  0.00  0.00    +0.000 C 
ATOM     14  C   UNL     1       0.336   8.543  21.727  0.00  0.00    +0.000 C 
BRANCH   7  18
ATOM     15  C   UNL     1      -0.689  13.509  22.479  0.00  0.00    +0.000 A 
ATOM     16  C   UNL     1       0.220  13.335  21.431  0.00  0.00    +0.000 A 
ATOM     17  C   UNL     1       0.454  12.059  20.900  0.00  0.00    +0.000 A 
ATOM     18  C   UNL     1      -0.201  10.923  21.402  0.00  0.00    +0.000 A 
ATOM     19  C   UNL     1      -1.065  11.108  22.482  0.00  0.00    +0.000 A 
ATOM     20  C   UNL     1      -1.305  12.372  23.016  0.00  0.00    +0.000 A 
BRANCH  15  22
ATOM     21  C   UNL     1      -1.330  14.848  24.487  0.00  0.00    +0.000 C 
ATOM     22  C   UNL     1      -1.053  14.894  22.980  0.00  0.00    +0.000 C 
ATOM     23  C   UNL     1       0.037  15.920  22.658  0.00  0.00    +0.000 C 
ENDBRANCH  15  22
ENDBRANCH   7  18
ENDBRANCH   1  11
BRANCH   6  24
ATOM     24  N   UNL     1       4.535   4.842  19.301  0.00  0.00    +0.000 N 
ATOM     25  C   UNL     1       5.117   4.292  18.180  0.00  0.00    +0.000 C 
ATOM     26  O   UNL     1       4.713   3.301  17.573  0.00  0.00    +0.000 OA
ATOM     27  H   UNL     1       4.795   5.804  19.533  0.00  0.00    +0.000 HD
BRANCH  25  28
ATOM     28  C   UNL     1       6.450   4.894  17.745  0.00  0.00    +0.000 C 
ATOM     29  C   UNL     1       7.213   4.187  16.619  0.00  0.00    +0.000 C 
ATOM     30  C   UNL     1       6.945   4.724  15.246  0.00  0.00    +0.000 C 
ATOM     31  C   UNL     1       6.223   5.827  15.011  0.00  0.00    +0.000 C 
ATOM     32  C   UNL     1       5.631   6.669  16.100  0.00  0.00    +0.000 C 
ATOM     33  C   UNL     1       6.211   6.393  17.498  0.00  0.00    +0.000 C 
BRANCH  33  34
ATOM     34  C   UNL     1       7.477   7.183  17.775  0.00  0.00    +0.000 C 
ATOM     35  O   UNL     1       7.861   8.149  17.133  0.00  0.00    +0.000 OA
BRANCH  34  36
ATOM     36  O   UNL     1       8.157   6.739  18.859  0.00  0.00    +0.000 OA
ATOM     37  H   UNL     1       8.674   7.421  19.332  0.00  0.00    +0.000 HD
ENDBRANCH  34  36
ENDBRANCH  33  34
ENDBRANCH  25  28
ENDBRANCH   6  24
TORSDOF 7
ENDMDL
MODEL 2
REMARK VINA RESULT:      -9.0      0.238      1.027
REMARK  Name = 
REMARK  9 active torsions:
REMARK  status: ('A' for Active; 'I' for Inactive)
REMARK    1  A    between atoms: C_1  and  C_2
REMARK    2  A    between atoms: C_2  and  C_3
REMARK    3  A    between atoms: C_2  and  C_4
REMARK    4  A    between atoms: C_7  and  N_8
REMARK    5  A    between atoms: C_12  and  C_14
REMARK    6  A    between atoms: C_19  and  N_20
REMARK    7  A    between atoms: C_21  and  C_23
REMARK    8  A    between atoms: C_28  and  C_29
REMARK    9  A    between atoms: C_29  and  O_31
REMARK                            x       y       z     vdW  Elec       q    Type
REMARK                         _______ _______ _______ _____ _____    ______ ____
ROOT
ATOM      1  C   UNL     1       2.191   5.115  19.922  0.00  0.00    +0.000 A 
ATOM      2  C   UNL     1       1.009   4.551  20.424  0.00  0.00    +0.000 A 
ATOM      3  C   UNL     1       1.027   3.353  21.135  0.00  0.00    +0.000 A 
ATOM      4  C   UNL     1       2.220   2.662  21.288  0.00  0.00    +0.000 A 
ATOM      5  C   UNL     1       3.387   3.147  20.696  0.00  0.00    +0.000 A 
ATOM      6  C   UNL     1       3.389   4.357  19.984  0.00  0.00    +0.000 A 
ENDROOT
BRANCH   1  11
ATOM      7  N   UNL     1       0.017   9.639  20.738  0.00  0.00    +0.000 N 
ATOM      8  C   UNL     1       0.296   9.456  19.300  0.00  0.00    +0.000 C 
ATOM      9  C   UNL     1       1.682   8.842  19.056  0.00  0.00    +0.000 C 
ATOM     10  N   UNL     1       1.859   7.631  19.862  0.00  0.00    +0.000 N 
ATOM     11  C   UNL     1       2.160   6.437  19.208  0.00  0.00    +0.000 C 
ATOM     12  O   UNL     1       2.427   6.419  18.007  0.00  0.00    +0.000 OA
ATOM     13  C   UNL     1       1.745   7.913  21.303  0.00  0.00    +0.000 C 
ATOM     14  C   UNL     1       0.368   8.534  21.653  0.00  0.00    +0.000 C 
BRANCH   7  18
ATOM     15  C   UNL     1      -0.530  13.472  22.434  0.00  0.00    +0.000 A 
ATOM     16  C   UNL     1      -1.218  12.364  22.939  0.00  0.00    +0.000 A 
ATOM     17  C   UNL     1      -1.040  11.098  22.364  0.00  0.00    +0.000 A 
ATOM     18  C   UNL     1      -0.185  10.901  21.268  0.00  0.00    +0.000 A 
ATOM     19  C   UNL     1       0.452  12.027  20.745  0.00  0.00    +0.000 A 
ATOM     20  C   UNL     1       0.283  13.290  21.310  0.00  0.00    +0.000 A 
BRANCH  15  22
ATOM     21  C   UNL     1      -1.002  15.902  22.106  0.00  0.00    +0.000 C 
ATOM     22  C   UNL     1      -0.608  14.822  23.121  0.00  0.00    +0.000 C 
ATOM     23  C   UNL     1      -1.581  14.805  24.303  0.00  0.00    +0.000 C 
ENDBRANCH  15  22
ENDBRANCH   7  18
ENDBRANCH   1  11
BRANCH   6  24
ATOM     24  N   UNL     1       4.565   4.819  19.332  0.00  0.00    +0.000 N 
ATOM     25  C   UNL     1       5.102   4.326  18.163  0.00  0.00    +0.000 C 
ATOM     26  O   UNL     1       4.651   3.391  17.502  0.00  0.00    +0.000 OA
ATOM     27  H   UNL     1       4.863   5.754  19.620  0.00  0.00    +0.000 HD
BRANCH  25  28
ATOM     28  C   UNL     1       6.444   4.913  17.734  0.00  0.00    +0.000 C 
ATOM     29  C   UNL     1       7.193   4.211  16.596  0.00  0.00    +0.000 C 
ATOM     30  C   UNL     1       6.931   4.773  15.233  0.00  0.00    +0.000 C 
ATOM     31  C   UNL     1       6.228   5.891  15.016  0.00  0.00    +0.000 C 
ATOM     32  C   UNL     1       5.652   6.727  16.119  0.00  0.00    +0.000 C 
ATOM     33  C   UNL     1       6.229   6.419  17.511  0.00  0.00    +0.000 C 
BRANCH  33  34
ATOM     34  C   UNL     1       7.509   7.184  17.797  0.00  0.00    +0.000 C 
ATOM     35  O   UNL     1       7.919   8.138  17.154  0.00  0.00    +0.000 OA
BRANCH  34  36
ATOM     36  O   UNL     1       8.167   6.732  18.891  0.00  0.00    +0.000 OA
ATOM     37  H   UNL     1       8.574   5.848  18.793  0.00  0.00    +0.000 HD
ENDBRANCH  34  36
ENDBRANCH  33  34
ENDBRANCH  25  28
ENDBRANCH   6  24
TORSDOF 7
ENDMDL
MODEL 3
REMARK VINA RESULT:      -8.7      1.361      2.249
REMARK  Name = 
REMARK  9 active torsions:
REMARK  status: ('A' for Active; 'I' for Inactive)
REMARK    1  A    between atoms: C_1  and  C_2
REMARK    2  A    between atoms: C_2  and  C_3
REMARK    3  A    between atoms: C_2  and  C_4
REMARK    4  A    between atoms: C_7  and  N_8
REMARK    5  A    between atoms: C_12  and  C_14
REMARK    6  A    between atoms: C_19  and  N_20
REMARK    7  A    between atoms: C_21  and  C_23
REMARK    8  A    between atoms: C_28  and  C_29
REMARK    9  A    between atoms: C_29  and  O_31
REMARK                            x       y       z     vdW  Elec       q    Type
REMARK                         _______ _______ _______ _____ _____    ______ ____
ROOT
ATOM      1  C   UNL     1       2.156   5.860  19.805  0.00  0.00    +0.000 A 
ATOM      2  C   UNL     1       1.232   5.322  20.713  0.00  0.00    +0.000 A 
ATOM      3  C   UNL     1       1.440   4.076  21.301  0.00  0.00    +0.000 A 
ATOM      4  C   UNL     1       2.540   3.316  20.930  0.00  0.00    +0.000 A 
ATOM      5  C   UNL     1       3.409   3.783  19.943  0.00  0.00    +0.000 A 
ATOM      6  C   UNL     1       3.220   5.039  19.346  0.00  0.00    +0.000 A 
ENDROOT
BRANCH   1  11
ATOM      7  N   UNL     1      -0.412  10.030  21.173  0.00  0.00    +0.000 N 
ATOM      8  C   UNL     1      -0.209  10.009  19.710  0.00  0.00    +0.000 C 
ATOM      9  C   UNL     1       1.214   9.572  19.332  0.00  0.00    +0.000 C 
ATOM     10  N   UNL     1       1.565   8.320  20.007  0.00  0.00    +0.000 N 
ATOM     11  C   UNL     1       1.944   7.230  19.225  0.00  0.00    +0.000 C 
ATOM     12  O   UNL     1       2.132   7.349  18.015  0.00  0.00    +0.000 OA
ATOM     13  C   UNL     1       1.517   8.457  21.472  0.00  0.00    +0.000 C 
ATOM     14  C   UNL     1       0.110   8.892  21.956  0.00  0.00    +0.000 C 
BRANCH   7  18
ATOM     15  C   UNL     1      -1.250  13.605  23.268  0.00  0.00    +0.000 A 
ATOM     16  C   UNL     1      -1.947  12.427  23.558  0.00  0.00    +0.000 A 
ATOM     17  C   UNL     1      -1.672  11.249  22.851  0.00  0.00    +0.000 A 
ATOM     18  C   UNL     1      -0.706  11.211  21.832  0.00  0.00    +0.000 A 
ATOM     19  C   UNL     1      -0.058  12.407  21.521  0.00  0.00    +0.000 A 
ATOM     20  C   UNL     1      -0.324  13.583  22.219  0.00  0.00    +0.000 A 
BRANCH  15  22
ATOM     21  C   UNL     1      -1.494  16.089  23.197  0.00  0.00    +0.000 C 
ATOM     22  C   UNL     1      -1.440  14.854  24.106  0.00  0.00    +0.000 C 
ATOM     23  C   UNL     1      -2.693  14.769  24.982  0.00  0.00    +0.000 C 
ENDBRANCH  15  22
ENDBRANCH   7  18
ENDBRANCH   1  11
BRANCH   6  24
ATOM     24  N   UNL     1       4.070   5.486  18.299  0.00  0.00    +0.000 N 
ATOM     25  C   UNL     1       4.199   4.921  17.049  0.00  0.00    +0.000 C 
ATOM     26  O   UNL     1       3.603   3.923  16.645  0.00  0.00    +0.000 OA
ATOM     27  H   UNL     1       4.394   6.450  18.406  0.00  0.00    +0.000 HD
BRANCH  25  28
ATOM     28  C   UNL     1       5.275   5.516  16.145  0.00  0.00    +0.000 C 
ATOM     29  C   UNL     1       5.778   6.926  16.474  0.00  0.00    +0.000 C 
ATOM     30  C   UNL     1       7.001   6.970  17.336  0.00  0.00    +0.000 C 
ATOM     31  C   UNL     1       7.706   5.884  17.677  0.00  0.00    +0.000 C 
ATOM     32  C   UNL     1       7.369   4.503  17.203  0.00  0.00    +0.000 C 
ATOM     33  C   UNL     1       6.391   4.464  16.016  0.00  0.00    +0.000 C 
BRANCH  33  34
ATOM     34  C   UNL     1       7.089   4.596  14.675  0.00  0.00    +0.000 C 
ATOM     35  O   UNL     1       7.935   5.434  14.400  0.00  0.00    +0.000 OA
BRANCH  34  36
ATOM     36  O   UNL     1       6.715   3.648  13.783  0.00  0.00    +0.000 OA
ATOM     37  H   UNL     1       6.530   3.978  12.882  0.00  0.00    +0.000 HD
ENDBRANCH  34  36
ENDBRANCH  33  34
ENDBRANCH  25  28
ENDBRANCH   6  24
TORSDOF 7
ENDMDL
MODEL 4
REMARK VINA RESULT:      -8.7      1.385      2.030
REMARK  Name = 
REMARK  9 active torsions:
REMARK  status: ('A' for Active; 'I' for Inactive)
REMARK    1  A    between atoms: C_1  and  C_2
REMARK    2  A    between atoms: C_2  and  C_3
REMARK    3  A    between atoms: C_2  and  C_4
REMARK    4  A    between atoms: C_7  and  N_8
REMARK    5  A    between atoms: C_12  and  C_14
REMARK    6  A    between atoms: C_19  and  N_20
REMARK    7  A    between atoms: C_21  and  C_23
REMARK    8  A    between atoms: C_28  and  C_29
REMARK    9  A    between atoms: C_29  and  O_31
REMARK                            x       y       z     vdW  Elec       q    Type
REMARK                         _______ _______ _______ _____ _____    ______ ____
ROOT
ATOM      1  C   UNL     1       2.168   5.880  19.830  0.00  0.00    +0.000 A 
ATOM      2  C   UNL     1       1.262   5.347  20.759  0.00  0.00    +0.000 A 
ATOM      3  C   UNL     1       1.466   4.092  21.327  0.00  0.00    +0.000 A 
ATOM      4  C   UNL     1       2.541   3.317  20.916  0.00  0.00    +0.000 A 
ATOM      5  C   UNL     1       3.389   3.781  19.909  0.00  0.00    +0.000 A 
ATOM      6  C   UNL     1       3.203   5.047  19.331  0.00  0.00    +0.000 A 
ENDROOT
BRANCH   1  11
ATOM      7  N   UNL     1      -0.422  10.024  21.236  0.00  0.00    +0.000 N 
ATOM      8  C   UNL     1      -0.199  10.029  19.776  0.00  0.00    +0.000 C 
ATOM      9  C   UNL     1       1.229   9.600  19.410  0.00  0.00    +0.000 C 
ATOM     10  N   UNL     1       1.573   8.336  20.067  0.00  0.00    +0.000 N 
ATOM     11  C   UNL     1       1.963   7.260  19.272  0.00  0.00    +0.000 C 
ATOM     12  O   UNL     1       2.168   7.401  18.066  0.00  0.00    +0.000 OA
ATOM     13  C   UNL     1       1.504   8.447  21.534  0.00  0.00    +0.000 C 
ATOM     14  C   UNL     1       0.090   8.873  22.006  0.00  0.00    +0.000 C 
BRANCH   7  18
ATOM     15  C   UNL     1      -1.415  13.621  23.221  0.00  0.00    +0.000 A 
ATOM     16  C   UNL     1      -0.436  13.604  22.222  0.00  0.00    +0.000 A 
ATOM     17  C   UNL     1      -0.104  12.405  21.577  0.00  0.00    +0.000 A 
ATOM     18  C   UNL     1      -0.727  11.192  21.912  0.00  0.00    +0.000 A 
ATOM     19  C   UNL     1      -1.662  11.219  22.947  0.00  0.00    +0.000 A 
ATOM     20  C   UNL     1      -2.000  12.406  23.594  0.00  0.00    +0.000 A 
BRANCH  15  22
ATOM     21  C   UNL     1      -2.915  14.643  24.936  0.00  0.00    +0.000 C 
ATOM     22  C   UNL     1      -1.880  14.926  23.840  0.00  0.00    +0.000 C 
ATOM     23  C   UNL     1      -0.711  15.744  24.393  0.00  0.00    +0.000 C 
ENDBRANCH  15  22
ENDBRANCH   7  18
ENDBRANCH   1  11
BRANCH   6  24
ATOM     24  N   UNL     1       4.031   5.491  18.264  0.00  0.00    +0.000 N 
ATOM     25  C   UNL     1       4.227   4.855  17.058  0.00  0.00    +0.000 C 
ATOM     26  O   UNL     1       3.723   3.784  16.719  0.00  0.00    +0.000 OA
ATOM     27  H   UNL     1       4.271   6.485  18.307  0.00  0.00    +0.000 HD
BRANCH  25  28
ATOM     28  C   UNL     1       5.264   5.475  16.126  0.00  0.00    +0.000 C 
ATOM     29  C   UNL     1       5.709   6.913  16.417  0.00  0.00    +0.000 C 
ATOM     30  C   UNL     1       6.941   7.029  17.261  0.00  0.00    +0.000 C 
ATOM     31  C   UNL     1       7.697   5.982  17.615  0.00  0.00    +0.000 C 
ATOM     32  C   UNL     1       7.414   4.577  17.176  0.00  0.00    +0.000 C 
ATOM     33  C   UNL     1       6.422   4.470  16.005  0.00  0.00    +0.000 C 
BRANCH  33  34
ATOM     34  C   UNL     1       7.097   4.602  14.651  0.00  0.00    +0.000 C 
ATOM     35  O   UNL     1       7.963   5.418  14.371  0.00  0.00    +0.000 OA
BRANCH  34  36
ATOM     36  O   UNL     1       6.675   3.680  13.753  0.00  0.00    +0.000 OA
ATOM     37  H   UNL     1       5.913   3.140  14.041  0.00  0.00    +0.000 HD
ENDBRANCH  34  36
ENDBRANCH  33  34
ENDBRANCH  25  28
ENDBRANCH   6  24
TORSDOF 7
ENDMDL
MODEL 5
REMARK VINA RESULT:      -8.1      4.901     11.165
REMARK  Name = 
REMARK  9 active torsions:
REMARK  status: ('A' for Active; 'I' for Inactive)
REMARK    1  A    between atoms: C_1  and  C_2
REMARK    2  A    between atoms: C_2  and  C_3
REMARK    3  A    between atoms: C_2  and  C_4
REMARK    4  A    between atoms: C_7  and  N_8
REMARK    5  A    between atoms: C_12  and  C_14
REMARK    6  A    between atoms: C_19  and  N_20
REMARK    7  A    between atoms: C_21  and  C_23
REMARK    8  A    between atoms: C_28  and  C_29
REMARK    9  A    between atoms: C_29  and  O_31
REMARK                            x       y       z     vdW  Elec       q    Type
REMARK                         _______ _______ _______ _____ _____    ______ ____
ROOT
ATOM      1  C   UNL     1      -1.827  12.999  21.166  0.00  0.00    +0.000 A 
ATOM      2  C   UNL     1      -0.696  13.692  21.625  0.00  0.00    +0.000 A 
ATOM      3  C   UNL     1      -0.731  14.425  22.810  0.00  0.00    +0.000 A 
ATOM      4  C   UNL     1      -1.920  14.537  23.515  0.00  0.00    +0.000 A 
ATOM      5  C   UNL     1      -3.084  13.951  23.015  0.00  0.00    +0.000 A 
ATOM      6  C   UNL     1      -3.067  13.202  21.828  0.00  0.00    +0.000 A 
ENDROOT
BRANCH   1  11
ATOM      7  N   UNL     1       1.306   9.431  19.348  0.00  0.00    +0.000 N 
ATOM      8  C   UNL     1       0.591  10.098  18.241  0.00  0.00    +0.000 C 
ATOM      9  C   UNL     1      -0.896  10.309  18.561  0.00  0.00    +0.000 C 
ATOM     10  N   UNL     1      -1.056  10.962  19.862  0.00  0.00    +0.000 N 
ATOM     11  C   UNL     1      -1.755  12.167  19.917  0.00  0.00    +0.000 C 
ATOM     12  O   UNL     1      -2.358  12.599  18.934  0.00  0.00    +0.000 OA
ATOM     13  C   UNL     1      -0.477  10.159  20.952  0.00  0.00    +0.000 C 
ATOM     14  C   UNL     1       1.033   9.896  20.723  0.00  0.00    +0.000 C 
BRANCH   7  18
ATOM     15  C   UNL     1       3.177   5.676  18.833  0.00  0.00    +0.000 A 
ATOM     16  C   UNL     1       3.225   6.642  17.823  0.00  0.00    +0.000 A 
ATOM     17  C   UNL     1       2.593   7.880  17.996  0.00  0.00    +0.000 A 
ATOM     18  C   UNL     1       1.888   8.188  19.171  0.00  0.00    +0.000 A 
ATOM     19  C   UNL     1       1.806   7.193  20.146  0.00  0.00    +0.000 A 
ATOM     20  C   UNL     1       2.433   5.959  19.983  0.00  0.00    +0.000 A 
BRANCH  15  22
ATOM     21  C   UNL     1       3.488   3.389  19.787  0.00  0.00    +0.000 C 
ATOM     22  C   UNL     1       3.962   4.383  18.719  0.00  0.00    +0.000 C 
ATOM     23  C   UNL     1       3.853   3.771  17.320  0.00  0.00    +0.000 C 
ENDBRANCH  15  22
ENDBRANCH   7  18
ENDBRANCH   1  11
BRANCH   6  24
ATOM     24  N   UNL     1      -4.264  12.658  21.289  0.00  0.00    +0.000 N 
ATOM     25  C   UNL     1      -5.213  13.332  20.552  0.00  0.00    +0.000 C 
ATOM     26  O   UNL     1      -5.178  14.525  20.254  0.00  0.00    +0.000 OA
ATOM     27  H   UNL     1      -4.267  11.637  21.224  0.00  0.00    +0.000 HD
BRANCH  25  28
ATOM     28  C   UNL     1      -6.474  12.551  20.195  0.00  0.00    +0.000 C 
ATOM     29  C   UNL     1      -7.478  13.219  19.249  0.00  0.00    +0.000 C 
ATOM     30  C   UNL     1      -7.302  12.875  17.802  0.00  0.00    +0.000 C 
ATOM     31  C   UNL     1      -6.445  11.945  17.362  0.00  0.00    +0.000 C 
ATOM     32  C   UNL     1      -5.591  11.117  18.273  0.00  0.00    +0.000 C 
ATOM     33  C   UNL     1      -6.027  11.148  19.748  0.00  0.00    +0.000 C 
BRANCH  33  34
ATOM     34  C   UNL     1      -7.102  10.124  20.064  0.00  0.00    +0.000 C 
ATOM     35  O   UNL     1      -7.672  10.009  21.139  0.00  0.00    +0.000 OA
BRANCH  34  36
ATOM     36  O   UNL     1      -7.421   9.342  19.006  0.00  0.00    +0.000 OA
ATOM     37  H   UNL     1      -8.372   9.126  18.922  0.00  0.00    +0.000 HD
ENDBRANCH  34  36
ENDBRANCH  33  34
ENDBRANCH  25  28
ENDBRANCH   6  24
TORSDOF 7
ENDMDL
MODEL 6
REMARK VINA RESULT:      -7.9      0.916      1.096
REMARK  Name = 
REMARK  9 active torsions:
REMARK  status: ('A' for Active; 'I' for Inactive)
REMARK    1  A    between atoms: C_1  and  C_2
REMARK    2  A    between atoms: C_2  and  C_3
REMARK    3  A    between atoms: C_2  and  C_4
REMARK    4  A    between atoms: C_7  and  N_8
REMARK    5  A    between atoms: C_12  and  C_14
REMARK    6  A    between atoms: C_19  and  N_20
REMARK    7  A    between atoms: C_21  and  C_23
REMARK    8  A    between atoms: C_28  and  C_29
REMARK    9  A    between atoms: C_29  and  O_31
REMARK                            x       y       z     vdW  Elec       q    Type
REMARK                         _______ _______ _______ _____ _____    ______ ____
ROOT
ATOM      1  C   UNL     1       2.213   5.053  19.199  0.00  0.00    +0.000 A 
ATOM      2  C   UNL     1       0.969   4.553  19.611  0.00  0.00    +0.000 A 
ATOM      3  C   UNL     1       0.833   3.245  20.070  0.00  0.00    +0.000 A 
ATOM      4  C   UNL     1       1.928   2.393  20.053  0.00  0.00    +0.000 A 
ATOM      5  C   UNL     1       3.147   2.836  19.539  0.00  0.00    +0.000 A 
ATOM      6  C   UNL     1       3.305   4.153  19.079  0.00  0.00    +0.000 A 
ENDROOT
BRANCH   1  11
ATOM      7  N   UNL     1       0.063   9.476  20.490  0.00  0.00    +0.000 N 
ATOM      8  C   UNL     1       0.594   9.546  19.114  0.00  0.00    +0.000 C 
ATOM      9  C   UNL     1       1.982   8.900  18.998  0.00  0.00    +0.000 C 
ATOM     10  N   UNL     1       1.973   7.552  19.572  0.00  0.00    +0.000 N 
ATOM     11  C   UNL     1       2.352   6.484  18.761  0.00  0.00    +0.000 C 
ATOM     12  O   UNL     1       2.832   6.672  17.643  0.00  0.00    +0.000 OA
ATOM     13  C   UNL     1       1.608   7.569  20.999  0.00  0.00    +0.000 C 
ATOM     14  C   UNL     1       0.210   8.201  21.220  0.00  0.00    +0.000 C 
BRANCH   7  18
ATOM     15  C   UNL     1      -0.802  13.015  22.633  0.00  0.00    +0.000 A 
ATOM     16  C   UNL     1      -0.097  13.066  21.427  0.00  0.00    +0.000 A 
ATOM     17  C   UNL     1       0.197  11.888  20.728  0.00  0.00    +0.000 A 
ATOM     18  C   UNL     1      -0.193  10.629  21.212  0.00  0.00    +0.000 A 
ATOM     19  C   UNL     1      -0.849  10.593  22.443  0.00  0.00    +0.000 A 
ATOM     20  C   UNL     1      -1.147  11.760  23.145  0.00  0.00    +0.000 A 
BRANCH  15  22
ATOM     21  C   UNL     1      -0.932  15.503  22.458  0.00  0.00    +0.000 C 
ATOM     22  C   UNL     1      -1.242  14.285  23.337  0.00  0.00    +0.000 C 
ATOM     23  C   UNL     1      -2.727  14.246  23.709  0.00  0.00    +0.000 C 
ENDBRANCH  15  22
ENDBRANCH   7  18
ENDBRANCH   1  11
BRANCH   6  24
ATOM     24  N   UNL     1       4.529   4.583  18.500  0.00  0.00    +0.000 N 
ATOM     25  C   UNL     1       5.752   4.659  19.130  0.00  0.00    +0.000 C 
ATOM     26  O   UNL     1       5.975   4.376  20.307  0.00  0.00    +0.000 OA
ATOM     27  H   UNL     1       4.536   4.571  17.478  0.00  0.00    +0.000 HD
BRANCH  25  28
ATOM     28  C   UNL     1       6.892   5.274  18.323  0.00  0.00    +0.000 C 
ATOM     29  C   UNL     1       7.472   4.447  17.171  0.00  0.00    +0.000 C 
ATOM     30  C   UNL     1       6.866   4.727  15.830  0.00  0.00    +0.000 C 
ATOM     31  C   UNL     1       5.998   5.721  15.604  0.00  0.00    +0.000 C 
ATOM     32  C   UNL     1       5.562   6.689  16.662  0.00  0.00    +0.000 C 
ATOM     33  C   UNL     1       6.449   6.691  17.919  0.00  0.00    +0.000 C 
BRANCH  33  34
ATOM     34  C   UNL     1       7.654   7.604  17.786  0.00  0.00    +0.000 C 
ATOM     35  O   UNL     1       7.820   8.428  16.898  0.00  0.00    +0.000 OA
BRANCH  34  36
ATOM     36  O   UNL     1       8.549   7.456  18.791  0.00  0.00    +0.000 OA
ATOM     37  H   UNL     1       9.456   7.756  18.585  0.00  0.00    +0.000 HD
ENDBRANCH  34  36
ENDBRANCH  33  34
ENDBRANCH  25  28
ENDBRANCH   6  24
TORSDOF 7
ENDMDL
MODEL 7
REMARK VINA RESULT:      -7.7      1.563      2.165
REMARK  Name = 
REMARK  9 active torsions:
REMARK  status: ('A' for Active; 'I' for Inactive)
REMARK    1  A    between atoms: C_1  and  C_2
REMARK    2  A    between atoms: C_2  and  C_3
REMARK    3  A    between atoms: C_2  and  C_4
REMARK    4  A    between atoms: C_7  and  N_8
REMARK    5  A    between atoms: C_12  and  C_14
REMARK    6  A    between atoms: C_19  and  N_20
REMARK    7  A    between atoms: C_21  and  C_23
REMARK    8  A    between atoms: C_28  and  C_29
REMARK    9  A    between atoms: C_29  and  O_31
REMARK                            x       y       z     vdW  Elec       q    Type
REMARK                         _______ _______ _______ _____ _____    ______ ____
ROOT
ATOM      1  C   UNL     1       1.986   4.527  19.574  0.00  0.00    +0.000 A 
ATOM      2  C   UNL     1       0.863   3.918  20.156  0.00  0.00    +0.000 A 
ATOM      3  C   UNL     1       1.000   2.980  21.177  0.00  0.00    +0.000 A 
ATOM      4  C   UNL     1       2.266   2.580  21.579  0.00  0.00    +0.000 A 
ATOM      5  C   UNL     1       3.395   3.088  20.934  0.00  0.00    +0.000 A 
ATOM      6  C   UNL     1       3.277   4.040  19.909  0.00  0.00    +0.000 A 
ENDROOT
BRANCH   1  11
ATOM      7  N   UNL     1       0.864   9.486  19.520  0.00  0.00    +0.000 N 
ATOM      8  C   UNL     1       0.510   8.866  18.228  0.00  0.00    +0.000 C 
ATOM      9  C   UNL     1       1.596   7.898  17.736  0.00  0.00    +0.000 C 
ATOM     10  N   UNL     1       1.947   6.940  18.788  0.00  0.00    +0.000 N 
ATOM     11  C   UNL     1       1.817   5.579  18.515  0.00  0.00    +0.000 C 
ATOM     12  O   UNL     1       1.567   5.179  17.378  0.00  0.00    +0.000 OA
ATOM     13  C   UNL     1       2.464   7.614  19.991  0.00  0.00    +0.000 C 
ATOM     14  C   UNL     1       1.430   8.614  20.569  0.00  0.00    +0.000 C 
BRANCH   7  18
ATOM     15  C   UNL     1       1.489  13.648  19.909  0.00  0.00    +0.000 A 
ATOM     16  C   UNL     1       0.796  12.936  20.892  0.00  0.00    +0.000 A 
ATOM     17  C   UNL     1       0.582  11.558  20.751  0.00  0.00    +0.000 A 
ATOM     18  C   UNL     1       1.042  10.854  19.627  0.00  0.00    +0.000 A 
ATOM     19  C   UNL     1       1.685  11.591  18.631  0.00  0.00    +0.000 A 
ATOM     20  C   UNL     1       1.904  12.961  18.763  0.00  0.00    +0.000 A 
BRANCH  15  22
ATOM     21  C   UNL     1       3.175  15.421  19.410  0.00  0.00    +0.000 C 
ATOM     22  C   UNL     1       1.843  15.111  20.104  0.00  0.00    +0.000 C 
ATOM     23  C   UNL     1       0.736  16.038  19.597  0.00  0.00    +0.000 C 
ENDBRANCH  15  22
ENDBRANCH   7  18
ENDBRANCH   1  11
BRANCH   6  24
ATOM     24  N   UNL     1       4.423   4.510  19.213  0.00  0.00    +0.000 N 
ATOM     25  C   UNL     1       4.914   4.026  18.020  0.00  0.00    +0.000 C 
ATOM     26  O   UNL     1       4.440   3.093  17.372  0.00  0.00    +0.000 OA
ATOM     27  H   UNL     1       4.729   5.445  19.493  0.00  0.00    +0.000 HD
BRANCH  25  28
ATOM     28  C   UNL     1       6.235   4.620  17.541  0.00  0.00    +0.000 C 
ATOM     29  C   UNL     1       6.873   4.012  16.286  0.00  0.00    +0.000 C 
ATOM     30  C   UNL     1       6.523   4.705  15.006  0.00  0.00    +0.000 C 
ATOM     31  C   UNL     1       5.837   5.854  14.949  0.00  0.00    +0.000 C 
ATOM     32  C   UNL     1       5.374   6.595  16.167  0.00  0.00    +0.000 C 
ATOM     33  C   UNL     1       6.048   6.146  17.474  0.00  0.00    +0.000 C 
BRANCH  33  34
ATOM     34  C   UNL     1       7.368   6.852  17.726  0.00  0.00    +0.000 C 
ATOM     35  O   UNL     1       7.825   7.758  17.046  0.00  0.00    +0.000 OA
BRANCH  34  36
ATOM     36  O   UNL     1       8.009   6.406  18.833  0.00  0.00    +0.000 OA
ATOM     37  H   UNL     1       8.984   6.383  18.766  0.00  0.00    +0.000 HD
ENDBRANCH  34  36
ENDBRANCH  33  34
ENDBRANCH  25  28
ENDBRANCH   6  24
TORSDOF 7
ENDMDL
MODEL 8
REMARK VINA RESULT:      -7.6      3.544      9.346
REMARK  Name = 
REMARK  9 active torsions:
REMARK  status: ('A' for Active; 'I' for Inactive)
REMARK    1  A    between atoms: C_1  and  C_2
REMARK    2  A    between atoms: C_2  and  C_3
REMARK    3  A    between atoms: C_2  and  C_4
REMARK    4  A    between atoms: C_7  and  N_8
REMARK    5  A    between atoms: C_12  and  C_14
REMARK    6  A    between atoms: C_19  and  N_20
REMARK    7  A    between atoms: C_21  and  C_23
REMARK    8  A    between atoms: C_28  and  C_29
REMARK    9  A    between atoms: C_29  and  O_31
REMARK                            x       y       z     vdW  Elec       q    Type
REMARK                         _______ _______ _______ _____ _____    ______ ____
ROOT
ATOM      1  C   UNL     1      -0.965  12.417  21.026  0.00  0.00    +0.000 A 
ATOM      2  C   UNL     1      -1.731  11.850  22.056  0.00  0.00    +0.000 A 
ATOM      3  C   UNL     1      -1.951  12.533  23.250  0.00  0.00    +0.000 A 
ATOM      4  C   UNL     1      -1.344  13.763  23.461  0.00  0.00    +0.000 A 
ATOM      5  C   UNL     1      -0.486  14.291  22.496  0.00  0.00    +0.000 A 
ATOM      6  C   UNL     1      -0.259  13.622  21.284  0.00  0.00    +0.000 A 
ENDROOT
BRANCH   1  11
ATOM      7  N   UNL     1       1.842   8.502  19.400  0.00  0.00    +0.000 N 
ATOM      8  C   UNL     1       1.476   9.375  18.267  0.00  0.00    +0.000 C 
ATOM      9  C   UNL     1       0.009   9.825  18.337  0.00  0.00    +0.000 C 
ATOM     10  N   UNL     1      -0.295  10.388  19.656  0.00  0.00    +0.000 N 
ATOM     11  C   UNL     1      -0.786  11.691  19.722  0.00  0.00    +0.000 C 
ATOM     12  O   UNL     1      -1.106  12.304  18.704  0.00  0.00    +0.000 OA
ATOM     13  C   UNL     1      -0.079   9.407  20.732  0.00  0.00    +0.000 C 
ATOM     14  C   UNL     1       1.384   8.894  20.747  0.00  0.00    +0.000 C 
BRANCH   7  18
ATOM     15  C   UNL     1       3.148   4.530  18.781  0.00  0.00    +0.000 A 
ATOM     16  C   UNL     1       3.350   5.507  17.802  0.00  0.00    +0.000 A 
ATOM     17  C   UNL     1       2.904   6.820  18.010  0.00  0.00    +0.000 A 
ATOM     18  C   UNL     1       2.238   7.193  19.188  0.00  0.00    +0.000 A 
ATOM     19  C   UNL     1       1.999   6.191  20.131  0.00  0.00    +0.000 A 
ATOM     20  C   UNL     1       2.439   4.884  19.934  0.00  0.00    +0.000 A 
BRANCH  15  22
ATOM     21  C   UNL     1       4.062   2.560  20.015  0.00  0.00    +0.000 C 
ATOM     22  C   UNL     1       3.737   3.139  18.633  0.00  0.00    +0.000 C 
ATOM     23  C   UNL     1       2.804   2.205  17.857  0.00  0.00    +0.000 C 
ENDBRANCH  15  22
ENDBRANCH   7  18
ENDBRANCH   1  11
BRANCH   6  24
ATOM     24  N   UNL     1       0.663  14.131  20.329  0.00  0.00    +0.000 N 
ATOM     25  C   UNL     1       2.020  13.897  20.291  0.00  0.00    +0.000 C 
ATOM     26  O   UNL     1       2.654  13.214  21.095  0.00  0.00    +0.000 OA
ATOM     27  H   UNL     1       0.228  14.468  19.466  0.00  0.00    +0.000 HD
BRANCH  25  28
ATOM     28  C   UNL     1       2.811  14.663  19.235  0.00  0.00    +0.000 C 
ATOM     29  C   UNL     1       2.122  15.855  18.560  0.00  0.00    +0.000 C 
ATOM     30  C   UNL     1       2.400  17.182  19.197  0.00  0.00    +0.000 C 
ATOM     31  C   UNL     1       3.292  17.360  20.179  0.00  0.00    +0.000 C 
ATOM     32  C   UNL     1       4.142  16.253  20.728  0.00  0.00    +0.000 C 
ATOM     33  C   UNL     1       4.183  14.993  19.847  0.00  0.00    +0.000 C 
BRANCH  33  34
ATOM     34  C   UNL     1       5.241  15.070  18.762  0.00  0.00    +0.000 C 
ATOM     35  O   UNL     1       6.252  15.754  18.809  0.00  0.00    +0.000 OA
BRANCH  34  36
ATOM     36  O   UNL     1       4.986  14.257  17.709  0.00  0.00    +0.000 OA
ATOM     37  H   UNL     1       4.043  14.034  17.577  0.00  0.00    +0.000 HD
ENDBRANCH  34  36
ENDBRANCH  33  34
ENDBRANCH  25  28
ENDBRANCH   6  24
TORSDOF 7
ENDMDL
MODEL 9
REMARK VINA RESULT:      -7.5      4.637     11.246
REMARK  Name = 
REMARK  9 active torsions:
REMARK  status: ('A' for Active; 'I' for Inactive)
REMARK    1  A    between atoms: C_1  and  C_2
REMARK    2  A    between atoms: C_2  and  C_3
REMARK    3  A    between atoms: C_2  and  C_4
REMARK    4  A    between atoms: C_7  and  N_8
REMARK    5  A    between atoms: C_12  and  C_14
REMARK    6  A    between atoms: C_19  and  N_20
REMARK    7  A    between atoms: C_21  and  C_23
REMARK    8  A    between atoms: C_28  and  C_29
REMARK    9  A    between atoms: C_29  and  O_31
REMARK                            x       y       z     vdW  Elec       q    Type
REMARK                         _______ _______ _______ _____ _____    ______ ____
ROOT
ATOM      1  C   UNL     1      -0.934  13.215  20.372  0.00  0.00    +0.000 A 
ATOM      2  C   UNL     1       0.247  13.838  20.802  0.00  0.00    +0.000 A 
ATOM      3  C   UNL     1       0.250  14.704  21.893  0.00  0.00    +0.000 A 
ATOM      4  C   UNL     1      -0.945  15.019  22.524  0.00  0.00    +0.000 A 
ATOM      5  C   UNL     1      -2.147  14.500  22.039  0.00  0.00    +0.000 A 
ATOM      6  C   UNL     1      -2.167  13.620  20.946  0.00  0.00    +0.000 A 
ENDROOT
BRANCH   1  11
ATOM      7  N   UNL     1       1.553   8.904  19.329  0.00  0.00    +0.000 N 
ATOM      8  C   UNL     1       1.115   9.558  18.080  0.00  0.00    +0.000 C 
ATOM      9  C   UNL     1      -0.320  10.096  18.184  0.00  0.00    +0.000 C 
ATOM     10  N   UNL     1      -0.476  10.922  19.383  0.00  0.00    +0.000 N 
ATOM     11  C   UNL     1      -0.907  12.239  19.230  0.00  0.00    +0.000 C 
ATOM     12  O   UNL     1      -1.299  12.658  18.140  0.00  0.00    +0.000 OA
ATOM     13  C   UNL     1      -0.197  10.160  20.612  0.00  0.00    +0.000 C 
ATOM     14  C   UNL     1       1.240   9.578  20.605  0.00  0.00    +0.000 C 
BRANCH   7  18
ATOM     15  C   UNL     1       2.438   4.771  19.381  0.00  0.00    +0.000 A 
ATOM     16  C   UNL     1       1.961   5.413  20.528  0.00  0.00    +0.000 A 
ATOM     17  C   UNL     1       1.681   6.786  20.507  0.00  0.00    +0.000 A 
ATOM     18  C   UNL     1       1.876   7.558  19.351  0.00  0.00    +0.000 A 
ATOM     19  C   UNL     1       2.402   6.911  18.232  0.00  0.00    +0.000 A 
ATOM     20  C   UNL     1       2.683   5.547  18.243  0.00  0.00    +0.000 A 
BRANCH  15  22
ATOM     21  C   UNL     1       1.388   2.574  19.938  0.00  0.00    +0.000 C 
ATOM     22  C   UNL     1       2.623   3.266  19.346  0.00  0.00    +0.000 C 
ATOM     23  C   UNL     1       2.903   2.759  17.929  0.00  0.00    +0.000 C 
ENDBRANCH  15  22
ENDBRANCH   7  18
ENDBRANCH   1  11
BRANCH   6  24
ATOM     24  N   UNL     1      -3.397  13.141  20.416  0.00  0.00    +0.000 N 
ATOM     25  C   UNL     1      -4.471  12.666  21.137  0.00  0.00    +0.000 C 
ATOM     26  O   UNL     1      -4.530  12.570  22.362  0.00  0.00    +0.000 OA
ATOM     27  H   UNL     1      -3.577  13.430  19.452  0.00  0.00    +0.000 HD
BRANCH  25  28
ATOM     28  C   UNL     1      -5.629  12.092  20.326  0.00  0.00    +0.000 C 
ATOM     29  C   UNL     1      -6.985  11.953  21.027  0.00  0.00    +0.000 C 
ATOM     30  C   UNL     1      -7.912  13.114  20.834  0.00  0.00    +0.000 C 
ATOM     31  C   UNL     1      -7.662  14.130  19.998  0.00  0.00    +0.000 C 
ATOM     32  C   UNL     1      -6.440  14.201  19.134  0.00  0.00    +0.000 C 
ATOM     33  C   UNL     1      -5.683  12.869  19.000  0.00  0.00    +0.000 C 
BRANCH  33  34
ATOM     34  C   UNL     1      -6.236  11.989  17.893  0.00  0.00    +0.000 C 
ATOM     35  O   UNL     1      -6.274  10.768  17.915  0.00  0.00    +0.000 OA
BRANCH  34  36
ATOM     36  O   UNL     1      -6.740  12.694  16.853  0.00  0.00    +0.000 OA
ATOM     37  H   UNL     1      -7.707  12.610  16.726  0.00  0.00    +0.000 HD
ENDBRANCH  34  36
ENDBRANCH  33  34
ENDBRANCH  25  28
ENDBRANCH   6  24
TORSDOF 7
ENDMDL
