MODEL 1
REMARK VINA RESULT:      -8.9      0.000      0.000
REMARK  Name = 
REMARK  7 active torsions:
REMARK  status: ('A' for Active; 'I' for Inactive)
REMARK    1  A    between atoms: C_1  and  O_2
REMARK    2  A    between atoms: O_2  and  C_3
REMARK    3  A    between atoms: C_3  and  C_4
REMARK    4  A    between atoms: C_4  and  C_5
REMARK    5  A    between atoms: N_7  and  C_8
REMARK    6  A    between atoms: C_12  and  C_13
REMARK    7  A    between atoms: C_14  and  C_15
REMARK                            x       y       z     vdW  Elec       q    Type
REMARK                         _______ _______ _______ _____ _____    ______ ____
ROOT
ATOM      1  C   UNL     1       2.338   7.385  18.580  0.00  0.00    +0.000 A 
ATOM      2  C   UNL     1       3.438   7.736  17.818  0.00  0.00    +0.000 A 
ATOM      3  C   UNL     1       4.233   6.745  17.259  0.00  0.00    +0.000 A 
ATOM      4  C   UNL     1       3.870   5.388  17.302  0.00  0.00    +0.000 A 
ATOM      5  C   UNL     1       4.495   4.369  16.535  0.00  0.00    +0.000 A 
ATOM      6  C   UNL     1       4.048   3.056  16.721  0.00  0.00    +0.000 A 
ATOM      7  C   UNL     1       3.079   2.799  17.670  0.00  0.00    +0.000 A 
ATOM      8  N   UNL     1       2.447   3.756  18.377  0.00  0.00    +0.000 NA
ATOM      9  C   UNL     1       2.809   5.029  18.165  0.00  0.00    +0.000 A 
ATOM     10  C   UNL     1       2.087   6.030  18.812  0.00  0.00    +0.000 A 
ENDROOT
BRANCH   5  11
ATOM     11  C   UNL     1       5.556   4.624  15.539  0.00  0.00    +0.000 A 
ATOM     12  C   UNL     1       6.852   5.297  15.677  0.00  0.00    +0.000 A 
ATOM     13  N   UNL     1       7.555   5.246  14.517  0.00  0.00    +0.000 NA
ATOM     14  N   UNL     1       6.738   4.601  13.703  0.00  0.00    +0.000 N 
ATOM     15  C   UNL     1       5.570   4.178  14.234  0.00  0.00    +0.000 A 
ATOM     16  C   UNL     1       4.804   3.433  13.204  0.00  0.00    +0.000 C 
ATOM     17  C   UNL     1       5.871   3.160  12.118  0.00  0.00    +0.000 C 
ATOM     18  C   UNL     1       6.943   4.244  12.313  0.00  0.00    +0.000 C 
BRANCH  12  19
ATOM     19  C   UNL     1       7.440   5.933  16.872  0.00  0.00    +0.000 A 
ATOM     20  C   UNL     1       7.629   5.200  18.042  0.00  0.00    +0.000 A 
ATOM     21  C   UNL     1       8.050   5.863  19.194  0.00  0.00    +0.000 A 
ATOM     22  C   UNL     1       8.274   7.234  19.148  0.00  0.00    +0.000 A 
ATOM     23  C   UNL     1       8.100   7.882  17.938  0.00  0.00    +0.000 A 
ATOM     24  N   UNL     1       7.701   7.265  16.807  0.00  0.00    +0.000 NA
ENDBRANCH  12  19
ENDBRANCH   5  11
BRANCH   1  27
ATOM     25  C   UNL     1       1.274   8.524  20.517  0.00  0.00    +0.000 C 
ATOM     26  O   UNL     1       1.891   7.971  21.425  0.00  0.00    +0.000 OA
ATOM     27  N   UNL     1       1.486   8.350  19.157  0.00  0.00    +0.000 N 
ATOM     28  H   UNL     1       1.090   9.037  18.527  0.00  0.00    +0.000 HD
BRANCH  25  29
ATOM     29  C   UNL     1       0.165   9.495  20.826  0.00  0.00    +0.000 C 
BRANCH  29  30
ATOM     30  C   UNL     1      -0.325   9.269  22.243  0.00  0.00    +0.000 C 
BRANCH  30  32
ATOM     31  C   UNL     1      -0.872  11.508  22.689  0.00  0.00    +0.000 C 
ATOM     32  O   UNL     1      -0.016  10.423  23.021  0.00  0.00    +0.000 OA
ENDBRANCH  30  32
ENDBRANCH  29  30
ENDBRANCH  25  29
ENDBRANCH   1  27
TORSDOF 6
ENDMDL
MODEL 2
REMARK VINA RESULT:      -8.8      3.696      9.404
REMARK  Name = 
REMARK  7 active torsions:
REMARK  status: ('A' for Active; 'I' for Inactive)
REMARK    1  A    between atoms: C_1  and  O_2
REMARK    2  A    between atoms: O_2  and  C_3
REMARK    3  A    between atoms: C_3  and  C_4
REMARK    4  A    between atoms: C_4  and  C_5
REMARK    5  A    between atoms: N_7  and  C_8
REMARK    6  A    between atoms: C_12  and  C_13
REMARK    7  A    between atoms: C_14  and  C_15
REMARK                            x       y       z     vdW  Elec       q    Type
REMARK                         _______ _______ _______ _____ _____    ______ ____
ROOT
ATOM      1  C   UNL     1       2.677   7.139  18.624  0.00  0.00    +0.000 A 
ATOM      2  C   UNL     1       2.368   8.206  17.800  0.00  0.00    +0.000 A 
ATOM      3  C   UNL     1       1.596   9.252  18.286  0.00  0.00    +0.000 A 
ATOM      4  C   UNL     1       1.248   9.350  19.644  0.00  0.00    +0.000 A 
ATOM      5  C   UNL     1       0.693  10.510  20.246  0.00  0.00    +0.000 A 
ATOM      6  C   UNL     1       0.359  10.437  21.602  0.00  0.00    +0.000 A 
ATOM      7  C   UNL     1       0.520   9.242  22.275  0.00  0.00    +0.000 A 
ATOM      8  N   UNL     1       1.082   8.145  21.734  0.00  0.00    +0.000 NA
ATOM      9  C   UNL     1       1.476   8.213  20.454  0.00  0.00    +0.000 A 
ATOM     10  C   UNL     1       2.154   7.119  19.920  0.00  0.00    +0.000 A 
ENDROOT
BRANCH   5  11
ATOM     11  C   UNL     1       0.483  11.786  19.530  0.00  0.00    +0.000 A 
ATOM     12  C   UNL     1      -0.632  12.238  18.692  0.00  0.00    +0.000 A 
ATOM     13  N   UNL     1      -0.452  13.521  18.287  0.00  0.00    +0.000 NA
ATOM     14  N   UNL     1       0.715  13.839  18.821  0.00  0.00    +0.000 N 
ATOM     15  C   UNL     1       1.304  12.894  19.586  0.00  0.00    +0.000 A 
ATOM     16  C   UNL     1       2.569  13.432  20.144  0.00  0.00    +0.000 C 
ATOM     17  C   UNL     1       2.428  14.953  19.900  0.00  0.00    +0.000 C 
ATOM     18  C   UNL     1       1.438  15.092  18.733  0.00  0.00    +0.000 C 
BRANCH  12  19
ATOM     19  C   UNL     1      -1.860  11.508  18.315  0.00  0.00    +0.000 A 
ATOM     20  C   UNL     1      -1.795  10.413  17.457  0.00  0.00    +0.000 A 
ATOM     21  C   UNL     1      -2.982   9.838  17.006  0.00  0.00    +0.000 A 
ATOM     22  C   UNL     1      -4.197  10.365  17.425  0.00  0.00    +0.000 A 
ATOM     23  C   UNL     1      -4.176  11.429  18.308  0.00  0.00    +0.000 A 
ATOM     24  N   UNL     1      -3.043  12.001  18.766  0.00  0.00    +0.000 NA
ENDBRANCH  12  19
ENDBRANCH   5  11
BRANCH   1  27
ATOM     25  C   UNL     1       2.993   4.816  17.797  0.00  0.00    +0.000 C 
ATOM     26  O   UNL     1       1.814   4.509  17.637  0.00  0.00    +0.000 OA
ATOM     27  N   UNL     1       3.471   6.059  18.187  0.00  0.00    +0.000 N 
ATOM     28  H   UNL     1       4.455   6.250  18.043  0.00  0.00    +0.000 HD
BRANCH  25  29
ATOM     29  C   UNL     1       4.084   3.803  17.573  0.00  0.00    +0.000 C 
BRANCH  29  30
ATOM     30  C   UNL     1       5.436   4.481  17.695  0.00  0.00    +0.000 C 
BRANCH  30  32
ATOM     31  C   UNL     1       6.829   5.426  19.331  0.00  0.00    +0.000 C 
ATOM     32  O   UNL     1       5.846   4.436  19.059  0.00  0.00    +0.000 OA
ENDBRANCH  30  32
ENDBRANCH  29  30
ENDBRANCH  25  29
ENDBRANCH   1  27
TORSDOF 6
ENDMDL
MODEL 3
REMARK VINA RESULT:      -8.8      1.249      1.465
REMARK  Name = 
REMARK  7 active torsions:
REMARK  status: ('A' for Active; 'I' for Inactive)
REMARK    1  A    between atoms: C_1  and  O_2
REMARK    2  A    between atoms: O_2  and  C_3
REMARK    3  A    between atoms: C_3  and  C_4
REMARK    4  A    between atoms: C_4  and  C_5
REMARK    5  A    between atoms: N_7  and  C_8
REMARK    6  A    between atoms: C_12  and  C_13
REMARK    7  A    between atoms: C_14  and  C_15
REMARK                            x       y       z     vdW  Elec       q    Type
REMARK                         _______ _______ _______ _____ _____    ______ ____
ROOT
ATOM      1  C   UNL     1       2.318   7.724  18.283  0.00  0.00    +0.000 A 
ATOM      2  C   UNL     1       3.461   7.995  17.553  0.00  0.00    +0.000 A 
ATOM      3  C   UNL     1       4.238   6.950  17.074  0.00  0.00    +0.000 A 
ATOM      4  C   UNL     1       3.820   5.611  17.166  0.00  0.00    +0.000 A 
ATOM      5  C   UNL     1       4.435   4.532  16.476  0.00  0.00    +0.000 A 
ATOM      6  C   UNL     1       3.929   3.248  16.704  0.00  0.00    +0.000 A 
ATOM      7  C   UNL     1       2.913   3.075  17.623  0.00  0.00    +0.000 A 
ATOM      8  N   UNL     1       2.292   4.087  18.256  0.00  0.00    +0.000 NA
ATOM      9  C   UNL     1       2.712   5.335  18.000  0.00  0.00    +0.000 A 
ATOM     10  C   UNL     1       2.004   6.392  18.567  0.00  0.00    +0.000 A 
ENDROOT
BRANCH   5  11
ATOM     11  C   UNL     1       5.545   4.699  15.514  0.00  0.00    +0.000 A 
ATOM     12  C   UNL     1       6.875   5.293  15.686  0.00  0.00    +0.000 A 
ATOM     13  N   UNL     1       7.614   5.171  14.554  0.00  0.00    +0.000 NA
ATOM     14  N   UNL     1       6.787   4.562  13.723  0.00  0.00    +0.000 N 
ATOM     15  C   UNL     1       5.577   4.223  14.219  0.00  0.00    +0.000 A 
ATOM     16  C   UNL     1       4.802   3.506  13.177  0.00  0.00    +0.000 C 
ATOM     17  C   UNL     1       5.887   3.142  12.137  0.00  0.00    +0.000 C 
ATOM     18  C   UNL     1       7.018   4.161  12.349  0.00  0.00    +0.000 C 
BRANCH  12  19
ATOM     19  C   UNL     1       7.459   5.917  16.889  0.00  0.00    +0.000 A 
ATOM     20  C   UNL     1       7.646   5.173  18.052  0.00  0.00    +0.000 A 
ATOM     21  C   UNL     1       8.062   5.825  19.211  0.00  0.00    +0.000 A 
ATOM     22  C   UNL     1       8.285   7.196  19.180  0.00  0.00    +0.000 A 
ATOM     23  C   UNL     1       8.115   7.856  17.976  0.00  0.00    +0.000 A 
ATOM     24  N   UNL     1       7.720   7.250  16.838  0.00  0.00    +0.000 NA
ENDBRANCH  12  19
ENDBRANCH   5  11
BRANCH   1  27
ATOM     25  C   UNL     1       1.133   8.926  20.108  0.00  0.00    +0.000 C 
ATOM     26  O   UNL     1       1.599   8.319  21.070  0.00  0.00    +0.000 OA
ATOM     27  N   UNL     1       1.483   8.747  18.777  0.00  0.00    +0.000 N 
ATOM     28  H   UNL     1       1.213   9.468  18.119  0.00  0.00    +0.000 HD
BRANCH  25  29
ATOM     29  C   UNL     1       0.073   9.977  20.307  0.00  0.00    +0.000 C 
BRANCH  29  30
ATOM     30  C   UNL     1      -0.068  10.799  19.040  0.00  0.00    +0.000 C 
BRANCH  30  32
ATOM     31  C   UNL     1      -1.940  11.083  17.650  0.00  0.00    +0.000 C 
ATOM     32  O   UNL     1      -1.004  10.153  18.180  0.00  0.00    +0.000 OA
ENDBRANCH  30  32
ENDBRANCH  29  30
ENDBRANCH  25  29
ENDBRANCH   1  27
TORSDOF 6
ENDMDL
MODEL 4
REMARK VINA RESULT:      -8.6      3.863      9.625
REMARK  Name = 
REMARK  7 active torsions:
REMARK  status: ('A' for Active; 'I' for Inactive)
REMARK    1  A    between atoms: C_1  and  O_2
REMARK    2  A    between atoms: O_2  and  C_3
REMARK    3  A    between atoms: C_3  and  C_4
REMARK    4  A    between atoms: C_4  and  C_5
REMARK    5  A    between atoms: N_7  and  C_8
REMARK    6  A    between atoms: C_12  and  C_13
REMARK    7  A    between atoms: C_14  and  C_15
REMARK                            x       y       z     vdW  Elec       q    Type
REMARK                         _______ _______ _______ _____ _____    ______ ____
ROOT
ATOM      1  C   UNL     1       2.698   7.165  18.366  0.00  0.00    +0.000 A 
ATOM      2  C   UNL     1       2.348   8.252  17.586  0.00  0.00    +0.000 A 
ATOM      3  C   UNL     1       1.602   9.285  18.137  0.00  0.00    +0.000 A 
ATOM      4  C   UNL     1       1.321   9.346  19.512  0.00  0.00    +0.000 A 
ATOM      5  C   UNL     1       0.796  10.490  20.171  0.00  0.00    +0.000 A 
ATOM      6  C   UNL     1       0.529  10.381  21.540  0.00  0.00    +0.000 A 
ATOM      7  C   UNL     1       0.723   9.169  22.173  0.00  0.00    +0.000 A 
ATOM      8  N   UNL     1       1.257   8.087  21.576  0.00  0.00    +0.000 NA
ATOM      9  C   UNL     1       1.587   8.189  20.280  0.00  0.00    +0.000 A 
ATOM     10  C   UNL     1       2.239   7.110  19.685  0.00  0.00    +0.000 A 
ENDROOT
BRANCH   5  11
ATOM     11  C   UNL     1       0.552  11.784  19.500  0.00  0.00    +0.000 A 
ATOM     12  C   UNL     1      -0.595  12.250  18.715  0.00  0.00    +0.000 A 
ATOM     13  N   UNL     1      -0.439  13.545  18.341  0.00  0.00    +0.000 NA
ATOM     14  N   UNL     1       0.743  13.858  18.843  0.00  0.00    +0.000 N 
ATOM     15  C   UNL     1       1.366  12.897  19.559  0.00  0.00    +0.000 A 
ATOM     16  C   UNL     1       2.646  13.430  20.089  0.00  0.00    +0.000 C 
ATOM     17  C   UNL     1       2.485  14.955  19.894  0.00  0.00    +0.000 C 
ATOM     18  C   UNL     1       1.453  15.120  18.767  0.00  0.00    +0.000 C 
BRANCH  12  19
ATOM     19  C   UNL     1      -1.829  11.521  18.360  0.00  0.00    +0.000 A 
ATOM     20  C   UNL     1      -1.781  10.427  17.499  0.00  0.00    +0.000 A 
ATOM     21  C   UNL     1      -2.976   9.852  17.070  0.00  0.00    +0.000 A 
ATOM     22  C   UNL     1      -4.183  10.380  17.512  0.00  0.00    +0.000 A 
ATOM     23  C   UNL     1      -4.145  11.443  18.396  0.00  0.00    +0.000 A 
ATOM     24  N   UNL     1      -3.004  12.014  18.833  0.00  0.00    +0.000 NA
ENDBRANCH  12  19
ENDBRANCH   5  11
BRANCH   1  27
ATOM     25  C   UNL     1       4.755   6.205  17.352  0.00  0.00    +0.000 C 
ATOM     26  O   UNL     1       5.469   7.204  17.389  0.00  0.00    +0.000 OA
ATOM     27  N   UNL     1       3.469   6.097  17.862  0.00  0.00    +0.000 N 
ATOM     28  H   UNL     1       3.090   5.167  17.989  0.00  0.00    +0.000 HD
BRANCH  25  29
ATOM     29  C   UNL     1       5.246   4.936  16.707  0.00  0.00    +0.000 C 
BRANCH  29  30
ATOM     30  C   UNL     1       6.681   4.677  17.127  0.00  0.00    +0.000 C 
BRANCH  30  32
ATOM     31  C   UNL     1       6.811   4.521  14.788  0.00  0.00    +0.000 C 
ATOM     32  O   UNL     1       7.521   4.814  15.985  0.00  0.00    +0.000 OA
ENDBRANCH  30  32
ENDBRANCH  29  30
ENDBRANCH  25  29
ENDBRANCH   1  27
TORSDOF 6
ENDMDL
MODEL 5
REMARK VINA RESULT:      -8.4      3.660      9.394
REMARK  Name = 
REMARK  7 active torsions:
REMARK  status: ('A' for Active; 'I' for Inactive)
REMARK    1  A    between atoms: C_1  and  O_2
REMARK    2  A    between atoms: O_2  and  C_3
REMARK    3  A    between atoms: C_3  and  C_4
REMARK    4  A    between atoms: C_4  and  C_5
REMARK    5  A    between atoms: N_7  and  C_8
REMARK    6  A    between atoms: C_12  and  C_13
REMARK    7  A    between atoms: C_14  and  C_15
REMARK                            x       y       z     vdW  Elec       q    Type
REMARK                         _______ _______ _______ _____ _____    ______ ____
ROOT
ATOM      1  C   UNL     1       2.550   7.157  18.649  0.00  0.00    +0.000 A 
ATOM      2  C   UNL     1       2.273   8.224  17.814  0.00  0.00    +0.000 A 
ATOM      3  C   UNL     1       1.552   9.308  18.296  0.00  0.00    +0.000 A 
ATOM      4  C   UNL     1       1.227   9.438  19.657  0.00  0.00    +0.000 A 
ATOM      5  C   UNL     1       0.729  10.629  20.250  0.00  0.00    +0.000 A 
ATOM      6  C   UNL     1       0.412  10.588  21.611  0.00  0.00    +0.000 A 
ATOM      7  C   UNL     1       0.533   9.397  22.299  0.00  0.00    +0.000 A 
ATOM      8  N   UNL     1       1.041   8.270  21.766  0.00  0.00    +0.000 NA
ATOM      9  C   UNL     1       1.419   8.304  20.479  0.00  0.00    +0.000 A 
ATOM     10  C   UNL     1       2.044   7.176  19.952  0.00  0.00    +0.000 A 
ENDROOT
BRANCH   5  11
ATOM     11  C   UNL     1       0.562  11.903  19.519  0.00  0.00    +0.000 A 
ATOM     12  C   UNL     1      -0.514  12.362  18.635  0.00  0.00    +0.000 A 
ATOM     13  N   UNL     1      -0.303  13.640  18.230  0.00  0.00    +0.000 NA
ATOM     14  N   UNL     1       0.845  13.948  18.807  0.00  0.00    +0.000 N 
ATOM     15  C   UNL     1       1.393  13.001  19.601  0.00  0.00    +0.000 A 
ATOM     16  C   UNL     1       2.641  13.529  20.206  0.00  0.00    +0.000 C 
ATOM     17  C   UNL     1       2.526  15.050  19.948  0.00  0.00    +0.000 C 
ATOM     18  C   UNL     1       1.585  15.193  18.741  0.00  0.00    +0.000 C 
BRANCH  12  19
ATOM     19  C   UNL     1      -1.733  11.643  18.214  0.00  0.00    +0.000 A 
ATOM     20  C   UNL     1      -2.974  11.982  18.750  0.00  0.00    +0.000 A 
ATOM     21  C   UNL     1      -4.080  11.191  18.443  0.00  0.00    +0.000 A 
ATOM     22  C   UNL     1      -3.922  10.091  17.609  0.00  0.00    +0.000 A 
ATOM     23  C   UNL     1      -2.665   9.845  17.087  0.00  0.00    +0.000 A 
ATOM     24  N   UNL     1      -1.579  10.597  17.361  0.00  0.00    +0.000 NA
ENDBRANCH  12  19
ENDBRANCH   5  11
BRANCH   1  27
ATOM     25  C   UNL     1       2.753   4.833  17.790  0.00  0.00    +0.000 C 
ATOM     26  O   UNL     1       1.564   4.599  17.589  0.00  0.00    +0.000 OA
ATOM     27  N   UNL     1       3.292   6.038  18.217  0.00  0.00    +0.000 N 
ATOM     28  H   UNL     1       4.289   6.174  18.106  0.00  0.00    +0.000 HD
BRANCH  25  29
ATOM     29  C   UNL     1       3.790   3.761  17.581  0.00  0.00    +0.000 C 
BRANCH  29  30
ATOM     30  C   UNL     1       5.092   4.183  18.233  0.00  0.00    +0.000 C 
BRANCH  30  32
ATOM     31  C   UNL     1       4.382   2.487  19.694  0.00  0.00    +0.000 C 
ATOM     32  O   UNL     1       5.104   3.706  19.577  0.00  0.00    +0.000 OA
ENDBRANCH  30  32
ENDBRANCH  29  30
ENDBRANCH  25  29
ENDBRANCH   1  27
TORSDOF 6
ENDMDL
MODEL 6
REMARK VINA RESULT:      -8.3      3.661      9.388
REMARK  Name = 
REMARK  7 active torsions:
REMARK  status: ('A' for Active; 'I' for Inactive)
REMARK    1  A    between atoms: C_1  and  O_2
REMARK    2  A    between atoms: O_2  and  C_3
REMARK    3  A    between atoms: C_3  and  C_4
REMARK    4  A    between atoms: C_4  and  C_5
REMARK    5  A    between atoms: N_7  and  C_8
REMARK    6  A    between atoms: C_12  and  C_13
REMARK    7  A    between atoms: C_14  and  C_15
REMARK                            x       y       z     vdW  Elec       q    Type
REMARK                         _______ _______ _______ _____ _____    ______ ____
ROOT
ATOM      1  C   UNL     1       2.603   7.124  18.370  0.00  0.00    +0.000 A 
ATOM      2  C   UNL     1       2.256   8.212  17.589  0.00  0.00    +0.000 A 
ATOM      3  C   UNL     1       1.536   9.259  18.147  0.00  0.00    +0.000 A 
ATOM      4  C   UNL     1       1.281   9.333  19.527  0.00  0.00    +0.000 A 
ATOM      5  C   UNL     1       0.786  10.488  20.188  0.00  0.00    +0.000 A 
ATOM      6  C   UNL     1       0.542  10.392  21.562  0.00  0.00    +0.000 A 
ATOM      7  C   UNL     1       0.729   9.181  22.199  0.00  0.00    +0.000 A 
ATOM      8  N   UNL     1       1.236   8.087  21.599  0.00  0.00    +0.000 NA
ATOM      9  C   UNL     1       1.544   8.176  20.297  0.00  0.00    +0.000 A 
ATOM     10  C   UNL     1       2.168   7.084  19.697  0.00  0.00    +0.000 A 
ENDROOT
BRANCH   5  11
ATOM     11  C   UNL     1       0.549  11.782  19.514  0.00  0.00    +0.000 A 
ATOM     12  C   UNL     1      -0.591  12.250  18.719  0.00  0.00    +0.000 A 
ATOM     13  N   UNL     1      -0.429  13.544  18.345  0.00  0.00    +0.000 NA
ATOM     14  N   UNL     1       0.750  13.855  18.855  0.00  0.00    +0.000 N 
ATOM     15  C   UNL     1       1.365  12.893  19.577  0.00  0.00    +0.000 A 
ATOM     16  C   UNL     1       2.642  13.424  20.116  0.00  0.00    +0.000 C 
ATOM     17  C   UNL     1       2.485  14.950  19.918  0.00  0.00    +0.000 C 
ATOM     18  C   UNL     1       1.463  15.115  18.782  0.00  0.00    +0.000 C 
BRANCH  12  19
ATOM     19  C   UNL     1      -1.824  11.523  18.356  0.00  0.00    +0.000 A 
ATOM     20  C   UNL     1      -1.772  10.433  17.490  0.00  0.00    +0.000 A 
ATOM     21  C   UNL     1      -2.966   9.860  17.053  0.00  0.00    +0.000 A 
ATOM     22  C   UNL     1      -4.175  10.386  17.493  0.00  0.00    +0.000 A 
ATOM     23  C   UNL     1      -4.140  11.444  18.383  0.00  0.00    +0.000 A 
ATOM     24  N   UNL     1      -3.000  12.013  18.827  0.00  0.00    +0.000 NA
ENDBRANCH  12  19
ENDBRANCH   5  11
BRANCH   1  27
ATOM     25  C   UNL     1       4.477   5.492  18.450  0.00  0.00    +0.000 C 
ATOM     26  O   UNL     1       4.918   5.763  19.565  0.00  0.00    +0.000 OA
ATOM     27  N   UNL     1       3.348   6.041  17.859  0.00  0.00    +0.000 N 
ATOM     28  H   UNL     1       2.957   5.562  17.056  0.00  0.00    +0.000 HD
BRANCH  25  29
ATOM     29  C   UNL     1       5.173   4.482  17.577  0.00  0.00    +0.000 C 
BRANCH  29  30
ATOM     30  C   UNL     1       4.183   3.414  17.152  0.00  0.00    +0.000 C 
BRANCH  30  32
ATOM     31  C   UNL     1       2.152   2.567  17.969  0.00  0.00    +0.000 C 
ATOM     32  O   UNL     1       3.474   2.966  18.305  0.00  0.00    +0.000 OA
ENDBRANCH  30  32
ENDBRANCH  29  30
ENDBRANCH  25  29
ENDBRANCH   1  27
TORSDOF 6
ENDMDL
MODEL 7
REMARK VINA RESULT:      -8.2      1.269      1.567
REMARK  Name = 
REMARK  7 active torsions:
REMARK  status: ('A' for Active; 'I' for Inactive)
REMARK    1  A    between atoms: C_1  and  O_2
REMARK    2  A    between atoms: O_2  and  C_3
REMARK    3  A    between atoms: C_3  and  C_4
REMARK    4  A    between atoms: C_4  and  C_5
REMARK    5  A    between atoms: N_7  and  C_8
REMARK    6  A    between atoms: C_12  and  C_13
REMARK    7  A    between atoms: C_14  and  C_15
REMARK                            x       y       z     vdW  Elec       q    Type
REMARK                         _______ _______ _______ _____ _____    ______ ____
ROOT
ATOM      1  C   UNL     1       2.171   7.691  18.431  0.00  0.00    +0.000 A 
ATOM      2  C   UNL     1       3.339   7.996  17.755  0.00  0.00    +0.000 A 
ATOM      3  C   UNL     1       4.135   6.973  17.258  0.00  0.00    +0.000 A 
ATOM      4  C   UNL     1       3.717   5.631  17.275  0.00  0.00    +0.000 A 
ATOM      5  C   UNL     1       4.357   4.585  16.559  0.00  0.00    +0.000 A 
ATOM      6  C   UNL     1       3.846   3.292  16.710  0.00  0.00    +0.000 A 
ATOM      7  C   UNL     1       2.799   3.076  17.584  0.00  0.00    +0.000 A 
ATOM      8  N   UNL     1       2.153   4.059  18.240  0.00  0.00    +0.000 NA
ATOM      9  C   UNL     1       2.580   5.317  18.055  0.00  0.00    +0.000 A 
ATOM     10  C   UNL     1       1.851   6.348  18.644  0.00  0.00    +0.000 A 
ENDROOT
BRANCH   5  11
ATOM     11  C   UNL     1       5.500   4.795  15.646  0.00  0.00    +0.000 A 
ATOM     12  C   UNL     1       6.796   5.443  15.873  0.00  0.00    +0.000 A 
ATOM     13  N   UNL     1       7.589   5.350  14.775  0.00  0.00    +0.000 NA
ATOM     14  N   UNL     1       6.824   4.706  13.911  0.00  0.00    +0.000 N 
ATOM     15  C   UNL     1       5.608   4.319  14.355  0.00  0.00    +0.000 A 
ATOM     16  C   UNL     1       4.909   3.569  13.282  0.00  0.00    +0.000 C 
ATOM     17  C   UNL     1       6.053   3.248  12.292  0.00  0.00    +0.000 C 
ATOM     18  C   UNL     1       7.131   4.313  12.550  0.00  0.00    +0.000 C 
BRANCH  12  19
ATOM     19  C   UNL     1       7.302   6.093  17.099  0.00  0.00    +0.000 A 
ATOM     20  C   UNL     1       7.593   7.455  17.108  0.00  0.00    +0.000 A 
ATOM     21  C   UNL     1       8.204   8.007  18.233  0.00  0.00    +0.000 A 
ATOM     22  C   UNL     1       8.505   7.190  19.315  0.00  0.00    +0.000 A 
ATOM     23  C   UNL     1       8.149   5.855  19.243  0.00  0.00    +0.000 A 
ATOM     24  N   UNL     1       7.550   5.296  18.171  0.00  0.00    +0.000 NA
ENDBRANCH  12  19
ENDBRANCH   5  11
BRANCH   1  27
ATOM     25  C   UNL     1       1.059   8.918  20.286  0.00  0.00    +0.000 C 
ATOM     26  O   UNL     1       1.632   8.388  21.235  0.00  0.00    +0.000 OA
ATOM     27  N   UNL     1       1.317   8.691  18.941  0.00  0.00    +0.000 N 
ATOM     28  H   UNL     1       0.957   9.361  18.273  0.00  0.00    +0.000 HD
BRANCH  25  29
ATOM     29  C   UNL     1      -0.042   9.917  20.518  0.00  0.00    +0.000 C 
BRANCH  29  30
ATOM     30  C   UNL     1      -0.627  10.344  19.185  0.00  0.00    +0.000 C 
BRANCH  30  32
ATOM     31  C   UNL     1      -0.871  12.517  18.328  0.00  0.00    +0.000 C 
ATOM     32  O   UNL     1       0.051  11.518  18.746  0.00  0.00    +0.000 OA
ENDBRANCH  30  32
ENDBRANCH  29  30
ENDBRANCH  25  29
ENDBRANCH   1  27
TORSDOF 6
ENDMDL
MODEL 8
REMARK VINA RESULT:      -8.2      4.318      9.487
REMARK  Name = 
REMARK  7 active torsions:
REMARK  status: ('A' for Active; 'I' for Inactive)
REMARK    1  A    between atoms: C_1  and  O_2
REMARK    2  A    between atoms: O_2  and  C_3
REMARK    3  A    between atoms: C_3  and  C_4
REMARK    4  A    between atoms: C_4  and  C_5
REMARK    5  A    between atoms: N_7  and  C_8
REMARK    6  A    between atoms: C_12  and  C_13
REMARK    7  A    between atoms: C_14  and  C_15
REMARK                            x       y       z     vdW  Elec       q    Type
REMARK                         _______ _______ _______ _____ _____    ______ ____
ROOT
ATOM      1  C   UNL     1       2.369   7.191  19.566  0.00  0.00    +0.000 A 
ATOM      2  C   UNL     1       2.191   8.172  18.608  0.00  0.00    +0.000 A 
ATOM      3  C   UNL     1       1.410   9.283  18.895  0.00  0.00    +0.000 A 
ATOM      4  C   UNL     1       0.918   9.531  20.188  0.00  0.00    +0.000 A 
ATOM      5  C   UNL     1       0.343  10.762  20.602  0.00  0.00    +0.000 A 
ATOM      6  C   UNL     1      -0.141  10.840  21.912  0.00  0.00    +0.000 A 
ATOM      7  C   UNL     1      -0.098   9.719  22.717  0.00  0.00    +0.000 A 
ATOM      8  N   UNL     1       0.479   8.557  22.357  0.00  0.00    +0.000 NA
ATOM      9  C   UNL     1       1.013   8.480  21.129  0.00  0.00    +0.000 A 
ATOM     10  C   UNL     1       1.706   7.320  20.789  0.00  0.00    +0.000 A 
ENDROOT
BRANCH   5  11
ATOM     11  C   UNL     1       0.260  11.960  19.741  0.00  0.00    +0.000 A 
ATOM     12  C   UNL     1      -0.732  12.343  18.731  0.00  0.00    +0.000 A 
ATOM     13  N   UNL     1      -0.464  13.573  18.225  0.00  0.00    +0.000 NA
ATOM     14  N   UNL     1       0.639  13.924  18.863  0.00  0.00    +0.000 N 
ATOM     15  C   UNL     1       1.102  13.053  19.786  0.00  0.00    +0.000 A 
ATOM     16  C   UNL     1       2.306  13.623  20.439  0.00  0.00    +0.000 C 
ATOM     17  C   UNL     1       2.242  15.113  20.028  0.00  0.00    +0.000 C 
ATOM     18  C   UNL     1       1.405  15.149  18.740  0.00  0.00    +0.000 C 
BRANCH  12  19
ATOM     19  C   UNL     1      -1.926  11.601  18.281  0.00  0.00    +0.000 A 
ATOM     20  C   UNL     1      -1.803  10.539  17.388  0.00  0.00    +0.000 A 
ATOM     21  C   UNL     1      -2.958   9.954  16.872  0.00  0.00    +0.000 A 
ATOM     22  C   UNL     1      -4.201  10.439  17.261  0.00  0.00    +0.000 A 
ATOM     23  C   UNL     1      -4.238  11.471  18.181  0.00  0.00    +0.000 A 
ATOM     24  N   UNL     1      -3.137  12.051  18.703  0.00  0.00    +0.000 NA
ENDBRANCH  12  19
ENDBRANCH   5  11
BRANCH   1  27
ATOM     25  C   UNL     1       2.711   4.843  18.823  0.00  0.00    +0.000 C 
ATOM     26  O   UNL     1       1.592   4.623  18.366  0.00  0.00    +0.000 OA
ATOM     27  N   UNL     1       3.166   6.051  19.334  0.00  0.00    +0.000 N 
ATOM     28  H   UNL     1       4.166   6.168  19.446  0.00  0.00    +0.000 HD
BRANCH  25  29
ATOM     29  C   UNL     1       3.746   3.751  18.873  0.00  0.00    +0.000 C 
BRANCH  29  30
ATOM     30  C   UNL     1       3.153   2.521  19.534  0.00  0.00    +0.000 C 
BRANCH  30  32
ATOM     31  C   UNL     1       1.808   2.641  21.455  0.00  0.00    +0.000 C 
ATOM     32  O   UNL     1       3.131   2.729  20.944  0.00  0.00    +0.000 OA
ENDBRANCH  30  32
ENDBRANCH  29  30
ENDBRANCH  25  29
ENDBRANCH   1  27
TORSDOF 6
ENDMDL
MODEL 9
REMARK VINA RESULT:      -8.1      1.126      1.415
REMARK  Name = 
REMARK  7 active torsions:
REMARK  status: ('A' for Active; 'I' for Inactive)
REMARK    1  A    between atoms: C_1  and  O_2
REMARK    2  A    between atoms: O_2  and  C_3
REMARK    3  A    between atoms: C_3  and  C_4
REMARK    4  A    between atoms: C_4  and  C_5
REMARK    5  A    between atoms: N_7  and  C_8
REMARK    6  A    between atoms: C_12  and  C_13
REMARK    7  A    between atoms: C_14  and  C_15
REMARK                            x       y       z     vdW  Elec       q    Type
REMARK                         _______ _______ _______ _____ _____    ______ ____
ROOT
ATOM      1  C   UNL     1       2.221   7.603  18.520  0.00  0.00    +0.000 A 
ATOM      2  C   UNL     1       3.384   7.921  17.841  0.00  0.00    +0.000 A 
ATOM      3  C   UNL     1       4.171   6.909  17.310  0.00  0.00    +0.000 A 
ATOM      4  C   UNL     1       3.747   5.569  17.294  0.00  0.00    +0.000 A 
ATOM      5  C   UNL     1       4.376   4.540  16.544  0.00  0.00    +0.000 A 
ATOM      6  C   UNL     1       3.861   3.246  16.665  0.00  0.00    +0.000 A 
ATOM      7  C   UNL     1       2.821   3.011  17.542  0.00  0.00    +0.000 A 
ATOM      8  N   UNL     1       2.185   3.978  18.230  0.00  0.00    +0.000 NA
ATOM      9  C   UNL     1       2.615   5.239  18.076  0.00  0.00    +0.000 A 
ATOM     10  C   UNL     1       1.896   6.256  18.699  0.00  0.00    +0.000 A 
ENDROOT
BRANCH   5  11
ATOM     11  C   UNL     1       5.512   4.770  15.626  0.00  0.00    +0.000 A 
ATOM     12  C   UNL     1       6.801   5.433  15.851  0.00  0.00    +0.000 A 
ATOM     13  N   UNL     1       7.588   5.357  14.748  0.00  0.00    +0.000 NA
ATOM     14  N   UNL     1       6.828   4.708  13.884  0.00  0.00    +0.000 N 
ATOM     15  C   UNL     1       5.619   4.303  14.332  0.00  0.00    +0.000 A 
ATOM     16  C   UNL     1       4.924   3.551  13.259  0.00  0.00    +0.000 C 
ATOM     17  C   UNL     1       6.066   3.251  12.260  0.00  0.00    +0.000 C 
ATOM     18  C   UNL     1       7.132   4.327  12.519  0.00  0.00    +0.000 C 
BRANCH  12  19
ATOM     19  C   UNL     1       7.304   6.082  17.078  0.00  0.00    +0.000 A 
ATOM     20  C   UNL     1       7.614   7.440  17.083  0.00  0.00    +0.000 A 
ATOM     21  C   UNL     1       8.223   7.989  18.210  0.00  0.00    +0.000 A 
ATOM     22  C   UNL     1       8.502   7.173  19.300  0.00  0.00    +0.000 A 
ATOM     23  C   UNL     1       8.128   5.843  19.231  0.00  0.00    +0.000 A 
ATOM     24  N   UNL     1       7.531   5.287  18.156  0.00  0.00    +0.000 NA
ENDBRANCH  12  19
ENDBRANCH   5  11
BRANCH   1  27
ATOM     25  C   UNL     1       1.417   9.944  18.754  0.00  0.00    +0.000 C 
ATOM     26  O   UNL     1       2.087  10.465  17.865  0.00  0.00    +0.000 OA
ATOM     27  N   UNL     1       1.376   8.592  19.064  0.00  0.00    +0.000 N 
ATOM     28  H   UNL     1       0.610   8.265  19.641  0.00  0.00    +0.000 HD
BRANCH  25  29
ATOM     29  C   UNL     1       0.531  10.783  19.637  0.00  0.00    +0.000 C 
BRANCH  29  30
ATOM     30  C   UNL     1      -0.176   9.890  20.638  0.00  0.00    +0.000 C 
BRANCH  30  32
ATOM     31  C   UNL     1      -0.056   9.521  22.954  0.00  0.00    +0.000 C 
ATOM     32  O   UNL     1       0.688   9.684  21.753  0.00  0.00    +0.000 OA
ENDBRANCH  30  32
ENDBRANCH  29  30
ENDBRANCH  25  29
ENDBRANCH   1  27
TORSDOF 6
ENDMDL
