MODEL 1
REMARK VINA RESULT:      -6.8      0.000      0.000
REMARK  Name = 
REMARK  11 active torsions:
REMARK  status: ('A' for Active; 'I' for Inactive)
REMARK    1  A    between atoms: C_1  and  C_2
REMARK    2  A    between atoms: C_2  and  C_3
REMARK    3  A    between atoms: C_3  and  C_4
REMARK    4  A    between atoms: C_4  and  C_5
REMARK    5  A    between atoms: C_6  and  C_7
REMARK    6  A    between atoms: C_6  and  N_13
REMARK    7  A    between atoms: N_13  and  C_14
REMARK    8  A    between atoms: C_14  and  C_15
REMARK    9  A    between atoms: C_15  and  O_16
REMARK   10  A    between atoms: O_16  and  C_17
REMARK   11  A    between atoms: C_18  and  C_20
REMARK                            x       y       z     vdW  Elec       q    Type
REMARK                         _______ _______ _______ _____ _____    ______ ____
ROOT
ATOM      1  C   UNL     1       2.818   4.733  17.734  0.00  0.00    +0.000 C 
ATOM      2  C   UNL     1       3.506   5.856  18.027  0.00  0.00    +0.000 C 
ENDROOT
BRANCH   2   3
ATOM      3  C   UNL     1       2.717   7.009  18.566  0.00  0.00    +0.000 A 
ATOM      4  C   UNL     1       2.328   7.091  19.908  0.00  0.00    +0.000 A 
ATOM      5  C   UNL     1       1.544   8.160  20.365  0.00  0.00    +0.000 A 
ATOM      6  C   UNL     1       1.162   9.179  19.490  0.00  0.00    +0.000 A 
ATOM      7  C   UNL     1       1.516   9.099  18.148  0.00  0.00    +0.000 A 
ATOM      8  C   UNL     1       2.255   8.004  17.682  0.00  0.00    +0.000 A 
ENDBRANCH   2   3
BRANCH   2   9
ATOM      9  N   UNL     1       4.906   6.030  17.815  0.00  0.00    +0.000 N 
ATOM     10  C   UNL     1       5.854   5.607  18.797  0.00  0.00    +0.000 C 
ATOM     11  O   UNL     1       5.497   5.032  19.834  0.00  0.00    +0.000 OA
BRANCH  10  12
ATOM     12  C   UNL     1       7.345   5.799  18.474  0.00  0.00    +0.000 C 
ATOM     13 CL   UNL     1       8.086   4.363  17.719  0.00  0.00    +0.000 Cl
ENDBRANCH  10  12
BRANCH   9  14
ATOM     14  C   UNL     1       5.474   6.610  16.581  0.00  0.00    +0.000 C 
BRANCH  14  15
ATOM     15  C   UNL     1       5.414   5.876  15.253  0.00  0.00    +0.000 C 
BRANCH  15  16
ATOM     16  O   UNL     1       6.642   5.393  14.733  0.00  0.00    +0.000 OA
ATOM     17  C   UNL     1       6.431   4.040  14.311  0.00  0.00    +0.000 C 
ENDBRANCH  15  16
ENDBRANCH  14  15
ENDBRANCH   9  14
ENDBRANCH   2   9
BRANCH   1  18
ATOM     18  C   UNL     1       1.353   4.404  17.950  0.00  0.00    +0.000 C 
BRANCH  18  19
ATOM     19  C   UNL     1       1.158   3.304  18.998  0.00  0.00    +0.000 C 
BRANCH  19  21
ATOM     20  C   UNL     1       1.987   3.420  21.374  0.00  0.00    +0.000 C 
ATOM     21  C   UNL     1       0.912   3.874  20.396  0.00  0.00    +0.000 C 
ENDBRANCH  19  21
ENDBRANCH  18  19
ENDBRANCH   1  18
TORSDOF 9
ENDMDL
MODEL 2
REMARK VINA RESULT:      -6.7      2.444      5.790
REMARK  Name = 
REMARK  11 active torsions:
REMARK  status: ('A' for Active; 'I' for Inactive)
REMARK    1  A    between atoms: C_1  and  C_2
REMARK    2  A    between atoms: C_2  and  C_3
REMARK    3  A    between atoms: C_3  and  C_4
REMARK    4  A    between atoms: C_4  and  C_5
REMARK    5  A    between atoms: C_6  and  C_7
REMARK    6  A    between atoms: C_6  and  N_13
REMARK    7  A    between atoms: N_13  and  C_14
REMARK    8  A    between atoms: C_14  and  C_15
REMARK    9  A    between atoms: C_15  and  O_16
REMARK   10  A    between atoms: O_16  and  C_17
REMARK   11  A    between atoms: C_18  and  C_20
REMARK                            x       y       z     vdW  Elec       q    Type
REMARK                         _______ _______ _______ _____ _____    ______ ____
ROOT
ATOM      1  C   UNL     1       4.814   3.880  16.513  0.00  0.00    +0.000 C 
ATOM      2  C   UNL     1       4.671   4.737  17.546  0.00  0.00    +0.000 C 
ENDROOT
BRANCH   2   3
ATOM      3  C   UNL     1       5.835   5.630  17.848  0.00  0.00    +0.000 A 
ATOM      4  C   UNL     1       6.070   6.820  17.149  0.00  0.00    +0.000 A 
ATOM      5  C   UNL     1       7.199   7.603  17.424  0.00  0.00    +0.000 A 
ATOM      6  C   UNL     1       8.096   7.221  18.424  0.00  0.00    +0.000 A 
ATOM      7  C   UNL     1       7.893   6.028  19.108  0.00  0.00    +0.000 A 
ATOM      8  C   UNL     1       6.792   5.221  18.797  0.00  0.00    +0.000 A 
ENDBRANCH   2   3
BRANCH   2   9
ATOM      9  N   UNL     1       3.520   4.813  18.385  0.00  0.00    +0.000 N 
ATOM     10  C   UNL     1       3.346   3.903  19.474  0.00  0.00    +0.000 C 
ATOM     11  O   UNL     1       4.208   3.059  19.756  0.00  0.00    +0.000 OA
BRANCH  10  12
ATOM     12  C   UNL     1       2.096   4.076  20.352  0.00  0.00    +0.000 C 
ATOM     13 CL   UNL     1       2.059   2.961  21.743  0.00  0.00    +0.000 Cl
ENDBRANCH  10  12
BRANCH   9  14
ATOM     14  C   UNL     1       2.464   5.833  18.226  0.00  0.00    +0.000 C 
BRANCH  14  15
ATOM     15  C   UNL     1       2.616   7.234  18.791  0.00  0.00    +0.000 C 
BRANCH  15  16
ATOM     16  O   UNL     1       2.885   8.272  17.861  0.00  0.00    +0.000 OA
ATOM     17  C   UNL     1       1.731   9.120  17.814  0.00  0.00    +0.000 C 
ENDBRANCH  15  16
ENDBRANCH  14  15
ENDBRANCH   9  14
ENDBRANCH   2   9
BRANCH   1  18
ATOM     18  C   UNL     1       5.955   3.729  15.525  0.00  0.00    +0.000 C 
BRANCH  18  19
ATOM     19  C   UNL     1       5.660   4.431  14.195  0.00  0.00    +0.000 C 
BRANCH  19  21
ATOM     20  C   UNL     1       5.106   3.266  12.031  0.00  0.00    +0.000 C 
ATOM     21  C   UNL     1       6.215   3.657  12.998  0.00  0.00    +0.000 C 
ENDBRANCH  19  21
ENDBRANCH  18  19
ENDBRANCH   1  18
TORSDOF 9
ENDMDL
MODEL 3
REMARK VINA RESULT:      -6.7      0.950      1.420
REMARK  Name = 
REMARK  11 active torsions:
REMARK  status: ('A' for Active; 'I' for Inactive)
REMARK    1  A    between atoms: C_1  and  C_2
REMARK    2  A    between atoms: C_2  and  C_3
REMARK    3  A    between atoms: C_3  and  C_4
REMARK    4  A    between atoms: C_4  and  C_5
REMARK    5  A    between atoms: C_6  and  C_7
REMARK    6  A    between atoms: C_6  and  N_13
REMARK    7  A    between atoms: N_13  and  C_14
REMARK    8  A    between atoms: C_14  and  C_15
REMARK    9  A    between atoms: C_15  and  O_16
REMARK   10  A    between atoms: O_16  and  C_17
REMARK   11  A    between atoms: C_18  and  C_20
REMARK                            x       y       z     vdW  Elec       q    Type
REMARK                         _______ _______ _______ _____ _____    ______ ____
ROOT
ATOM      1  C   UNL     1       3.003   4.359  17.579  0.00  0.00    +0.000 C 
ATOM      2  C   UNL     1       3.716   5.485  17.796  0.00  0.00    +0.000 C 
ENDROOT
BRANCH   2   3
ATOM      3  C   UNL     1       2.953   6.685  18.268  0.00  0.00    +0.000 A 
ATOM      4  C   UNL     1       2.733   7.802  17.453  0.00  0.00    +0.000 A 
ATOM      5  C   UNL     1       2.060   8.929  17.946  0.00  0.00    +0.000 A 
ATOM      6  C   UNL     1       1.571   8.943  19.254  0.00  0.00    +0.000 A 
ATOM      7  C   UNL     1       1.807   7.853  20.085  0.00  0.00    +0.000 A 
ATOM      8  C   UNL     1       2.524   6.749  19.607  0.00  0.00    +0.000 A 
ENDBRANCH   2   3
BRANCH   2   9
ATOM      9  N   UNL     1       5.116   5.617  17.564  0.00  0.00    +0.000 N 
ATOM     10  C   UNL     1       6.051   5.517  18.641  0.00  0.00    +0.000 C 
ATOM     11  O   UNL     1       5.682   5.261  19.795  0.00  0.00    +0.000 OA
BRANCH  10  12
ATOM     12  C   UNL     1       7.545   5.636  18.299  0.00  0.00    +0.000 C 
ATOM     13 CL   UNL     1       8.173   7.295  18.483  0.00  0.00    +0.000 Cl
ENDBRANCH  10  12
BRANCH   9  14
ATOM     14  C   UNL     1       5.702   5.824  16.224  0.00  0.00    +0.000 C 
BRANCH  14  15
ATOM     15  C   UNL     1       6.122   4.658  15.348  0.00  0.00    +0.000 C 
BRANCH  15  16
ATOM     16  O   UNL     1       5.329   4.401  14.201  0.00  0.00    +0.000 OA
ATOM     17  C   UNL     1       6.155   3.724  13.245  0.00  0.00    +0.000 C 
ENDBRANCH  15  16
ENDBRANCH  14  15
ENDBRANCH   9  14
ENDBRANCH   2   9
BRANCH   1  18
ATOM     18  C   UNL     1       1.534   4.075  17.825  0.00  0.00    +0.000 C 
BRANCH  18  19
ATOM     19  C   UNL     1       1.328   2.991  18.890  0.00  0.00    +0.000 C 
BRANCH  19  21
ATOM     20  C   UNL     1       1.926   3.482  21.287  0.00  0.00    +0.000 C 
ATOM     21  C   UNL     1       0.845   3.573  20.219  0.00  0.00    +0.000 C 
ENDBRANCH  19  21
ENDBRANCH  18  19
ENDBRANCH   1  18
TORSDOF 9
ENDMDL
MODEL 4
REMARK VINA RESULT:      -6.3      1.383      2.147
REMARK  Name = 
REMARK  11 active torsions:
REMARK  status: ('A' for Active; 'I' for Inactive)
REMARK    1  A    between atoms: C_1  and  C_2
REMARK    2  A    between atoms: C_2  and  C_3
REMARK    3  A    between atoms: C_3  and  C_4
REMARK    4  A    between atoms: C_4  and  C_5
REMARK    5  A    between atoms: C_6  and  C_7
REMARK    6  A    between atoms: C_6  and  N_13
REMARK    7  A    between atoms: N_13  and  C_14
REMARK    8  A    between atoms: C_14  and  C_15
REMARK    9  A    between atoms: C_15  and  O_16
REMARK   10  A    between atoms: O_16  and  C_17
REMARK   11  A    between atoms: C_18  and  C_20
REMARK                            x       y       z     vdW  Elec       q    Type
REMARK                         _______ _______ _______ _____ _____    ______ ____
ROOT
ATOM      1  C   UNL     1       2.805   4.215  17.642  0.00  0.00    +0.000 C 
ATOM      2  C   UNL     1       3.558   5.296  17.938  0.00  0.00    +0.000 C 
ENDROOT
BRANCH   2   3
ATOM      3  C   UNL     1       2.831   6.506  18.439  0.00  0.00    +0.000 A 
ATOM      4  C   UNL     1       2.541   7.601  17.616  0.00  0.00    +0.000 A 
ATOM      5  C   UNL     1       1.905   8.739  18.133  0.00  0.00    +0.000 A 
ATOM      6  C   UNL     1       1.524   8.785  19.476  0.00  0.00    +0.000 A 
ATOM      7  C   UNL     1       1.829   7.718  20.313  0.00  0.00    +0.000 A 
ATOM      8  C   UNL     1       2.510   6.603  19.806  0.00  0.00    +0.000 A 
ENDBRANCH   2   3
BRANCH   2   9
ATOM      9  N   UNL     1       4.971   5.375  17.763  0.00  0.00    +0.000 N 
ATOM     10  C   UNL     1       5.852   4.550  18.528  0.00  0.00    +0.000 C 
ATOM     11  O   UNL     1       5.419   3.707  19.325  0.00  0.00    +0.000 OA
BRANCH  10  12
ATOM     12  C   UNL     1       7.359   4.673  18.251  0.00  0.00    +0.000 C 
ATOM     13 CL   UNL     1       8.214   5.656  19.469  0.00  0.00    +0.000 Cl
ENDBRANCH  10  12
BRANCH   9  14
ATOM     14  C   UNL     1       5.618   6.264  16.777  0.00  0.00    +0.000 C 
BRANCH  14  15
ATOM     15  C   UNL     1       6.201   7.608  17.175  0.00  0.00    +0.000 C 
BRANCH  15  16
ATOM     16  O   UNL     1       7.589   7.795  16.948  0.00  0.00    +0.000 OA
ATOM     17  C   UNL     1       8.026   8.864  17.796  0.00  0.00    +0.000 C 
ENDBRANCH  15  16
ENDBRANCH  14  15
ENDBRANCH   9  14
ENDBRANCH   2   9
BRANCH   1  18
ATOM     18  C   UNL     1       1.317   3.985  17.822  0.00  0.00    +0.000 C 
BRANCH  18  19
ATOM     19  C   UNL     1       1.019   2.653  18.518  0.00  0.00    +0.000 C 
BRANCH  19  21
ATOM     20  C   UNL     1       1.215   3.395  20.917  0.00  0.00    +0.000 C 
ATOM     21  C   UNL     1       1.793   2.501  19.829  0.00  0.00    +0.000 C 
ENDBRANCH  19  21
ENDBRANCH  18  19
ENDBRANCH   1  18
TORSDOF 9
ENDMDL
MODEL 5
REMARK VINA RESULT:      -6.2      2.178      4.437
REMARK  Name = 
REMARK  11 active torsions:
REMARK  status: ('A' for Active; 'I' for Inactive)
REMARK    1  A    between atoms: C_1  and  C_2
REMARK    2  A    between atoms: C_2  and  C_3
REMARK    3  A    between atoms: C_3  and  C_4
REMARK    4  A    between atoms: C_4  and  C_5
REMARK    5  A    between atoms: C_6  and  C_7
REMARK    6  A    between atoms: C_6  and  N_13
REMARK    7  A    between atoms: N_13  and  C_14
REMARK    8  A    between atoms: C_14  and  C_15
REMARK    9  A    between atoms: C_15  and  O_16
REMARK   10  A    between atoms: O_16  and  C_17
REMARK   11  A    between atoms: C_18  and  C_20
REMARK                            x       y       z     vdW  Elec       q    Type
REMARK                         _______ _______ _______ _____ _____    ______ ____
ROOT
ATOM      1  C   UNL     1       3.855   6.499  17.420  0.00  0.00    +0.000 C 
ATOM      2  C   UNL     1       4.569   5.396  17.108  0.00  0.00    +0.000 C 
ENDROOT
BRANCH   2   3
ATOM      3  C   UNL     1       4.078   4.095  17.666  0.00  0.00    +0.000 A 
ATOM      4  C   UNL     1       2.926   3.460  17.187  0.00  0.00    +0.000 A 
ATOM      5  C   UNL     1       2.467   2.270  17.769  0.00  0.00    +0.000 A 
ATOM      6  C   UNL     1       3.172   1.682  18.821  0.00  0.00    +0.000 A 
ATOM      7  C   UNL     1       4.302   2.314  19.327  0.00  0.00    +0.000 A 
ATOM      8  C   UNL     1       4.730   3.530  18.778  0.00  0.00    +0.000 A 
ENDBRANCH   2   3
BRANCH   2   9
ATOM      9  N   UNL     1       5.767   5.396  16.336  0.00  0.00    +0.000 N 
ATOM     10  C   UNL     1       5.807   4.781  15.046  0.00  0.00    +0.000 C 
ATOM     11  O   UNL     1       4.796   4.280  14.537  0.00  0.00    +0.000 OA
BRANCH  10  12
ATOM     12  C   UNL     1       7.129   4.857  14.264  0.00  0.00    +0.000 C 
ATOM     13 CL   UNL     1       7.005   4.183  12.617  0.00  0.00    +0.000 Cl
ENDBRANCH  10  12
BRANCH   9  14
ATOM     14  C   UNL     1       7.018   6.045  16.777  0.00  0.00    +0.000 C 
BRANCH  14  15
ATOM     15  C   UNL     1       7.432   6.072  18.237  0.00  0.00    +0.000 C 
BRANCH  15  16
ATOM     16  O   UNL     1       8.243   7.159  18.652  0.00  0.00    +0.000 OA
ATOM     17  C   UNL     1       7.943   8.272  17.801  0.00  0.00    +0.000 C 
ENDBRANCH  15  16
ENDBRANCH  14  15
ENDBRANCH   9  14
ENDBRANCH   2   9
BRANCH   1  18
ATOM     18  C   UNL     1       2.553   6.631  18.187  0.00  0.00    +0.000 C 
BRANCH  18  19
ATOM     19  C   UNL     1       2.774   6.627  19.703  0.00  0.00    +0.000 C 
BRANCH  19  21
ATOM     20  C   UNL     1       2.030   4.593  20.989  0.00  0.00    +0.000 C 
ATOM     21  C   UNL     1       1.622   5.958  20.453  0.00  0.00    +0.000 C 
ENDBRANCH  19  21
ENDBRANCH  18  19
ENDBRANCH   1  18
TORSDOF 9
ENDMDL
MODEL 6
REMARK VINA RESULT:      -6.2      2.607      5.838
REMARK  Name = 
REMARK  11 active torsions:
REMARK  status: ('A' for Active; 'I' for Inactive)
REMARK    1  A    between atoms: C_1  and  C_2
REMARK    2  A    between atoms: C_2  and  C_3
REMARK    3  A    between atoms: C_3  and  C_4
REMARK    4  A    between atoms: C_4  and  C_5
REMARK    5  A    between atoms: C_6  and  C_7
REMARK    6  A    between atoms: C_6  and  N_13
REMARK    7  A    between atoms: N_13  and  C_14
REMARK    8  A    between atoms: C_14  and  C_15
REMARK    9  A    between atoms: C_15  and  O_16
REMARK   10  A    between atoms: O_16  and  C_17
REMARK   11  A    between atoms: C_18  and  C_20
REMARK                            x       y       z     vdW  Elec       q    Type
REMARK                         _______ _______ _______ _____ _____    ______ ____
ROOT
ATOM      1  C   UNL     1       4.715   4.084  16.412  0.00  0.00    +0.000 C 
ATOM      2  C   UNL     1       4.641   4.911  17.476  0.00  0.00    +0.000 C 
ENDROOT
BRANCH   2   3
ATOM      3  C   UNL     1       5.904   5.613  17.873  0.00  0.00    +0.000 A 
ATOM      4  C   UNL     1       6.685   5.197  18.958  0.00  0.00    +0.000 A 
ATOM      5  C   UNL     1       7.832   5.910  19.333  0.00  0.00    +0.000 A 
ATOM      6  C   UNL     1       8.231   7.036  18.608  0.00  0.00    +0.000 A 
ATOM      7  C   UNL     1       7.451   7.479  17.546  0.00  0.00    +0.000 A 
ATOM      8  C   UNL     1       6.277   6.795  17.205  0.00  0.00    +0.000 A 
ENDBRANCH   2   3
BRANCH   2   9
ATOM      9  N   UNL     1       3.471   5.118  18.264  0.00  0.00    +0.000 N 
ATOM     10  C   UNL     1       2.666   4.015  18.686  0.00  0.00    +0.000 C 
ATOM     11  O   UNL     1       2.985   2.846  18.427  0.00  0.00    +0.000 OA
BRANCH  10  12
ATOM     12  C   UNL     1       1.442   4.322  19.563  0.00  0.00    +0.000 C 
ATOM     13 CL   UNL     1       1.188   3.118  20.854  0.00  0.00    +0.000 Cl
ENDBRANCH  10  12
BRANCH   9  14
ATOM     14  C   UNL     1       3.030   6.449  18.729  0.00  0.00    +0.000 C 
BRANCH  14  15
ATOM     15  C   UNL     1       2.813   7.600  17.763  0.00  0.00    +0.000 C 
BRANCH  15  16
ATOM     16  O   UNL     1       1.609   8.336  17.906  0.00  0.00    +0.000 OA
ATOM     17  C   UNL     1       1.950   9.728  17.906  0.00  0.00    +0.000 C 
ENDBRANCH  15  16
ENDBRANCH  14  15
ENDBRANCH   9  14
ENDBRANCH   2   9
BRANCH   1  18
ATOM     18  C   UNL     1       5.873   3.811  15.470  0.00  0.00    +0.000 C 
BRANCH  18  19
ATOM     19  C   UNL     1       5.671   4.472  14.103  0.00  0.00    +0.000 C 
BRANCH  19  21
ATOM     20  C   UNL     1       4.970   3.308  11.981  0.00  0.00    +0.000 C 
ATOM     21  C   UNL     1       6.114   3.566  12.952  0.00  0.00    +0.000 C 
ENDBRANCH  19  21
ENDBRANCH  18  19
ENDBRANCH   1  18
TORSDOF 9
ENDMDL
MODEL 7
REMARK VINA RESULT:      -6.2      2.881      5.942
REMARK  Name = 
REMARK  11 active torsions:
REMARK  status: ('A' for Active; 'I' for Inactive)
REMARK    1  A    between atoms: C_1  and  C_2
REMARK    2  A    between atoms: C_2  and  C_3
REMARK    3  A    between atoms: C_3  and  C_4
REMARK    4  A    between atoms: C_4  and  C_5
REMARK    5  A    between atoms: C_6  and  C_7
REMARK    6  A    between atoms: C_6  and  N_13
REMARK    7  A    between atoms: N_13  and  C_14
REMARK    8  A    between atoms: C_14  and  C_15
REMARK    9  A    between atoms: C_15  and  O_16
REMARK   10  A    between atoms: O_16  and  C_17
REMARK   11  A    between atoms: C_18  and  C_20
REMARK                            x       y       z     vdW  Elec       q    Type
REMARK                         _______ _______ _______ _____ _____    ______ ____
ROOT
ATOM      1  C   UNL     1       5.044   3.963  16.637  0.00  0.00    +0.000 C 
ATOM      2  C   UNL     1       5.007   4.730  17.748  0.00  0.00    +0.000 C 
ENDROOT
BRANCH   2   3
ATOM      3  C   UNL     1       6.160   5.663  17.961  0.00  0.00    +0.000 A 
ATOM      4  C   UNL     1       7.111   5.463  18.969  0.00  0.00    +0.000 A 
ATOM      5  C   UNL     1       8.146   6.385  19.173  0.00  0.00    +0.000 A 
ATOM      6  C   UNL     1       8.263   7.508  18.350  0.00  0.00    +0.000 A 
ATOM      7  C   UNL     1       7.311   7.736  17.363  0.00  0.00    +0.000 A 
ATOM      8  C   UNL     1       6.247   6.840  17.195  0.00  0.00    +0.000 A 
ENDBRANCH   2   3
BRANCH   2   9
ATOM      9  N   UNL     1       3.984   4.676  18.739  0.00  0.00    +0.000 N 
ATOM     10  C   UNL     1       3.040   5.740  18.876  0.00  0.00    +0.000 C 
ATOM     11  O   UNL     1       3.046   6.713  18.110  0.00  0.00    +0.000 OA
BRANCH  10  12
ATOM     12  C   UNL     1       1.946   5.586  19.946  0.00  0.00    +0.000 C 
ATOM     13 CL   UNL     1       1.542   7.123  20.757  0.00  0.00    +0.000 Cl
ENDBRANCH  10  12
BRANCH   9  14
ATOM     14  C   UNL     1       3.797   3.530  19.653  0.00  0.00    +0.000 C 
BRANCH  14  15
ATOM     15  C   UNL     1       3.103   2.257  19.204  0.00  0.00    +0.000 C 
BRANCH  15  16
ATOM     16  O   UNL     1       1.809   2.014  19.732  0.00  0.00    +0.000 OA
ATOM     17  C   UNL     1       0.857   2.335  18.710  0.00  0.00    +0.000 C 
ENDBRANCH  15  16
ENDBRANCH  14  15
ENDBRANCH   9  14
ENDBRANCH   2   9
BRANCH   1  18
ATOM     18  C   UNL     1       6.040   3.954  15.493  0.00  0.00    +0.000 C 
BRANCH  18  19
ATOM     19  C   UNL     1       5.385   4.318  14.157  0.00  0.00    +0.000 C 
BRANCH  19  21
ATOM     20  C   UNL     1       5.033   3.283  11.888  0.00  0.00    +0.000 C 
ATOM     21  C   UNL     1       6.047   3.605  12.976  0.00  0.00    +0.000 C 
ENDBRANCH  19  21
ENDBRANCH  18  19
ENDBRANCH   1  18
TORSDOF 9
ENDMDL
MODEL 8
REMARK VINA RESULT:      -6.1      2.515      6.091
REMARK  Name = 
REMARK  11 active torsions:
REMARK  status: ('A' for Active; 'I' for Inactive)
REMARK    1  A    between atoms: C_1  and  C_2
REMARK    2  A    between atoms: C_2  and  C_3
REMARK    3  A    between atoms: C_3  and  C_4
REMARK    4  A    between atoms: C_4  and  C_5
REMARK    5  A    between atoms: C_6  and  C_7
REMARK    6  A    between atoms: C_6  and  N_13
REMARK    7  A    between atoms: N_13  and  C_14
REMARK    8  A    between atoms: C_14  and  C_15
REMARK    9  A    between atoms: C_15  and  O_16
REMARK   10  A    between atoms: O_16  and  C_17
REMARK   11  A    between atoms: C_18  and  C_20
REMARK                            x       y       z     vdW  Elec       q    Type
REMARK                         _______ _______ _______ _____ _____    ______ ____
ROOT
ATOM      1  C   UNL     1       4.636   4.645  15.729  0.00  0.00    +0.000 C 
ATOM      2  C   UNL     1       4.590   5.026  17.023  0.00  0.00    +0.000 C 
ENDROOT
BRANCH   2   3
ATOM      3  C   UNL     1       5.785   5.758  17.553  0.00  0.00    +0.000 A 
ATOM      4  C   UNL     1       6.160   7.022  17.081  0.00  0.00    +0.000 A 
ATOM      5  C   UNL     1       7.315   7.654  17.562  0.00  0.00    +0.000 A 
ATOM      6  C   UNL     1       8.095   7.044  18.547  0.00  0.00    +0.000 A 
ATOM      7  C   UNL     1       7.752   5.777  19.006  0.00  0.00    +0.000 A 
ATOM      8  C   UNL     1       6.627   5.125  18.486  0.00  0.00    +0.000 A 
ENDBRANCH   2   3
BRANCH   2   9
ATOM      9  N   UNL     1       3.518   4.737  17.918  0.00  0.00    +0.000 N 
ATOM     10  C   UNL     1       3.383   3.441  18.505  0.00  0.00    +0.000 C 
ATOM     11  O   UNL     1       4.216   2.548  18.300  0.00  0.00    +0.000 OA
BRANCH  10  12
ATOM     12  C   UNL     1       2.219   3.224  19.487  0.00  0.00    +0.000 C 
ATOM     13 CL   UNL     1       0.796   2.466  18.726  0.00  0.00    +0.000 Cl
ENDBRANCH  10  12
BRANCH   9  14
ATOM     14  C   UNL     1       2.511   5.737  18.329  0.00  0.00    +0.000 C 
BRANCH  14  15
ATOM     15  C   UNL     1       2.762   6.697  19.477  0.00  0.00    +0.000 C 
BRANCH  15  16
ATOM     16  O   UNL     1       1.771   6.754  20.491  0.00  0.00    +0.000 OA
ATOM     17  C   UNL     1       1.455   8.135  20.708  0.00  0.00    +0.000 C 
ENDBRANCH  15  16
ENDBRANCH  14  15
ENDBRANCH   9  14
ENDBRANCH   2   9
BRANCH   1  18
ATOM     18  C   UNL     1       5.684   4.923  14.669  0.00  0.00    +0.000 C 
BRANCH  18  19
ATOM     19  C   UNL     1       6.272   3.633  14.087  0.00  0.00    +0.000 C 
BRANCH  19  21
ATOM     20  C   UNL     1       4.811   3.409  12.048  0.00  0.00    +0.000 C 
ATOM     21  C   UNL     1       6.230   3.617  12.558  0.00  0.00    +0.000 C 
ENDBRANCH  19  21
ENDBRANCH  18  19
ENDBRANCH   1  18
TORSDOF 9
ENDMDL
MODEL 9
REMARK VINA RESULT:      -6.1      2.277      4.366
REMARK  Name = 
REMARK  11 active torsions:
REMARK  status: ('A' for Active; 'I' for Inactive)
REMARK    1  A    between atoms: C_1  and  C_2
REMARK    2  A    between atoms: C_2  and  C_3
REMARK    3  A    between atoms: C_3  and  C_4
REMARK    4  A    between atoms: C_4  and  C_5
REMARK    5  A    between atoms: C_6  and  C_7
REMARK    6  A    between atoms: C_6  and  N_13
REMARK    7  A    between atoms: N_13  and  C_14
REMARK    8  A    between atoms: C_14  and  C_15
REMARK    9  A    between atoms: C_15  and  O_16
REMARK   10  A    between atoms: O_16  and  C_17
REMARK   11  A    between atoms: C_18  and  C_20
REMARK                            x       y       z     vdW  Elec       q    Type
REMARK                         _______ _______ _______ _____ _____    ______ ____
ROOT
ATOM      1  C   UNL     1       3.830   6.532  17.533  0.00  0.00    +0.000 C 
ATOM      2  C   UNL     1       4.575   5.432  17.291  0.00  0.00    +0.000 C 
ENDROOT
BRANCH   2   3
ATOM      3  C   UNL     1       4.074   4.140  17.860  0.00  0.00    +0.000 A 
ATOM      4  C   UNL     1       4.710   3.494  18.927  0.00  0.00    +0.000 A 
ATOM      5  C   UNL     1       4.243   2.258  19.399  0.00  0.00    +0.000 A 
ATOM      6  C   UNL     1       3.115   1.666  18.827  0.00  0.00    +0.000 A 
ATOM      7  C   UNL     1       2.490   2.280  17.748  0.00  0.00    +0.000 A 
ATOM      8  C   UNL     1       2.988   3.489  17.245  0.00  0.00    +0.000 A 
ENDBRANCH   2   3
BRANCH   2   9
ATOM      9  N   UNL     1       5.812   5.430  16.582  0.00  0.00    +0.000 N 
ATOM     10  C   UNL     1       5.890   4.928  15.246  0.00  0.00    +0.000 C 
ATOM     11  O   UNL     1       4.882   4.532  14.644  0.00  0.00    +0.000 OA
BRANCH  10  12
ATOM     12  C   UNL     1       7.254   4.995  14.540  0.00  0.00    +0.000 C 
ATOM     13 CL   UNL     1       7.173   4.541  12.818  0.00  0.00    +0.000 Cl
ENDBRANCH  10  12
BRANCH   9  14
ATOM     14  C   UNL     1       7.070   5.965  17.141  0.00  0.00    +0.000 C 
BRANCH  14  15
ATOM     15  C   UNL     1       7.273   7.452  17.368  0.00  0.00    +0.000 C 
BRANCH  15  16
ATOM     16  O   UNL     1       8.241   7.824  18.336  0.00  0.00    +0.000 OA
ATOM     17  C   UNL     1       8.447   9.238  18.221  0.00  0.00    +0.000 C 
ENDBRANCH  15  16
ENDBRANCH  14  15
ENDBRANCH   9  14
ENDBRANCH   2   9
BRANCH   1  18
ATOM     18  C   UNL     1       2.487   6.664  18.227  0.00  0.00    +0.000 C 
BRANCH  18  19
ATOM     19  C   UNL     1       2.621   6.623  19.753  0.00  0.00    +0.000 C 
BRANCH  19  21
ATOM     20  C   UNL     1       2.143   4.584  21.152  0.00  0.00    +0.000 C 
ATOM     21  C   UNL     1       1.537   5.764  20.405  0.00  0.00    +0.000 C 
ENDBRANCH  19  21
ENDBRANCH  18  19
ENDBRANCH   1  18
TORSDOF 9
ENDMDL
