MODEL 1
REMARK VINA RESULT:      -7.0      0.000      0.000
REMARK  Name = 
REMARK  10 active torsions:
REMARK  status: ('A' for Active; 'I' for Inactive)
REMARK    1  A    between atoms: C_2  and  C_3
REMARK    2  A    between atoms: C_2  and  C_16
REMARK    3  A    between atoms: C_3  and  C_4
REMARK    4  A    between atoms: C_4  and  C_5
REMARK    5  A    between atoms: C_4  and  C_13
REMARK    6  A    between atoms: C_5  and  C_6
REMARK    7  A    between atoms: C_13  and  O_15
REMARK    8  A    between atoms: C_16  and  S_17
REMARK    9  A    between atoms: C_16  and  C_18
REMARK   10  A    between atoms: C_18  and  C_19
REMARK                            x       y       z     vdW  Elec       q    Type
REMARK                         _______ _______ _______ _____ _____    ______ ____
ROOT
ATOM      1  C   UNL     1       5.319   4.772  19.550  0.00  0.00    +0.000 C 
ENDROOT
BRANCH   1   3
ATOM      2  O   UNL     1       4.301   2.893  18.456  0.00  0.00    +0.000 OA
ATOM      3  C   UNL     1       4.137   4.018  18.942  0.00  0.00    +0.000 C 
BRANCH   3   4
ATOM      4  C   UNL     1       2.767   4.693  18.947  0.00  0.00    +0.000 C 
BRANCH   4   5
ATOM      5  S   UNL     1       1.438   3.436  18.984  0.00  0.00    +0.000 S 
ATOM      6  H   UNL     1       1.154   3.481  20.292  0.00  0.00    +0.000 HD
ENDBRANCH   4   5
BRANCH   4   7
ATOM      7  C   UNL     1       2.619   5.729  20.075  0.00  0.00    +0.000 C 
BRANCH   7   8
ATOM      8  C   UNL     1       2.252   7.112  19.569  0.00  0.00    +0.000 A 
ATOM      9  C   UNL     1       1.576   8.036  20.381  0.00  0.00    +0.000 A 
ATOM     10  C   UNL     1       1.133   9.252  19.861  0.00  0.00    +0.000 A 
ATOM     11  C   UNL     1       1.396   9.581  18.536  0.00  0.00    +0.000 A 
ATOM     12  C   UNL     1       2.119   8.703  17.733  0.00  0.00    +0.000 A 
ATOM     13  C   UNL     1       2.552   7.477  18.247  0.00  0.00    +0.000 A 
ENDBRANCH   7   8
ENDBRANCH   4   7
ENDBRANCH   3   4
ENDBRANCH   1   3
BRANCH   1  14
ATOM     14  C   UNL     1       6.421   5.067  18.534  0.00  0.00    +0.000 C 
BRANCH  14  15
ATOM     15  C   UNL     1       7.546   5.837  19.198  0.00  0.00    +0.000 C 
ATOM     16  O   UNL     1       8.119   6.789  18.686  0.00  0.00    +0.000 OA
BRANCH  15  17
ATOM     17  O   UNL     1       7.856   5.402  20.436  0.00  0.00    +0.000 OA
ATOM     18  H   UNL     1       7.658   4.444  20.576  0.00  0.00    +0.000 HD
ENDBRANCH  15  17
ENDBRANCH  14  15
BRANCH  14  19
ATOM     19  C   UNL     1       5.880   5.935  17.376  0.00  0.00    +0.000 C 
BRANCH  19  20
ATOM     20  C   UNL     1       5.995   5.337  15.991  0.00  0.00    +0.000 A 
ATOM     21  C   UNL     1       7.216   5.395  15.301  0.00  0.00    +0.000 A 
ATOM     22  C   UNL     1       7.368   4.759  14.066  0.00  0.00    +0.000 A 
ATOM     23  C   UNL     1       6.297   4.063  13.514  0.00  0.00    +0.000 A 
ATOM     24 BR   UNL     1       6.519   3.145  11.876  0.00  0.00    +0.000 Br
ATOM     25  C   UNL     1       5.070   4.018  14.170  0.00  0.00    +0.000 A 
ATOM     26  C   UNL     1       4.919   4.655  15.407  0.00  0.00    +0.000 A 
ENDBRANCH  19  20
ENDBRANCH  14  19
ENDBRANCH   1  14
TORSDOF 10
ENDMDL
MODEL 2
REMARK VINA RESULT:      -6.6      2.650      3.662
REMARK  Name = 
REMARK  10 active torsions:
REMARK  status: ('A' for Active; 'I' for Inactive)
REMARK    1  A    between atoms: C_2  and  C_3
REMARK    2  A    between atoms: C_2  and  C_16
REMARK    3  A    between atoms: C_3  and  C_4
REMARK    4  A    between atoms: C_4  and  C_5
REMARK    5  A    between atoms: C_4  and  C_13
REMARK    6  A    between atoms: C_5  and  C_6
REMARK    7  A    between atoms: C_13  and  O_15
REMARK    8  A    between atoms: C_16  and  S_17
REMARK    9  A    between atoms: C_16  and  C_18
REMARK   10  A    between atoms: C_18  and  C_19
REMARK                            x       y       z     vdW  Elec       q    Type
REMARK                         _______ _______ _______ _____ _____    ______ ____
ROOT
ATOM      1  C   UNL     1       3.451   4.639  17.588  0.00  0.00    +0.000 C 
ENDROOT
BRANCH   1   3
ATOM      2  O   UNL     1       1.177   3.873  17.679  0.00  0.00    +0.000 OA
ATOM      3  C   UNL     1       2.071   4.525  18.233  0.00  0.00    +0.000 C 
BRANCH   3   4
ATOM      4  C   UNL     1       1.830   5.240  19.562  0.00  0.00    +0.000 C 
BRANCH   4   5
ATOM      5  S   UNL     1       1.906   4.048  20.948  0.00  0.00    +0.000 S 
ATOM      6  H   UNL     1       2.939   4.581  21.615  0.00  0.00    +0.000 HD
ENDBRANCH   4   5
BRANCH   4   7
ATOM      7  C   UNL     1       2.773   6.437  19.771  0.00  0.00    +0.000 C 
BRANCH   7   8
ATOM      8  C   UNL     1       2.138   7.766  19.402  0.00  0.00    +0.000 A 
ATOM      9  C   UNL     1       2.323   8.341  18.135  0.00  0.00    +0.000 A 
ATOM     10  C   UNL     1       1.841   9.619  17.855  0.00  0.00    +0.000 A 
ATOM     11  C   UNL     1       1.131  10.324  18.821  0.00  0.00    +0.000 A 
ATOM     12  C   UNL     1       0.885   9.743  20.063  0.00  0.00    +0.000 A 
ATOM     13  C   UNL     1       1.379   8.467  20.351  0.00  0.00    +0.000 A 
ENDBRANCH   7   8
ENDBRANCH   4   7
ENDBRANCH   3   4
ENDBRANCH   1   3
BRANCH   1  14
ATOM     14  C   UNL     1       3.984   3.299  17.084  0.00  0.00    +0.000 C 
BRANCH  14  15
ATOM     15  C   UNL     1       4.119   2.326  18.240  0.00  0.00    +0.000 C 
ATOM     16  O   UNL     1       3.535   1.254  18.305  0.00  0.00    +0.000 OA
BRANCH  15  17
ATOM     17  O   UNL     1       4.976   2.728  19.201  0.00  0.00    +0.000 OA
ATOM     18  H   UNL     1       5.378   1.979  19.705  0.00  0.00    +0.000 HD
ENDBRANCH  15  17
ENDBRANCH  14  15
BRANCH  14  19
ATOM     19  C   UNL     1       5.382   3.469  16.450  0.00  0.00    +0.000 C 
BRANCH  19  20
ATOM     20  C   UNL     1       6.105   4.757  16.778  0.00  0.00    +0.000 A 
ATOM     21  C   UNL     1       5.767   5.942  16.105  0.00  0.00    +0.000 A 
ATOM     22  C   UNL     1       6.352   7.159  16.468  0.00  0.00    +0.000 A 
ATOM     23  C   UNL     1       7.280   7.195  17.504  0.00  0.00    +0.000 A 
ATOM     24 BR   UNL     1       8.021   8.849  18.040  0.00  0.00    +0.000 Br
ATOM     25  C   UNL     1       7.648   6.026  18.164  0.00  0.00    +0.000 A 
ATOM     26  C   UNL     1       7.061   4.809  17.801  0.00  0.00    +0.000 A 
ENDBRANCH  19  20
ENDBRANCH  14  19
ENDBRANCH   1  14
TORSDOF 10
ENDMDL
MODEL 3
REMARK VINA RESULT:      -6.5      2.091      3.553
REMARK  Name = 
REMARK  10 active torsions:
REMARK  status: ('A' for Active; 'I' for Inactive)
REMARK    1  A    between atoms: C_2  and  C_3
REMARK    2  A    between atoms: C_2  and  C_16
REMARK    3  A    between atoms: C_3  and  C_4
REMARK    4  A    between atoms: C_4  and  C_5
REMARK    5  A    between atoms: C_4  and  C_13
REMARK    6  A    between atoms: C_5  and  C_6
REMARK    7  A    between atoms: C_13  and  O_15
REMARK    8  A    between atoms: C_16  and  S_17
REMARK    9  A    between atoms: C_16  and  C_18
REMARK   10  A    between atoms: C_18  and  C_19
REMARK                            x       y       z     vdW  Elec       q    Type
REMARK                         _______ _______ _______ _____ _____    ______ ____
ROOT
ATOM      1  C   UNL     1       5.298   6.280  17.712  0.00  0.00    +0.000 C 
ENDROOT
BRANCH   1   3
ATOM      2  O   UNL     1       4.483   5.410  19.796  0.00  0.00    +0.000 OA
ATOM      3  C   UNL     1       4.217   6.039  18.764  0.00  0.00    +0.000 C 
BRANCH   3   4
ATOM      4  C   UNL     1       2.814   6.584  18.501  0.00  0.00    +0.000 C 
BRANCH   4   5
ATOM      5  S   UNL     1       2.910   8.254  17.761  0.00  0.00    +0.000 S 
ATOM      6  H   UNL     1       2.425   7.966  16.546  0.00  0.00    +0.000 HD
ENDBRANCH   4   5
BRANCH   4   7
ATOM      7  C   UNL     1       1.952   5.625  17.661  0.00  0.00    +0.000 C 
BRANCH   7   8
ATOM      8  C   UNL     1       1.849   4.235  18.266  0.00  0.00    +0.000 A 
ATOM      9  C   UNL     1       1.207   4.016  19.494  0.00  0.00    +0.000 A 
ATOM     10  C   UNL     1       1.231   2.759  20.097  0.00  0.00    +0.000 A 
ATOM     11  C   UNL     1       1.861   1.693  19.462  0.00  0.00    +0.000 A 
ATOM     12  C   UNL     1       2.449   1.879  18.213  0.00  0.00    +0.000 A 
ATOM     13  C   UNL     1       2.438   3.142  17.613  0.00  0.00    +0.000 A 
ENDBRANCH   7   8
ENDBRANCH   4   7
ENDBRANCH   3   4
ENDBRANCH   1   3
BRANCH   1  14
ATOM     14  C   UNL     1       6.711   6.070  18.253  0.00  0.00    +0.000 C 
BRANCH  14  15
ATOM     15  C   UNL     1       7.578   7.269  17.918  0.00  0.00    +0.000 C 
ATOM     16  O   UNL     1       7.407   7.986  16.942  0.00  0.00    +0.000 OA
BRANCH  15  17
ATOM     17  O   UNL     1       8.557   7.509  18.814  0.00  0.00    +0.000 OA
ATOM     18  H   UNL     1       9.084   8.320  18.609  0.00  0.00    +0.000 HD
ENDBRANCH  15  17
ENDBRANCH  14  15
BRANCH  14  19
ATOM     19  C   UNL     1       7.364   4.826  17.610  0.00  0.00    +0.000 C 
BRANCH  19  20
ATOM     20  C   UNL     1       6.863   4.454  16.233  0.00  0.00    +0.000 A 
ATOM     21  C   UNL     1       5.721   3.648  16.096  0.00  0.00    +0.000 A 
ATOM     22  C   UNL     1       5.186   3.379  14.833  0.00  0.00    +0.000 A 
ATOM     23  C   UNL     1       5.793   3.913  13.700  0.00  0.00    +0.000 A 
ATOM     24 BR   UNL     1       5.032   3.606  11.997  0.00  0.00    +0.000 Br
ATOM     25  C   UNL     1       6.941   4.691  13.814  0.00  0.00    +0.000 A 
ATOM     26  C   UNL     1       7.476   4.960  15.079  0.00  0.00    +0.000 A 
ENDBRANCH  19  20
ENDBRANCH  14  19
ENDBRANCH   1  14
TORSDOF 10
ENDMDL
MODEL 4
REMARK VINA RESULT:      -6.5      2.155      3.876
REMARK  Name = 
REMARK  10 active torsions:
REMARK  status: ('A' for Active; 'I' for Inactive)
REMARK    1  A    between atoms: C_2  and  C_3
REMARK    2  A    between atoms: C_2  and  C_16
REMARK    3  A    between atoms: C_3  and  C_4
REMARK    4  A    between atoms: C_4  and  C_5
REMARK    5  A    between atoms: C_4  and  C_13
REMARK    6  A    between atoms: C_5  and  C_6
REMARK    7  A    between atoms: C_13  and  O_15
REMARK    8  A    between atoms: C_16  and  S_17
REMARK    9  A    between atoms: C_16  and  C_18
REMARK   10  A    between atoms: C_18  and  C_19
REMARK                            x       y       z     vdW  Elec       q    Type
REMARK                         _______ _______ _______ _____ _____    ______ ____
ROOT
ATOM      1  C   UNL     1       5.014   6.965  17.013  0.00  0.00    +0.000 C 
ENDROOT
BRANCH   1   3
ATOM      2  O   UNL     1       3.192   8.502  17.301  0.00  0.00    +0.000 OA
ATOM      3  C   UNL     1       3.701   7.428  17.643  0.00  0.00    +0.000 C 
BRANCH   3   4
ATOM      4  C   UNL     1       3.050   6.538  18.701  0.00  0.00    +0.000 C 
BRANCH   4   5
ATOM      5  S   UNL     1       2.087   7.551  19.880  0.00  0.00    +0.000 S 
ATOM      6  H   UNL     1       3.106   8.091  20.562  0.00  0.00    +0.000 HD
ENDBRANCH   4   5
BRANCH   4   7
ATOM      7  C   UNL     1       2.211   5.403  18.087  0.00  0.00    +0.000 C 
BRANCH   7   8
ATOM      8  C   UNL     1       2.732   4.021  18.439  0.00  0.00    +0.000 A 
ATOM      9  C   UNL     1       3.626   3.823  19.502  0.00  0.00    +0.000 A 
ATOM     10  C   UNL     1       4.194   2.570  19.732  0.00  0.00    +0.000 A 
ATOM     11  C   UNL     1       3.845   1.489  18.930  0.00  0.00    +0.000 A 
ATOM     12  C   UNL     1       2.912   1.654  17.910  0.00  0.00    +0.000 A 
ATOM     13  C   UNL     1       2.352   2.912  17.669  0.00  0.00    +0.000 A 
ENDBRANCH   7   8
ENDBRANCH   4   7
ENDBRANCH   3   4
ENDBRANCH   1   3
BRANCH   1  14
ATOM     14  C   UNL     1       6.050   6.533  18.050  0.00  0.00    +0.000 C 
BRANCH  14  15
ATOM     15  C   UNL     1       7.295   7.391  17.927  0.00  0.00    +0.000 C 
ATOM     16  O   UNL     1       7.420   8.304  17.124  0.00  0.00    +0.000 OA
BRANCH  15  17
ATOM     17  O   UNL     1       8.266   7.083  18.812  0.00  0.00    +0.000 OA
ATOM     18  H   UNL     1       7.969   6.455  19.515  0.00  0.00    +0.000 HD
ENDBRANCH  15  17
ENDBRANCH  14  15
BRANCH  14  19
ATOM     19  C   UNL     1       6.471   5.063  17.823  0.00  0.00    +0.000 C 
BRANCH  19  20
ATOM     20  C   UNL     1       6.405   4.570  16.395  0.00  0.00    +0.000 A 
ATOM     21  C   UNL     1       5.358   3.726  15.991  0.00  0.00    +0.000 A 
ATOM     22  C   UNL     1       5.226   3.344  14.654  0.00  0.00    +0.000 A 
ATOM     23  C   UNL     1       6.143   3.802  13.713  0.00  0.00    +0.000 A 
ATOM     24 BR   UNL     1       5.927   3.342  11.892  0.00  0.00    +0.000 Br
ATOM     25  C   UNL     1       7.204   4.617  14.098  0.00  0.00    +0.000 A 
ATOM     26  C   UNL     1       7.335   4.999  15.439  0.00  0.00    +0.000 A 
ENDBRANCH  19  20
ENDBRANCH  14  19
ENDBRANCH   1  14
TORSDOF 10
ENDMDL
MODEL 5
REMARK VINA RESULT:      -6.5      2.052      2.969
REMARK  Name = 
REMARK  10 active torsions:
REMARK  status: ('A' for Active; 'I' for Inactive)
REMARK    1  A    between atoms: C_2  and  C_3
REMARK    2  A    between atoms: C_2  and  C_16
REMARK    3  A    between atoms: C_3  and  C_4
REMARK    4  A    between atoms: C_4  and  C_5
REMARK    5  A    between atoms: C_4  and  C_13
REMARK    6  A    between atoms: C_5  and  C_6
REMARK    7  A    between atoms: C_13  and  O_15
REMARK    8  A    between atoms: C_16  and  S_17
REMARK    9  A    between atoms: C_16  and  C_18
REMARK   10  A    between atoms: C_18  and  C_19
REMARK                            x       y       z     vdW  Elec       q    Type
REMARK                         _______ _______ _______ _____ _____    ______ ____
ROOT
ATOM      1  C   UNL     1       2.304   2.758  18.778  0.00  0.00    +0.000 C 
ENDROOT
BRANCH   1   3
ATOM      2  O   UNL     1       1.475   4.647  17.551  0.00  0.00    +0.000 OA
ATOM      3  C   UNL     1       1.829   4.205  18.650  0.00  0.00    +0.000 C 
BRANCH   3   4
ATOM      4  C   UNL     1       1.816   5.077  19.904  0.00  0.00    +0.000 C 
BRANCH   4   5
ATOM      5  S   UNL     1       2.091   4.053  21.394  0.00  0.00    +0.000 S 
ATOM      6  H   UNL     1       2.273   2.869  20.795  0.00  0.00    +0.000 HD
ENDBRANCH   4   5
BRANCH   4   7
ATOM      7  C   UNL     1       2.803   6.255  19.818  0.00  0.00    +0.000 C 
BRANCH   7   8
ATOM      8  C   UNL     1       2.133   7.565  19.438  0.00  0.00    +0.000 A 
ATOM      9  C   UNL     1       2.271   8.113  18.154  0.00  0.00    +0.000 A 
ATOM     10  C   UNL     1       1.758   9.376  17.859  0.00  0.00    +0.000 A 
ATOM     11  C   UNL     1       1.065  10.091  18.830  0.00  0.00    +0.000 A 
ATOM     12  C   UNL     1       0.866   9.535  20.091  0.00  0.00    +0.000 A 
ATOM     13  C   UNL     1       1.391   8.275  20.393  0.00  0.00    +0.000 A 
ENDBRANCH   7   8
ENDBRANCH   4   7
ENDBRANCH   3   4
ENDBRANCH   1   3
BRANCH   1  14
ATOM     14  C   UNL     1       3.743   2.561  18.306  0.00  0.00    +0.000 C 
BRANCH  14  15
ATOM     15  C   UNL     1       4.456   1.577  19.214  0.00  0.00    +0.000 C 
ATOM     16  O   UNL     1       4.899   1.861  20.318  0.00  0.00    +0.000 OA
BRANCH  15  17
ATOM     17  O   UNL     1       4.543   0.327  18.713  0.00  0.00    +0.000 OA
ATOM     18  H   UNL     1       4.592  -0.371  19.411  0.00  0.00    +0.000 HD
ENDBRANCH  15  17
ENDBRANCH  14  15
BRANCH  14  19
ATOM     19  C   UNL     1       4.523   3.894  18.357  0.00  0.00    +0.000 C 
BRANCH  19  20
ATOM     20  C   UNL     1       5.267   4.273  17.097  0.00  0.00    +0.000 A 
ATOM     21  C   UNL     1       6.598   4.716  17.173  0.00  0.00    +0.000 A 
ATOM     22  C   UNL     1       7.331   4.971  16.011  0.00  0.00    +0.000 A 
ATOM     23  C   UNL     1       6.736   4.789  14.767  0.00  0.00    +0.000 A 
ATOM     24 BR   UNL     1       7.747   5.069  13.195  0.00  0.00    +0.000 Br
ATOM     25  C   UNL     1       5.410   4.377  14.671  0.00  0.00    +0.000 A 
ATOM     26  C   UNL     1       4.676   4.120  15.835  0.00  0.00    +0.000 A 
ENDBRANCH  19  20
ENDBRANCH  14  19
ENDBRANCH   1  14
TORSDOF 10
ENDMDL
MODEL 6
REMARK VINA RESULT:      -6.3      2.081      3.533
REMARK  Name = 
REMARK  10 active torsions:
REMARK  status: ('A' for Active; 'I' for Inactive)
REMARK    1  A    between atoms: C_2  and  C_3
REMARK    2  A    between atoms: C_2  and  C_16
REMARK    3  A    between atoms: C_3  and  C_4
REMARK    4  A    between atoms: C_4  and  C_5
REMARK    5  A    between atoms: C_4  and  C_13
REMARK    6  A    between atoms: C_5  and  C_6
REMARK    7  A    between atoms: C_13  and  O_15
REMARK    8  A    between atoms: C_16  and  S_17
REMARK    9  A    between atoms: C_16  and  C_18
REMARK   10  A    between atoms: C_18  and  C_19
REMARK                            x       y       z     vdW  Elec       q    Type
REMARK                         _______ _______ _______ _____ _____    ______ ____
ROOT
ATOM      1  C   UNL     1       4.770   7.041  16.970  0.00  0.00    +0.000 C 
ENDROOT
BRANCH   1   3
ATOM      2  O   UNL     1       2.896   8.509  17.282  0.00  0.00    +0.000 OA
ATOM      3  C   UNL     1       3.482   7.488  17.661  0.00  0.00    +0.000 C 
BRANCH   3   4
ATOM      4  C   UNL     1       2.954   6.649  18.823  0.00  0.00    +0.000 C 
BRANCH   4   5
ATOM      5  S   UNL     1       1.948   7.683  19.948  0.00  0.00    +0.000 S 
ATOM      6  H   UNL     1       2.121   6.982  21.076  0.00  0.00    +0.000 HD
ENDBRANCH   4   5
BRANCH   4   7
ATOM      7  C   UNL     1       2.198   5.394  18.354  0.00  0.00    +0.000 C 
BRANCH   7   8
ATOM      8  C   UNL     1       2.206   4.276  19.383  0.00  0.00    +0.000 A 
ATOM      9  C   UNL     1       1.056   3.949  20.118  0.00  0.00    +0.000 A 
ATOM     10  C   UNL     1       1.112   3.009  21.148  0.00  0.00    +0.000 A 
ATOM     11  C   UNL     1       2.306   2.354  21.429  0.00  0.00    +0.000 A 
ATOM     12  C   UNL     1       3.441   2.622  20.668  0.00  0.00    +0.000 A 
ATOM     13  C   UNL     1       3.391   3.573  19.645  0.00  0.00    +0.000 A 
ENDBRANCH   7   8
ENDBRANCH   4   7
ENDBRANCH   3   4
ENDBRANCH   1   3
BRANCH   1  14
ATOM     14  C   UNL     1       5.797   6.468  17.944  0.00  0.00    +0.000 C 
BRANCH  14  15
ATOM     15  C   UNL     1       7.093   7.252  17.852  0.00  0.00    +0.000 C 
ATOM     16  O   UNL     1       7.255   8.224  17.129  0.00  0.00    +0.000 OA
BRANCH  15  17
ATOM     17  O   UNL     1       8.067   6.803  18.670  0.00  0.00    +0.000 OA
ATOM     18  H   UNL     1       8.885   6.527  18.190  0.00  0.00    +0.000 HD
ENDBRANCH  15  17
ENDBRANCH  14  15
BRANCH  14  19
ATOM     19  C   UNL     1       6.117   4.996  17.598  0.00  0.00    +0.000 C 
BRANCH  19  20
ATOM     20  C   UNL     1       6.146   4.654  16.125  0.00  0.00    +0.000 A 
ATOM     21  C   UNL     1       7.272   4.979  15.352  0.00  0.00    +0.000 A 
ATOM     22  C   UNL     1       7.357   4.580  14.015  0.00  0.00    +0.000 A 
ATOM     23  C   UNL     1       6.316   3.856  13.445  0.00  0.00    +0.000 A 
ATOM     24 BR   UNL     1       6.459   3.257  11.657  0.00  0.00    +0.000 Br
ATOM     25  C   UNL     1       5.179   3.548  14.187  0.00  0.00    +0.000 A 
ATOM     26  C   UNL     1       5.095   3.948  15.526  0.00  0.00    +0.000 A 
ENDBRANCH  19  20
ENDBRANCH  14  19
ENDBRANCH   1  14
TORSDOF 10
ENDMDL
MODEL 7
REMARK VINA RESULT:      -6.3      0.868      1.193
REMARK  Name = 
REMARK  10 active torsions:
REMARK  status: ('A' for Active; 'I' for Inactive)
REMARK    1  A    between atoms: C_2  and  C_3
REMARK    2  A    between atoms: C_2  and  C_16
REMARK    3  A    between atoms: C_3  and  C_4
REMARK    4  A    between atoms: C_4  and  C_5
REMARK    5  A    between atoms: C_4  and  C_13
REMARK    6  A    between atoms: C_5  and  C_6
REMARK    7  A    between atoms: C_13  and  O_15
REMARK    8  A    between atoms: C_16  and  S_17
REMARK    9  A    between atoms: C_16  and  C_18
REMARK   10  A    between atoms: C_18  and  C_19
REMARK                            x       y       z     vdW  Elec       q    Type
REMARK                         _______ _______ _______ _____ _____    ______ ____
ROOT
ATOM      1  C   UNL     1       5.397   6.117  18.160  0.00  0.00    +0.000 C 
ENDROOT
BRANCH   1   3
ATOM      2  O   UNL     1       4.738   4.184  19.424  0.00  0.00    +0.000 OA
ATOM      3  C   UNL     1       4.368   5.193  18.811  0.00  0.00    +0.000 C 
BRANCH   3   4
ATOM      4  C   UNL     1       2.888   5.546  18.675  0.00  0.00    +0.000 C 
BRANCH   4   5
ATOM      5  S   UNL     1       1.908   4.047  18.304  0.00  0.00    +0.000 S 
ATOM      6  H   UNL     1       1.268   4.489  17.213  0.00  0.00    +0.000 HD
ENDBRANCH   4   5
BRANCH   4   7
ATOM      7  C   UNL     1       2.345   6.308  19.896  0.00  0.00    +0.000 C 
BRANCH   7   8
ATOM      8  C   UNL     1       1.946   7.738  19.576  0.00  0.00    +0.000 A 
ATOM      9  C   UNL     1       1.270   8.538  20.510  0.00  0.00    +0.000 A 
ATOM     10  C   UNL     1       0.799   9.802  20.157  0.00  0.00    +0.000 A 
ATOM     11  C   UNL     1       1.032  10.302  18.880  0.00  0.00    +0.000 A 
ATOM     12  C   UNL     1       1.755   9.546  17.960  0.00  0.00    +0.000 A 
ATOM     13  C   UNL     1       2.217   8.273  18.307  0.00  0.00    +0.000 A 
ENDBRANCH   7   8
ENDBRANCH   4   7
ENDBRANCH   3   4
ENDBRANCH   1   3
BRANCH   1  14
ATOM     14  C   UNL     1       6.749   5.440  17.944  0.00  0.00    +0.000 C 
BRANCH  14  15
ATOM     15  C   UNL     1       7.714   5.846  19.041  0.00  0.00    +0.000 C 
ATOM     16  O   UNL     1       7.980   5.150  20.011  0.00  0.00    +0.000 OA
BRANCH  15  17
ATOM     17  O   UNL     1       8.294   7.049  18.849  0.00  0.00    +0.000 OA
ATOM     18  H   UNL     1       9.224   7.092  19.179  0.00  0.00    +0.000 HD
ENDBRANCH  15  17
ENDBRANCH  14  15
BRANCH  14  19
ATOM     19  C   UNL     1       7.367   5.872  16.595  0.00  0.00    +0.000 C 
BRANCH  19  20
ATOM     20  C   UNL     1       6.859   5.144  15.371  0.00  0.00    +0.000 A 
ATOM     21  C   UNL     1       7.511   5.302  14.138  0.00  0.00    +0.000 A 
ATOM     22  C   UNL     1       7.118   4.559  13.022  0.00  0.00    +0.000 A 
ATOM     23  C   UNL     1       6.066   3.654  13.134  0.00  0.00    +0.000 A 
ATOM     24 BR   UNL     1       5.576   2.599  11.644  0.00  0.00    +0.000 Br
ATOM     25  C   UNL     1       5.388   3.504  14.340  0.00  0.00    +0.000 A 
ATOM     26  C   UNL     1       5.784   4.249  15.458  0.00  0.00    +0.000 A 
ENDBRANCH  19  20
ENDBRANCH  14  19
ENDBRANCH   1  14
TORSDOF 10
ENDMDL
MODEL 8
REMARK VINA RESULT:      -6.2      2.084      3.358
REMARK  Name = 
REMARK  10 active torsions:
REMARK  status: ('A' for Active; 'I' for Inactive)
REMARK    1  A    between atoms: C_2  and  C_3
REMARK    2  A    between atoms: C_2  and  C_16
REMARK    3  A    between atoms: C_3  and  C_4
REMARK    4  A    between atoms: C_4  and  C_5
REMARK    5  A    between atoms: C_4  and  C_13
REMARK    6  A    between atoms: C_5  and  C_6
REMARK    7  A    between atoms: C_13  and  O_15
REMARK    8  A    between atoms: C_16  and  S_17
REMARK    9  A    between atoms: C_16  and  C_18
REMARK   10  A    between atoms: C_18  and  C_19
REMARK                            x       y       z     vdW  Elec       q    Type
REMARK                         _______ _______ _______ _____ _____    ______ ____
ROOT
ATOM      1  C   UNL     1       5.931   7.133  17.487  0.00  0.00    +0.000 C 
ENDROOT
BRANCH   1   3
ATOM      2  O   UNL     1       4.230   7.371  15.809  0.00  0.00    +0.000 OA
ATOM      3  C   UNL     1       4.484   7.125  16.994  0.00  0.00    +0.000 C 
BRANCH   3   4
ATOM      4  C   UNL     1       3.377   6.818  18.001  0.00  0.00    +0.000 C 
BRANCH   4   5
ATOM      5  S   UNL     1       2.229   8.236  18.137  0.00  0.00    +0.000 S 
ATOM      6  H   UNL     1       2.585   8.891  17.025  0.00  0.00    +0.000 HD
ENDBRANCH   4   5
BRANCH   4   7
ATOM      7  C   UNL     1       2.642   5.502  17.691  0.00  0.00    +0.000 C 
BRANCH   7   8
ATOM      8  C   UNL     1       2.188   4.766  18.939  0.00  0.00    +0.000 A 
ATOM      9  C   UNL     1       2.651   5.129  20.213  0.00  0.00    +0.000 A 
ATOM     10  C   UNL     1       2.327   4.365  21.334  0.00  0.00    +0.000 A 
ATOM     11  C   UNL     1       1.503   3.253  21.205  0.00  0.00    +0.000 A 
ATOM     12  C   UNL     1       0.984   2.914  19.957  0.00  0.00    +0.000 A 
ATOM     13  C   UNL     1       1.319   3.670  18.830  0.00  0.00    +0.000 A 
ENDBRANCH   7   8
ENDBRANCH   4   7
ENDBRANCH   3   4
ENDBRANCH   1   3
BRANCH   1  14
ATOM     14  C   UNL     1       6.492   5.729  17.704  0.00  0.00    +0.000 C 
BRANCH  14  15
ATOM     15  C   UNL     1       7.263   5.674  19.009  0.00  0.00    +0.000 C 
ATOM     16  O   UNL     1       8.340   6.224  19.191  0.00  0.00    +0.000 OA
BRANCH  15  17
ATOM     17  O   UNL     1       6.643   4.982  19.987  0.00  0.00    +0.000 OA
ATOM     18  H   UNL     1       6.893   4.026  20.008  0.00  0.00    +0.000 HD
ENDBRANCH  15  17
ENDBRANCH  14  15
BRANCH  14  19
ATOM     19  C   UNL     1       7.468   5.349  16.568  0.00  0.00    +0.000 C 
BRANCH  19  20
ATOM     20  C   UNL     1       6.842   4.733  15.337  0.00  0.00    +0.000 A 
ATOM     21  C   UNL     1       5.601   4.082  15.431  0.00  0.00    +0.000 A 
ATOM     22  C   UNL     1       4.962   3.599  14.287  0.00  0.00    +0.000 A 
ATOM     23  C   UNL     1       5.562   3.760  13.042  0.00  0.00    +0.000 A 
ATOM     24 BR   UNL     1       4.668   3.167  11.486  0.00  0.00    +0.000 Br
ATOM     25  C   UNL     1       6.805   4.378  12.931  0.00  0.00    +0.000 A 
ATOM     26  C   UNL     1       7.444   4.863  14.078  0.00  0.00    +0.000 A 
ENDBRANCH  19  20
ENDBRANCH  14  19
ENDBRANCH   1  14
TORSDOF 10
ENDMDL
MODEL 9
REMARK VINA RESULT:      -6.2      3.459      7.306
REMARK  Name = 
REMARK  10 active torsions:
REMARK  status: ('A' for Active; 'I' for Inactive)
REMARK    1  A    between atoms: C_2  and  C_3
REMARK    2  A    between atoms: C_2  and  C_16
REMARK    3  A    between atoms: C_3  and  C_4
REMARK    4  A    between atoms: C_4  and  C_5
REMARK    5  A    between atoms: C_4  and  C_13
REMARK    6  A    between atoms: C_5  and  C_6
REMARK    7  A    between atoms: C_13  and  O_15
REMARK    8  A    between atoms: C_16  and  S_17
REMARK    9  A    between atoms: C_16  and  C_18
REMARK   10  A    between atoms: C_18  and  C_19
REMARK                            x       y       z     vdW  Elec       q    Type
REMARK                         _______ _______ _______ _____ _____    ______ ____
ROOT
ATOM      1  C   UNL     1       4.980   5.925  18.653  0.00  0.00    +0.000 C 
ENDROOT
BRANCH   1   3
ATOM      2  O   UNL     1       4.728   6.858  16.455  0.00  0.00    +0.000 OA
ATOM      3  C   UNL     1       5.356   6.077  17.179  0.00  0.00    +0.000 C 
BRANCH   3   4
ATOM      4  C   UNL     1       6.511   5.237  16.636  0.00  0.00    +0.000 C 
BRANCH   4   5
ATOM      5  S   UNL     1       7.607   4.705  17.999  0.00  0.00    +0.000 S 
ATOM      6  H   UNL     1       8.224   3.691  17.379  0.00  0.00    +0.000 HD
ENDBRANCH   4   5
BRANCH   4   7
ATOM      7  C   UNL     1       6.031   4.053  15.778  0.00  0.00    +0.000 C 
BRANCH   7   8
ATOM      8  C   UNL     1       6.396   4.195  14.311  0.00  0.00    +0.000 A 
ATOM      9  C   UNL     1       5.800   3.392  13.326  0.00  0.00    +0.000 A 
ATOM     10  C   UNL     1       6.237   3.445  12.003  0.00  0.00    +0.000 A 
ATOM     11  C   UNL     1       7.245   4.329  11.637  0.00  0.00    +0.000 A 
ATOM     12  C   UNL     1       7.805   5.177  12.589  0.00  0.00    +0.000 A 
ATOM     13  C   UNL     1       7.379   5.116  13.919  0.00  0.00    +0.000 A 
ENDBRANCH   7   8
ENDBRANCH   4   7
ENDBRANCH   3   4
ENDBRANCH   1   3
BRANCH   1  14
ATOM     14  C   UNL     1       3.590   5.325  18.852  0.00  0.00    +0.000 C 
BRANCH  14  15
ATOM     15  C   UNL     1       3.559   3.902  18.328  0.00  0.00    +0.000 C 
ATOM     16  O   UNL     1       4.215   2.984  18.799  0.00  0.00    +0.000 OA
BRANCH  15  17
ATOM     17  O   UNL     1       2.711   3.713  17.295  0.00  0.00    +0.000 OA
ATOM     18  H   UNL     1       2.612   2.764  17.039  0.00  0.00    +0.000 HD
ENDBRANCH  15  17
ENDBRANCH  14  15
BRANCH  14  19
ATOM     19  C   UNL     1       2.528   6.133  18.073  0.00  0.00    +0.000 C 
BRANCH  19  20
ATOM     20  C   UNL     1       2.067   7.418  18.723  0.00  0.00    +0.000 A 
ATOM     21  C   UNL     1       1.803   8.549  17.934  0.00  0.00    +0.000 A 
ATOM     22  C   UNL     1       1.279   9.711  18.507  0.00  0.00    +0.000 A 
ATOM     23  C   UNL     1       1.019   9.749  19.873  0.00  0.00    +0.000 A 
ATOM     24 BR   UNL     1       0.248  11.296  20.639  0.00  0.00    +0.000 Br
ATOM     25  C   UNL     1       1.301   8.648  20.677  0.00  0.00    +0.000 A 
ATOM     26  C   UNL     1       1.824   7.484  20.102  0.00  0.00    +0.000 A 
ENDBRANCH  19  20
ENDBRANCH  14  19
ENDBRANCH   1  14
TORSDOF 10
ENDMDL
