MODEL 1
REMARK VINA RESULT:      -7.6      0.000      0.000
REMARK  Name = 
REMARK  4 active torsions:
REMARK  status: ('A' for Active; 'I' for Inactive)
REMARK    1  A    between atoms: C_1  and  C_2
REMARK    2  A    between atoms: N_4  and  C_5
REMARK    3  A    between atoms: C_8  and  C_9
REMARK    4  A    between atoms: N_11  and  C_12
REMARK                            x       y       z     vdW  Elec       q    Type
REMARK                         _______ _______ _______ _____ _____    ______ ____
ROOT
ATOM      1  C   UNL     1       8.086   8.748  18.020  0.00  0.00    +0.000 C 
ATOM      2  O   UNL     1       7.722   9.487  17.111  0.00  0.00    +0.000 OA
ATOM      3  N   UNL     1       9.000   9.054  19.003  0.00  0.00    +0.000 N 
ATOM      4  H   UNL     1       9.356   8.300  19.577  0.00  0.00    +0.000 HD
ENDROOT
BRANCH   3   5
ATOM      5  C   UNL     1       9.437  10.361  19.321  0.00  0.00    +0.000 A 
ATOM      6  C   UNL     1       9.347  10.907  20.621  0.00  0.00    +0.000 A 
ATOM      7  C   UNL     1       9.977  12.108  20.956  0.00  0.00    +0.000 A 
ATOM      8  C   UNL     1      10.711  12.720  19.974  0.00  0.00    +0.000 A 
ATOM      9  C   UNL     1      10.747  12.235  18.684  0.00  0.00    +0.000 A 
ATOM     10  C   UNL     1      10.093  11.081  18.313  0.00  0.00    +0.000 A 
ATOM     11  O   UNL     1      11.588  12.961  17.894  0.00  0.00    +0.000 OA
ATOM     12  C   UNL     1      12.300  13.684  18.921  0.00  0.00    +0.000 C 
ATOM     13  O   UNL     1      11.544  13.783  20.144  0.00  0.00    +0.000 OA
ENDBRANCH   3   5
BRANCH   1  17
ATOM     14  C   UNL     1       6.146   4.933  18.174  0.00  0.00    +0.000 A 
ATOM     15  C   UNL     1       5.698   5.958  17.338  0.00  0.00    +0.000 A 
ATOM     16  C   UNL     1       6.377   7.168  17.273  0.00  0.00    +0.000 A 
ATOM     17  C   UNL     1       7.521   7.382  18.045  0.00  0.00    +0.000 A 
ATOM     18  C   UNL     1       7.982   6.372  18.896  0.00  0.00    +0.000 A 
ATOM     19  C   UNL     1       7.289   5.150  18.962  0.00  0.00    +0.000 A 
BRANCH  14  23
ATOM     20  C   UNL     1       3.955   2.005  19.094  0.00  0.00    +0.000 C 
ATOM     21  C   UNL     1       4.364   3.453  19.092  0.00  0.00    +0.000 C 
ATOM     22  O   UNL     1       3.753   4.270  19.767  0.00  0.00    +0.000 OA
ATOM     23  N   UNL     1       5.463   3.702  18.281  0.00  0.00    +0.000 N 
ATOM     24  H   UNL     1       5.772   2.956  17.670  0.00  0.00    +0.000 HD
ENDBRANCH  14  23
ENDBRANCH   1  17
TORSDOF 3
ENDMDL
MODEL 2
REMARK VINA RESULT:      -7.4      2.118      8.930
REMARK  Name = 
REMARK  4 active torsions:
REMARK  status: ('A' for Active; 'I' for Inactive)
REMARK    1  A    between atoms: C_1  and  C_2
REMARK    2  A    between atoms: N_4  and  C_5
REMARK    3  A    between atoms: C_8  and  C_9
REMARK    4  A    between atoms: N_11  and  C_12
REMARK                            x       y       z     vdW  Elec       q    Type
REMARK                         _______ _______ _______ _____ _____    ______ ____
ROOT
ATOM      1  C   UNL     1       8.069   8.157  18.141  0.00  0.00    +0.000 C 
ATOM      2  O   UNL     1       8.515   7.283  18.878  0.00  0.00    +0.000 OA
ATOM      3  N   UNL     1       7.218   7.968  17.075  0.00  0.00    +0.000 N 
ATOM      4  H   UNL     1       7.077   8.739  16.434  0.00  0.00    +0.000 HD
ENDROOT
BRANCH   3   5
ATOM      5  C   UNL     1       6.467   6.793  16.840  0.00  0.00    +0.000 A 
ATOM      6  C   UNL     1       7.047   5.587  16.387  0.00  0.00    +0.000 A 
ATOM      7  C   UNL     1       6.329   4.390  16.369  0.00  0.00    +0.000 A 
ATOM      8  C   UNL     1       5.041   4.431  16.837  0.00  0.00    +0.000 A 
ATOM      9  C   UNL     1       4.441   5.614  17.213  0.00  0.00    +0.000 A 
ATOM     10  C   UNL     1       5.110   6.818  17.192  0.00  0.00    +0.000 A 
ATOM     11  O   UNL     1       3.187   5.411  17.705  0.00  0.00    +0.000 OA
ATOM     12  C   UNL     1       3.249   3.983  17.910  0.00  0.00    +0.000 C 
ATOM     13  O   UNL     1       4.243   3.354  17.077  0.00  0.00    +0.000 OA
ENDBRANCH   3   5
BRANCH   1  17
ATOM     14  C   UNL     1       9.455  12.189  18.539  0.00  0.00    +0.000 A 
ATOM     15  C   UNL     1       8.481  11.831  17.606  0.00  0.00    +0.000 A 
ATOM     16  C   UNL     1       8.015  10.524  17.533  0.00  0.00    +0.000 A 
ATOM     17  C   UNL     1       8.516   9.543  18.393  0.00  0.00    +0.000 A 
ATOM     18  C   UNL     1       9.499   9.879  19.329  0.00  0.00    +0.000 A 
ATOM     19  C   UNL     1       9.970  11.203  19.397  0.00  0.00    +0.000 A 
BRANCH  14  23
ATOM     20  C   UNL     1      11.361  15.426  18.206  0.00  0.00    +0.000 C 
ATOM     21  C   UNL     1      10.914  14.057  17.772  0.00  0.00    +0.000 C 
ATOM     22  O   UNL     1      11.388  13.542  16.767  0.00  0.00    +0.000 OA
ATOM     23  N   UNL     1       9.967  13.503  18.620  0.00  0.00    +0.000 N 
ATOM     24  H   UNL     1       9.563  14.105  19.328  0.00  0.00    +0.000 HD
ENDBRANCH  14  23
ENDBRANCH   1  17
TORSDOF 3
ENDMDL
MODEL 3
REMARK VINA RESULT:      -7.4      6.450      7.836
REMARK  Name = 
REMARK  4 active torsions:
REMARK  status: ('A' for Active; 'I' for Inactive)
REMARK    1  A    between atoms: C_1  and  C_2
REMARK    2  A    between atoms: N_4  and  C_5
REMARK    3  A    between atoms: C_8  and  C_9
REMARK    4  A    between atoms: N_11  and  C_12
REMARK                            x       y       z     vdW  Elec       q    Type
REMARK                         _______ _______ _______ _____ _____    ______ ____
ROOT
ATOM      1  C   UNL     1       4.027   6.098  18.035  0.00  0.00    +0.000 C 
ATOM      2  O   UNL     1       4.334   5.845  19.196  0.00  0.00    +0.000 OA
ATOM      3  N   UNL     1       3.037   6.961  17.624  0.00  0.00    +0.000 N 
ATOM      4  H   UNL     1       2.756   6.937  16.651  0.00  0.00    +0.000 HD
ENDROOT
BRANCH   3   5
ATOM      5  C   UNL     1       2.421   7.934  18.444  0.00  0.00    +0.000 A 
ATOM      6  C   UNL     1       1.969   9.180  17.955  0.00  0.00    +0.000 A 
ATOM      7  C   UNL     1       1.176  10.028  18.731  0.00  0.00    +0.000 A 
ATOM      8  C   UNL     1       0.830   9.585  19.981  0.00  0.00    +0.000 A 
ATOM      9  C   UNL     1       1.323   8.405  20.496  0.00  0.00    +0.000 A 
ATOM     10  C   UNL     1       2.149   7.573  19.772  0.00  0.00    +0.000 A 
ATOM     11  O   UNL     1       0.798   8.130  21.723  0.00  0.00    +0.000 OA
ATOM     12  C   UNL     1      -0.301   9.067  21.717  0.00  0.00    +0.000 C 
ATOM     13  O   UNL     1      -0.077  10.166  20.812  0.00  0.00    +0.000 OA
ENDBRANCH   3   5
BRANCH   1  17
ATOM     14  C   UNL     1       5.935   4.155  14.730  0.00  0.00    +0.000 A 
ATOM     15  C   UNL     1       5.771   5.540  14.779  0.00  0.00    +0.000 A 
ATOM     16  C   UNL     1       5.192   6.147  15.886  0.00  0.00    +0.000 A 
ATOM     17  C   UNL     1       4.762   5.380  16.973  0.00  0.00    +0.000 A 
ATOM     18  C   UNL     1       4.909   3.989  16.940  0.00  0.00    +0.000 A 
ATOM     19  C   UNL     1       5.492   3.379  15.815  0.00  0.00    +0.000 A 
BRANCH  14  23
ATOM     20  C   UNL     1       6.658   2.387  11.478  0.00  0.00    +0.000 C 
ATOM     21  C   UNL     1       5.831   3.212  12.426  0.00  0.00    +0.000 C 
ATOM     22  O   UNL     1       4.692   3.544  12.125  0.00  0.00    +0.000 OA
ATOM     23  N   UNL     1       6.496   3.506  13.608  0.00  0.00    +0.000 N 
ATOM     24  H   UNL     1       7.485   3.290  13.655  0.00  0.00    +0.000 HD
ENDBRANCH  14  23
ENDBRANCH   1  17
TORSDOF 3
ENDMDL
MODEL 4
REMARK VINA RESULT:      -7.4      5.868      8.720
REMARK  Name = 
REMARK  4 active torsions:
REMARK  status: ('A' for Active; 'I' for Inactive)
REMARK    1  A    between atoms: C_1  and  C_2
REMARK    2  A    between atoms: N_4  and  C_5
REMARK    3  A    between atoms: C_8  and  C_9
REMARK    4  A    between atoms: N_11  and  C_12
REMARK                            x       y       z     vdW  Elec       q    Type
REMARK                         _______ _______ _______ _____ _____    ______ ____
ROOT
ATOM      1  C   UNL     1       2.914   6.705  19.290  0.00  0.00    +0.000 C 
ATOM      2  O   UNL     1       3.051   5.753  20.052  0.00  0.00    +0.000 OA
ATOM      3  N   UNL     1       3.613   6.923  18.124  0.00  0.00    +0.000 N 
ATOM      4  H   UNL     1       3.544   7.835  17.689  0.00  0.00    +0.000 HD
ENDROOT
BRANCH   3   5
ATOM      5  C   UNL     1       4.376   5.945  17.444  0.00  0.00    +0.000 A 
ATOM      6  C   UNL     1       3.925   4.621  17.243  0.00  0.00    +0.000 A 
ATOM      7  C   UNL     1       4.594   3.742  16.388  0.00  0.00    +0.000 A 
ATOM      8  C   UNL     1       5.694   4.230  15.731  0.00  0.00    +0.000 A 
ATOM      9  C   UNL     1       6.184   5.495  15.974  0.00  0.00    +0.000 A 
ATOM     10  C   UNL     1       5.574   6.366  16.850  0.00  0.00    +0.000 A 
ATOM     11  O   UNL     1       7.239   5.792  15.164  0.00  0.00    +0.000 OA
ATOM     12  C   UNL     1       7.091   4.731  14.196  0.00  0.00    +0.000 C 
ATOM     13  O   UNL     1       6.366   3.605  14.726  0.00  0.00    +0.000 OA
ENDBRANCH   3   5
BRANCH   1  17
ATOM     14  C   UNL     1       0.310   9.941  20.331  0.00  0.00    +0.000 A 
ATOM     15  C   UNL     1       0.894   9.839  19.067  0.00  0.00    +0.000 A 
ATOM     16  C   UNL     1       1.695   8.752  18.742  0.00  0.00    +0.000 A 
ATOM     17  C   UNL     1       1.933   7.740  19.676  0.00  0.00    +0.000 A 
ATOM     18  C   UNL     1       1.365   7.828  20.952  0.00  0.00    +0.000 A 
ATOM     19  C   UNL     1       0.557   8.933  21.277  0.00  0.00    +0.000 A 
BRANCH  14  23
ATOM     20  C   UNL     1      -1.130  13.166  21.654  0.00  0.00    +0.000 C 
ATOM     21  C   UNL     1      -0.022  12.242  21.227  0.00  0.00    +0.000 C 
ATOM     22  O   UNL     1       1.148  12.572  21.370  0.00  0.00    +0.000 OA
ATOM     23  N   UNL     1      -0.488  11.046  20.700  0.00  0.00    +0.000 N 
ATOM     24  H   UNL     1      -1.481  10.974  20.509  0.00  0.00    +0.000 HD
ENDBRANCH  14  23
ENDBRANCH   1  17
TORSDOF 3
ENDMDL
MODEL 5
REMARK VINA RESULT:      -7.4      6.180      8.910
REMARK  Name = 
REMARK  4 active torsions:
REMARK  status: ('A' for Active; 'I' for Inactive)
REMARK    1  A    between atoms: C_1  and  C_2
REMARK    2  A    between atoms: N_4  and  C_5
REMARK    3  A    between atoms: C_8  and  C_9
REMARK    4  A    between atoms: N_11  and  C_12
REMARK                            x       y       z     vdW  Elec       q    Type
REMARK                         _______ _______ _______ _____ _____    ______ ____
ROOT
ATOM      1  C   UNL     1       2.260   7.830  18.779  0.00  0.00    +0.000 C 
ATOM      2  O   UNL     1       2.714   8.381  17.781  0.00  0.00    +0.000 OA
ATOM      3  N   UNL     1       2.483   6.527  19.164  0.00  0.00    +0.000 N 
ATOM      4  H   UNL     1       1.902   6.140  19.897  0.00  0.00    +0.000 HD
ENDROOT
BRANCH   3   5
ATOM      5  C   UNL     1       3.513   5.701  18.659  0.00  0.00    +0.000 A 
ATOM      6  C   UNL     1       3.434   5.052  17.406  0.00  0.00    +0.000 A 
ATOM      7  C   UNL     1       4.542   4.422  16.836  0.00  0.00    +0.000 A 
ATOM      8  C   UNL     1       5.720   4.484  17.534  0.00  0.00    +0.000 A 
ATOM      9  C   UNL     1       5.792   5.051  18.789  0.00  0.00    +0.000 A 
ATOM     10  C   UNL     1       4.703   5.635  19.398  0.00  0.00    +0.000 A 
ATOM     11  O   UNL     1       7.069   5.062  19.265  0.00  0.00    +0.000 OA
ATOM     12  C   UNL     1       7.775   4.777  18.038  0.00  0.00    +0.000 C 
ATOM     13  O   UNL     1       6.943   4.104  17.073  0.00  0.00    +0.000 OA
ENDBRANCH   3   5
BRANCH   1  17
ATOM     14  C   UNL     1      -0.193  10.417  21.152  0.00  0.00    +0.000 A 
ATOM     15  C   UNL     1      -0.051  10.591  19.775  0.00  0.00    +0.000 A 
ATOM     16  C   UNL     1       0.712   9.707  19.023  0.00  0.00    +0.000 A 
ATOM     17  C   UNL     1       1.353   8.626  19.633  0.00  0.00    +0.000 A 
ATOM     18  C   UNL     1       1.232   8.439  21.014  0.00  0.00    +0.000 A 
ATOM     19  C   UNL     1       0.461   9.339  21.772  0.00  0.00    +0.000 A 
BRANCH  14  23
ATOM     20  C   UNL     1      -1.498  13.245  23.279  0.00  0.00    +0.000 C 
ATOM     21  C   UNL     1      -0.551  12.596  22.307  0.00  0.00    +0.000 C 
ATOM     22  O   UNL     1       0.446  13.193  21.923  0.00  0.00    +0.000 OA
ATOM     23  N   UNL     1      -0.940  11.313  21.947  0.00  0.00    +0.000 N 
ATOM     24  H   UNL     1      -1.864  11.008  22.231  0.00  0.00    +0.000 HD
ENDBRANCH  14  23
ENDBRANCH   1  17
TORSDOF 3
ENDMDL
MODEL 6
REMARK VINA RESULT:      -7.4      6.430      7.482
REMARK  Name = 
REMARK  4 active torsions:
REMARK  status: ('A' for Active; 'I' for Inactive)
REMARK    1  A    between atoms: C_1  and  C_2
REMARK    2  A    between atoms: N_4  and  C_5
REMARK    3  A    between atoms: C_8  and  C_9
REMARK    4  A    between atoms: N_11  and  C_12
REMARK                            x       y       z     vdW  Elec       q    Type
REMARK                         _______ _______ _______ _____ _____    ______ ____
ROOT
ATOM      1  C   UNL     1       4.024   5.956  18.182  0.00  0.00    +0.000 C 
ATOM      2  O   UNL     1       4.501   5.876  19.310  0.00  0.00    +0.000 OA
ATOM      3  N   UNL     1       2.834   6.559  17.842  0.00  0.00    +0.000 N 
ATOM      4  H   UNL     1       2.461   6.392  16.916  0.00  0.00    +0.000 HD
ENDROOT
BRANCH   3   5
ATOM      5  C   UNL     1       2.117   7.456  18.668  0.00  0.00    +0.000 A 
ATOM      6  C   UNL     1       1.898   7.226  20.044  0.00  0.00    +0.000 A 
ATOM      7  C   UNL     1       1.381   8.218  20.880  0.00  0.00    +0.000 A 
ATOM      8  C   UNL     1       1.120   9.437  20.309  0.00  0.00    +0.000 A 
ATOM      9  C   UNL     1       1.262   9.651  18.955  0.00  0.00    +0.000 A 
ATOM     10  C   UNL     1       1.722   8.675  18.099  0.00  0.00    +0.000 A 
ATOM     11  O   UNL     1       1.013  10.949  18.620  0.00  0.00    +0.000 OA
ATOM     12  C   UNL     1       1.061  11.540  19.936  0.00  0.00    +0.000 C 
ATOM     13  O   UNL     1       0.795  10.578  20.977  0.00  0.00    +0.000 OA
ENDBRANCH   3   5
BRANCH   1  17
ATOM     14  C   UNL     1       5.969   4.218  14.786  0.00  0.00    +0.000 A 
ATOM     15  C   UNL     1       5.735   5.590  14.882  0.00  0.00    +0.000 A 
ATOM     16  C   UNL     1       5.146   6.132  16.018  0.00  0.00    +0.000 A 
ATOM     17  C   UNL     1       4.775   5.311  17.085  0.00  0.00    +0.000 A 
ATOM     18  C   UNL     1       4.992   3.931  17.005  0.00  0.00    +0.000 A 
ATOM     19  C   UNL     1       5.585   3.387  15.852  0.00  0.00    +0.000 A 
BRANCH  14  23
ATOM     20  C   UNL     1       6.721   2.557  11.485  0.00  0.00    +0.000 C 
ATOM     21  C   UNL     1       5.861   3.294  12.475  0.00  0.00    +0.000 C 
ATOM     22  O   UNL     1       4.686   3.525  12.221  0.00  0.00    +0.000 OA
ATOM     23  N   UNL     1       6.541   3.634  13.635  0.00  0.00    +0.000 N 
ATOM     24  H   UNL     1       7.547   3.508  13.641  0.00  0.00    +0.000 HD
ENDBRANCH  14  23
ENDBRANCH   1  17
TORSDOF 3
ENDMDL
MODEL 7
REMARK VINA RESULT:      -7.3      6.040      8.982
REMARK  Name = 
REMARK  4 active torsions:
REMARK  status: ('A' for Active; 'I' for Inactive)
REMARK    1  A    between atoms: C_1  and  C_2
REMARK    2  A    between atoms: N_4  and  C_5
REMARK    3  A    between atoms: C_8  and  C_9
REMARK    4  A    between atoms: N_11  and  C_12
REMARK                            x       y       z     vdW  Elec       q    Type
REMARK                         _______ _______ _______ _____ _____    ______ ____
ROOT
ATOM      1  C   UNL     1       2.582   7.390  19.007  0.00  0.00    +0.000 C 
ATOM      2  O   UNL     1       2.585   6.528  19.881  0.00  0.00    +0.000 OA
ATOM      3  N   UNL     1       3.406   7.436  17.905  0.00  0.00    +0.000 N 
ATOM      4  H   UNL     1       3.435   8.292  17.366  0.00  0.00    +0.000 HD
ENDROOT
BRANCH   3   5
ATOM      5  C   UNL     1       4.174   6.350  17.424  0.00  0.00    +0.000 A 
ATOM      6  C   UNL     1       3.679   5.029  17.356  0.00  0.00    +0.000 A 
ATOM      7  C   UNL     1       4.372   4.020  16.682  0.00  0.00    +0.000 A 
ATOM      8  C   UNL     1       5.543   4.377  16.065  0.00  0.00    +0.000 A 
ATOM      9  C   UNL     1       6.072   5.644  16.185  0.00  0.00    +0.000 A 
ATOM     10  C   UNL     1       5.435   6.645  16.887  0.00  0.00    +0.000 A 
ATOM     11  O   UNL     1       7.202   5.794  15.438  0.00  0.00    +0.000 OA
ATOM     12  C   UNL     1       7.082   4.621  14.604  0.00  0.00    +0.000 C 
ATOM     13  O   UNL     1       6.264   3.601  15.210  0.00  0.00    +0.000 OA
ENDBRANCH   3   5
BRANCH   1  17
ATOM     14  C   UNL     1      -0.394  10.407  19.618  0.00  0.00    +0.000 A 
ATOM     15  C   UNL     1       0.115   9.647  20.672  0.00  0.00    +0.000 A 
ATOM     16  C   UNL     1       1.115   8.709  20.451  0.00  0.00    +0.000 A 
ATOM     17  C   UNL     1       1.630   8.508  19.167  0.00  0.00    +0.000 A 
ATOM     18  C   UNL     1       1.126   9.254  18.096  0.00  0.00    +0.000 A 
ATOM     19  C   UNL     1       0.111  10.199  18.324  0.00  0.00    +0.000 A 
BRANCH  14  23
ATOM     20  C   UNL     1      -2.585  13.341  20.522  0.00  0.00    +0.000 C 
ATOM     21  C   UNL     1      -1.274  12.635  20.304  0.00  0.00    +0.000 C 
ATOM     22  O   UNL     1      -0.219  13.195  20.570  0.00  0.00    +0.000 OA
ATOM     23  N   UNL     1      -1.429  11.350  19.806  0.00  0.00    +0.000 N 
ATOM     24  H   UNL     1      -2.355  11.076  19.496  0.00  0.00    +0.000 HD
ENDBRANCH  14  23
ENDBRANCH   1  17
TORSDOF 3
ENDMDL
MODEL 8
REMARK VINA RESULT:      -7.3      2.007      8.959
REMARK  Name = 
REMARK  4 active torsions:
REMARK  status: ('A' for Active; 'I' for Inactive)
REMARK    1  A    between atoms: C_1  and  C_2
REMARK    2  A    between atoms: N_4  and  C_5
REMARK    3  A    between atoms: C_8  and  C_9
REMARK    4  A    between atoms: N_11  and  C_12
REMARK                            x       y       z     vdW  Elec       q    Type
REMARK                         _______ _______ _______ _____ _____    ______ ____
ROOT
ATOM      1  C   UNL     1       8.053   8.125  18.092  0.00  0.00    +0.000 C 
ATOM      2  O   UNL     1       8.440   7.257  18.869  0.00  0.00    +0.000 OA
ATOM      3  N   UNL     1       7.220   7.939  17.012  0.00  0.00    +0.000 N 
ATOM      4  H   UNL     1       7.131   8.693  16.342  0.00  0.00    +0.000 HD
ENDROOT
BRANCH   3   5
ATOM      5  C   UNL     1       6.420   6.792  16.797  0.00  0.00    +0.000 A 
ATOM      6  C   UNL     1       6.944   5.564  16.337  0.00  0.00    +0.000 A 
ATOM      7  C   UNL     1       6.181   4.395  16.339  0.00  0.00    +0.000 A 
ATOM      8  C   UNL     1       4.905   4.486  16.833  0.00  0.00    +0.000 A 
ATOM      9  C   UNL     1       4.359   5.692  17.216  0.00  0.00    +0.000 A 
ATOM     10  C   UNL     1       5.073   6.870  17.177  0.00  0.00    +0.000 A 
ATOM     11  O   UNL     1       3.108   5.538  17.736  0.00  0.00    +0.000 OA
ATOM     12  C   UNL     1       3.121   4.110  17.944  0.00  0.00    +0.000 C 
ATOM     13  O   UNL     1       4.073   3.441  17.094  0.00  0.00    +0.000 OA
ENDBRANCH   3   5
BRANCH   1  17
ATOM     14  C   UNL     1       9.368  12.090  19.032  0.00  0.00    +0.000 A 
ATOM     15  C   UNL     1       9.685  10.996  19.838  0.00  0.00    +0.000 A 
ATOM     16  C   UNL     1       9.286   9.714  19.482  0.00  0.00    +0.000 A 
ATOM     17  C   UNL     1       8.558   9.497  18.309  0.00  0.00    +0.000 A 
ATOM     18  C   UNL     1       8.221  10.581  17.492  0.00  0.00    +0.000 A 
ATOM     19  C   UNL     1       8.624  11.878  17.859  0.00  0.00    +0.000 A 
BRANCH  14  23
ATOM     20  C   UNL     1      11.100  15.360  19.763  0.00  0.00    +0.000 C 
ATOM     21  C   UNL     1      10.971  13.994  19.144  0.00  0.00    +0.000 C 
ATOM     22  O   UNL     1      11.904  13.508  18.519  0.00  0.00    +0.000 OA
ATOM     23  N   UNL     1       9.736  13.409  19.380  0.00  0.00    +0.000 N 
ATOM     24  H   UNL     1       9.012  13.990  19.787  0.00  0.00    +0.000 HD
ENDBRANCH  14  23
ENDBRANCH   1  17
TORSDOF 3
ENDMDL
MODEL 9
REMARK VINA RESULT:      -7.3      6.148      9.001
REMARK  Name = 
REMARK  4 active torsions:
REMARK  status: ('A' for Active; 'I' for Inactive)
REMARK    1  A    between atoms: C_1  and  C_2
REMARK    2  A    between atoms: N_4  and  C_5
REMARK    3  A    between atoms: C_8  and  C_9
REMARK    4  A    between atoms: N_11  and  C_12
REMARK                            x       y       z     vdW  Elec       q    Type
REMARK                         _______ _______ _______ _____ _____    ______ ____
ROOT
ATOM      1  C   UNL     1       2.337   8.062  18.095  0.00  0.00    +0.000 C 
ATOM      2  O   UNL     1       2.687   8.533  17.017  0.00  0.00    +0.000 OA
ATOM      3  N   UNL     1       2.565   6.778  18.535  0.00  0.00    +0.000 N 
ATOM      4  H   UNL     1       2.063   6.457  19.354  0.00  0.00    +0.000 HD
ENDROOT
BRANCH   3   5
ATOM      5  C   UNL     1       3.502   5.883  17.968  0.00  0.00    +0.000 A 
ATOM      6  C   UNL     1       3.199   4.535  17.674  0.00  0.00    +0.000 A 
ATOM      7  C   UNL     1       4.063   3.737  16.922  0.00  0.00    +0.000 A 
ATOM      8  C   UNL     1       5.208   4.329  16.456  0.00  0.00    +0.000 A 
ATOM      9  C   UNL     1       5.549   5.621  16.795  0.00  0.00    +0.000 A 
ATOM     10  C   UNL     1       4.740   6.414  17.579  0.00  0.00    +0.000 A 
ATOM     11  O   UNL     1       6.690   6.024  16.169  0.00  0.00    +0.000 OA
ATOM     12  C   UNL     1       6.783   4.985  15.171  0.00  0.00    +0.000 C 
ATOM     13  O   UNL     1       6.079   3.789  15.559  0.00  0.00    +0.000 OA
ENDBRANCH   3   5
BRANCH   1  17
ATOM     14  C   UNL     1      -0.087  10.334  20.797  0.00  0.00    +0.000 A 
ATOM     15  C   UNL     1       0.651   9.227  21.218  0.00  0.00    +0.000 A 
ATOM     16  C   UNL     1       1.467   8.539  20.329  0.00  0.00    +0.000 A 
ATOM     17  C   UNL     1       1.563   8.942  18.995  0.00  0.00    +0.000 A 
ATOM     18  C   UNL     1       0.823  10.043  18.550  0.00  0.00    +0.000 A 
ATOM     19  C   UNL     1      -0.004  10.734  19.453  0.00  0.00    +0.000 A 
BRANCH  14  23
ATOM     20  C   UNL     1      -1.725  12.684  23.250  0.00  0.00    +0.000 C 
ATOM     21  C   UNL     1      -0.676  12.265  22.256  0.00  0.00    +0.000 C 
ATOM     22  O   UNL     1       0.295  12.980  22.045  0.00  0.00    +0.000 OA
ATOM     23  N   UNL     1      -0.946  11.037  21.670  0.00  0.00    +0.000 N 
ATOM     24  H   UNL     1      -1.860  10.631  21.834  0.00  0.00    +0.000 HD
ENDBRANCH  14  23
ENDBRANCH   1  17
TORSDOF 3
ENDMDL
