MODEL 1
REMARK VINA RESULT:      -7.2      0.000      0.000
REMARK  Name = 
REMARK  9 active torsions:
REMARK  status: ('A' for Active; 'I' for Inactive)
REMARK    1  A    between atoms: C_1  and  O_2
REMARK    2  A    between atoms: O_2  and  C_3
REMARK    3  A    between atoms: C_8  and  C_9
REMARK    4  A    between atoms: C_12  and  S_13
REMARK    5  A    between atoms: S_13  and  C_14
REMARK    6  A    between atoms: C_14  and  C_15
REMARK    7  A    between atoms: C_15  and  N_16
REMARK    8  A    between atoms: C_17  and  N_18
REMARK    9  A    between atoms: C_23  and  C_24
REMARK                            x       y       z     vdW  Elec       q    Type
REMARK                         _______ _______ _______ _____ _____    ______ ____
ROOT
ATOM      1  C   UNL     1       4.548   3.850  18.204  0.00  0.00    +0.000 A 
ATOM      2  N   UNL     1       4.858   3.257  19.344  0.00  0.00    +0.000 NA
ATOM      3  N   UNL     1       3.707   3.220  20.099  0.00  0.00    +0.000 NA
ATOM      4  C   UNL     1       2.770   3.798  19.377  0.00  0.00    +0.000 A 
ATOM      5  O   UNL     1       3.228   4.212  18.157  0.00  0.00    +0.000 OA
ENDROOT
BRANCH   1  11
ATOM      6  C   UNL     1       6.792   4.562  17.216  0.00  0.00    +0.000 A 
ATOM      7  C   UNL     1       7.553   4.814  16.061  0.00  0.00    +0.000 A 
ATOM      8  C   UNL     1       6.972   4.766  14.793  0.00  0.00    +0.000 A 
ATOM      9  C   UNL     1       5.628   4.456  14.661  0.00  0.00    +0.000 A 
ATOM     10  C   UNL     1       4.870   4.172  15.798  0.00  0.00    +0.000 A 
ATOM     11  C   UNL     1       5.434   4.205  17.092  0.00  0.00    +0.000 A 
BRANCH   6  13
ATOM     12  C   UNL     1       7.723   5.905  18.937  0.00  0.00    +0.000 C 
ATOM     13  O   UNL     1       7.347   4.611  18.471  0.00  0.00    +0.000 OA
ENDBRANCH   6  13
ENDBRANCH   1  11
BRANCH   4  14
ATOM     14  S   UNL     1       1.165   4.122  19.957  0.00  0.00    +0.000 S 
BRANCH  14  15
ATOM     15  C   UNL     1       1.458   5.671  20.878  0.00  0.00    +0.000 C 
BRANCH  15  16
ATOM     16  C   UNL     1       2.579   6.503  20.254  0.00  0.00    +0.000 C 
BRANCH  16  17
ATOM     17  N   UNL     1       2.088   7.736  19.651  0.00  0.00    +0.000 N 
ATOM     18  C   UNL     1       1.277   8.704  20.188  0.00  0.00    +0.000 A 
ATOM     19  C   UNL     1       1.064   9.622  19.190  0.00  0.00    +0.000 A 
ATOM     20  N   UNL     1       1.733   9.252  18.055  0.00  0.00    +0.000 NA
ATOM     21  C   UNL     1       2.343   8.119  18.341  0.00  0.00    +0.000 A 
ATOM     22  C   UNL     1       3.191   7.349  17.389  0.00  0.00    +0.000 C 
BRANCH  18  23
ATOM     23  N   UNL     1       0.771   8.747  21.517  0.00  0.00    +0.000 N 
ATOM     24  O   UNL     1      -0.390   8.369  21.707  0.00  0.00    +0.000 OA
ATOM     25  O   UNL     1       1.547   9.149  22.390  0.00  0.00    +0.000 OA
ENDBRANCH  18  23
ENDBRANCH  16  17
ENDBRANCH  15  16
ENDBRANCH  14  15
ENDBRANCH   4  14
TORSDOF 7
ENDMDL
MODEL 2
REMARK VINA RESULT:      -7.1      2.674      7.593
REMARK  Name = 
REMARK  9 active torsions:
REMARK  status: ('A' for Active; 'I' for Inactive)
REMARK    1  A    between atoms: C_1  and  O_2
REMARK    2  A    between atoms: O_2  and  C_3
REMARK    3  A    between atoms: C_8  and  C_9
REMARK    4  A    between atoms: C_12  and  S_13
REMARK    5  A    between atoms: S_13  and  C_14
REMARK    6  A    between atoms: C_14  and  C_15
REMARK    7  A    between atoms: C_15  and  N_16
REMARK    8  A    between atoms: C_17  and  N_18
REMARK    9  A    between atoms: C_23  and  C_24
REMARK                            x       y       z     vdW  Elec       q    Type
REMARK                         _______ _______ _______ _____ _____    ______ ____
ROOT
ATOM      1  C   UNL     1       1.142   9.314  19.483  0.00  0.00    +0.000 A 
ATOM      2  N   UNL     1       1.301   9.904  18.311  0.00  0.00    +0.000 NA
ATOM      3  N   UNL     1       2.114   9.084  17.560  0.00  0.00    +0.000 NA
ATOM      4  C   UNL     1       2.404   8.050  18.321  0.00  0.00    +0.000 A 
ATOM      5  O   UNL     1       1.813   8.122  19.551  0.00  0.00    +0.000 OA
ENDROOT
BRANCH   1  11
ATOM      6  C   UNL     1      -0.437  10.922  20.682  0.00  0.00    +0.000 A 
ATOM      7  C   UNL     1      -1.113  11.256  21.869  0.00  0.00    +0.000 A 
ATOM      8  C   UNL     1      -0.900  10.536  23.045  0.00  0.00    +0.000 A 
ATOM      9  C   UNL     1      -0.018   9.467  23.049  0.00  0.00    +0.000 A 
ATOM     10  C   UNL     1       0.634   9.106  21.869  0.00  0.00    +0.000 A 
ATOM     11  C   UNL     1       0.431   9.812  20.663  0.00  0.00    +0.000 A 
BRANCH   6  13
ATOM     12  C   UNL     1      -1.950  11.581  18.977  0.00  0.00    +0.000 C 
ATOM     13  O   UNL     1      -0.631  11.624  19.518  0.00  0.00    +0.000 OA
ENDBRANCH   6  13
ENDBRANCH   1  11
BRANCH   4  14
ATOM     14  S   UNL     1       3.522   6.800  17.868  0.00  0.00    +0.000 S 
BRANCH  14  15
ATOM     15  C   UNL     1       3.854   6.051  19.500  0.00  0.00    +0.000 C 
BRANCH  15  16
ATOM     16  C   UNL     1       4.394   4.626  19.375  0.00  0.00    +0.000 C 
BRANCH  16  17
ATOM     17  N   UNL     1       3.397   3.696  18.863  0.00  0.00    +0.000 N 
ATOM     18  C   UNL     1       2.304   3.156  19.495  0.00  0.00    +0.000 A 
ATOM     19  C   UNL     1       1.728   2.294  18.595  0.00  0.00    +0.000 A 
ATOM     20  N   UNL     1       2.428   2.298  17.420  0.00  0.00    +0.000 NA
ATOM     21  C   UNL     1       3.428   3.140  17.590  0.00  0.00    +0.000 A 
ATOM     22  C   UNL     1       4.457   3.456  16.561  0.00  0.00    +0.000 C 
BRANCH  18  23
ATOM     23  N   UNL     1       1.857   3.444  20.814  0.00  0.00    +0.000 N 
ATOM     24  O   UNL     1       2.281   2.739  21.736  0.00  0.00    +0.000 OA
ATOM     25  O   UNL     1       1.085   4.401  20.939  0.00  0.00    +0.000 OA
ENDBRANCH  18  23
ENDBRANCH  16  17
ENDBRANCH  15  16
ENDBRANCH  14  15
ENDBRANCH   4  14
TORSDOF 7
ENDMDL
MODEL 3
REMARK VINA RESULT:      -7.1      2.382      4.439
REMARK  Name = 
REMARK  9 active torsions:
REMARK  status: ('A' for Active; 'I' for Inactive)
REMARK    1  A    between atoms: C_1  and  O_2
REMARK    2  A    between atoms: O_2  and  C_3
REMARK    3  A    between atoms: C_8  and  C_9
REMARK    4  A    between atoms: C_12  and  S_13
REMARK    5  A    between atoms: S_13  and  C_14
REMARK    6  A    between atoms: C_14  and  C_15
REMARK    7  A    between atoms: C_15  and  N_16
REMARK    8  A    between atoms: C_17  and  N_18
REMARK    9  A    between atoms: C_23  and  C_24
REMARK                            x       y       z     vdW  Elec       q    Type
REMARK                         _______ _______ _______ _____ _____    ______ ____
ROOT
ATOM      1  C   UNL     1       4.145   6.583  17.511  0.00  0.00    +0.000 A 
ATOM      2  N   UNL     1       3.408   7.585  17.063  0.00  0.00    +0.000 NA
ATOM      3  N   UNL     1       2.504   7.889  18.056  0.00  0.00    +0.000 NA
ATOM      4  C   UNL     1       2.740   7.051  19.044  0.00  0.00    +0.000 A 
ATOM      5  O   UNL     1       3.776   6.201  18.774  0.00  0.00    +0.000 OA
ENDROOT
BRANCH   1  11
ATOM      6  C   UNL     1       6.566   5.869  17.131  0.00  0.00    +0.000 A 
ATOM      7  C   UNL     1       7.464   5.053  16.421  0.00  0.00    +0.000 A 
ATOM      8  C   UNL     1       7.028   4.251  15.366  0.00  0.00    +0.000 A 
ATOM      9  C   UNL     1       5.687   4.245  15.014  0.00  0.00    +0.000 A 
ATOM     10  C   UNL     1       4.781   5.025  15.733  0.00  0.00    +0.000 A 
ATOM     11  C   UNL     1       5.194   5.840  16.809  0.00  0.00    +0.000 A 
BRANCH   6  13
ATOM     12  C   UNL     1       7.820   7.765  17.812  0.00  0.00    +0.000 C 
ATOM     13  O   UNL     1       6.981   6.668  18.168  0.00  0.00    +0.000 OA
ENDBRANCH   6  13
ENDBRANCH   1  11
BRANCH   4  14
ATOM     14  S   UNL     1       1.762   6.944  20.475  0.00  0.00    +0.000 S 
BRANCH  14  15
ATOM     15  C   UNL     1       2.257   5.297  21.087  0.00  0.00    +0.000 C 
BRANCH  15  16
ATOM     16  C   UNL     1       1.447   4.177  20.434  0.00  0.00    +0.000 C 
BRANCH  16  17
ATOM     17  N   UNL     1       2.246   3.370  19.522  0.00  0.00    +0.000 N 
ATOM     18  C   UNL     1       3.268   2.497  19.800  0.00  0.00    +0.000 A 
ATOM     19  C   UNL     1       3.726   2.044  18.588  0.00  0.00    +0.000 A 
ATOM     20  N   UNL     1       3.005   2.604  17.570  0.00  0.00    +0.000 NA
ATOM     21  C   UNL     1       2.121   3.400  18.139  0.00  0.00    +0.000 A 
ATOM     22  C   UNL     1       1.120   4.222  17.403  0.00  0.00    +0.000 C 
BRANCH  18  23
ATOM     23  N   UNL     1       3.746   2.131  21.089  0.00  0.00    +0.000 N 
ATOM     24  O   UNL     1       4.931   1.799  21.195  0.00  0.00    +0.000 OA
ATOM     25  O   UNL     1       2.932   2.192  22.017  0.00  0.00    +0.000 OA
ENDBRANCH  18  23
ENDBRANCH  16  17
ENDBRANCH  15  16
ENDBRANCH  14  15
ENDBRANCH   4  14
TORSDOF 7
ENDMDL
MODEL 4
REMARK VINA RESULT:      -7.0      3.437      4.777
REMARK  Name = 
REMARK  9 active torsions:
REMARK  status: ('A' for Active; 'I' for Inactive)
REMARK    1  A    between atoms: C_1  and  O_2
REMARK    2  A    between atoms: O_2  and  C_3
REMARK    3  A    between atoms: C_8  and  C_9
REMARK    4  A    between atoms: C_12  and  S_13
REMARK    5  A    between atoms: S_13  and  C_14
REMARK    6  A    between atoms: C_14  and  C_15
REMARK    7  A    between atoms: C_15  and  N_16
REMARK    8  A    between atoms: C_17  and  N_18
REMARK    9  A    between atoms: C_23  and  C_24
REMARK                            x       y       z     vdW  Elec       q    Type
REMARK                         _______ _______ _______ _____ _____    ______ ____
ROOT
ATOM      1  C   UNL     1       5.970   5.382  15.292  0.00  0.00    +0.000 A 
ATOM      2  N   UNL     1       5.313   6.504  15.530  0.00  0.00    +0.000 NA
ATOM      3  N   UNL     1       5.389   6.728  16.887  0.00  0.00    +0.000 NA
ATOM      4  C   UNL     1       6.081   5.728  17.392  0.00  0.00    +0.000 A 
ATOM      5  O   UNL     1       6.493   4.841  16.437  0.00  0.00    +0.000 OA
ENDROOT
BRANCH   1  11
ATOM      6  C   UNL     1       7.267   4.686  13.205  0.00  0.00    +0.000 A 
ATOM      7  C   UNL     1       7.307   3.899  12.042  0.00  0.00    +0.000 A 
ATOM      8  C   UNL     1       6.207   3.133  11.653  0.00  0.00    +0.000 A 
ATOM      9  C   UNL     1       5.057   3.137  12.427  0.00  0.00    +0.000 A 
ATOM     10  C   UNL     1       5.016   3.889  13.601  0.00  0.00    +0.000 A 
ATOM     11  C   UNL     1       6.118   4.666  14.022  0.00  0.00    +0.000 A 
BRANCH   6  13
ATOM     12  C   UNL     1       8.944   6.245  12.582  0.00  0.00    +0.000 C 
ATOM     13  O   UNL     1       8.338   5.449  13.599  0.00  0.00    +0.000 OA
ENDBRANCH   6  13
ENDBRANCH   1  11
BRANCH   4  14
ATOM     14  S   UNL     1       6.329   5.487  19.094  0.00  0.00    +0.000 S 
BRANCH  14  15
ATOM     15  C   UNL     1       4.624   5.103  19.621  0.00  0.00    +0.000 C 
BRANCH  15  16
ATOM     16  C   UNL     1       4.329   3.604  19.555  0.00  0.00    +0.000 C 
BRANCH  16  17
ATOM     17  N   UNL     1       2.931   3.325  19.252  0.00  0.00    +0.000 N 
ATOM     18  C   UNL     1       1.879   3.123  20.109  0.00  0.00    +0.000 A 
ATOM     19  C   UNL     1       0.792   2.837  19.321  0.00  0.00    +0.000 A 
ATOM     20  N   UNL     1       1.143   2.871  17.999  0.00  0.00    +0.000 NA
ATOM     21  C   UNL     1       2.429   3.162  17.967  0.00  0.00    +0.000 A 
ATOM     22  C   UNL     1       3.238   3.299  16.724  0.00  0.00    +0.000 C 
BRANCH  18  23
ATOM     23  N   UNL     1       1.911   3.204  21.529  0.00  0.00    +0.000 N 
ATOM     24  O   UNL     1       2.316   4.255  22.039  0.00  0.00    +0.000 OA
ATOM     25  O   UNL     1       1.511   2.213  22.148  0.00  0.00    +0.000 OA
ENDBRANCH  18  23
ENDBRANCH  16  17
ENDBRANCH  15  16
ENDBRANCH  14  15
ENDBRANCH   4  14
TORSDOF 7
ENDMDL
MODEL 5
REMARK VINA RESULT:      -7.0      1.839      6.397
REMARK  Name = 
REMARK  9 active torsions:
REMARK  status: ('A' for Active; 'I' for Inactive)
REMARK    1  A    between atoms: C_1  and  O_2
REMARK    2  A    between atoms: O_2  and  C_3
REMARK    3  A    between atoms: C_8  and  C_9
REMARK    4  A    between atoms: C_12  and  S_13
REMARK    5  A    between atoms: S_13  and  C_14
REMARK    6  A    between atoms: C_14  and  C_15
REMARK    7  A    between atoms: C_15  and  N_16
REMARK    8  A    between atoms: C_17  and  N_18
REMARK    9  A    between atoms: C_23  and  C_24
REMARK                            x       y       z     vdW  Elec       q    Type
REMARK                         _______ _______ _______ _____ _____    ______ ____
ROOT
ATOM      1  C   UNL     1       2.025   6.618  19.342  0.00  0.00    +0.000 A 
ATOM      2  N   UNL     1       2.357   5.957  20.437  0.00  0.00    +0.000 NA
ATOM      3  N   UNL     1       2.420   4.625  20.094  0.00  0.00    +0.000 NA
ATOM      4  C   UNL     1       2.117   4.555  18.814  0.00  0.00    +0.000 A 
ATOM      5  O   UNL     1       1.866   5.783  18.268  0.00  0.00    +0.000 OA
ENDROOT
BRANCH   1  11
ATOM      6  C   UNL     1       1.085   8.856  20.134  0.00  0.00    +0.000 A 
ATOM      7  C   UNL     1       0.948  10.234  19.898  0.00  0.00    +0.000 A 
ATOM      8  C   UNL     1       1.418  10.813  18.718  0.00  0.00    +0.000 A 
ATOM      9  C   UNL     1       2.040  10.023  17.764  0.00  0.00    +0.000 A 
ATOM     10  C   UNL     1       2.211   8.659  18.001  0.00  0.00    +0.000 A 
ATOM     11  C   UNL     1       1.753   8.050  19.190  0.00  0.00    +0.000 A 
BRANCH   6  13
ATOM     12  C   UNL     1      -0.192   9.092  22.120  0.00  0.00    +0.000 C 
ATOM     13  O   UNL     1       0.623   8.270  21.287  0.00  0.00    +0.000 OA
ENDBRANCH   6  13
ENDBRANCH   1  11
BRANCH   4  14
ATOM     14  S   UNL     1       1.923   3.063  17.947  0.00  0.00    +0.000 S 
BRANCH  14  15
ATOM     15  C   UNL     1       3.626   2.814  17.341  0.00  0.00    +0.000 C 
BRANCH  15  16
ATOM     16  C   UNL     1       4.141   4.028  16.567  0.00  0.00    +0.000 C 
BRANCH  16  17
ATOM     17  N   UNL     1       5.575   4.228  16.735  0.00  0.00    +0.000 N 
ATOM     18  C   UNL     1       6.288   4.489  17.878  0.00  0.00    +0.000 A 
ATOM     19  C   UNL     1       7.594   4.652  17.486  0.00  0.00    +0.000 A 
ATOM     20  N   UNL     1       7.706   4.485  16.132  0.00  0.00    +0.000 NA
ATOM     21  C   UNL     1       6.490   4.233  15.690  0.00  0.00    +0.000 A 
ATOM     22  C   UNL     1       6.139   3.987  14.264  0.00  0.00    +0.000 C 
BRANCH  18  23
ATOM     23  N   UNL     1       5.775   4.564  19.202  0.00  0.00    +0.000 N 
ATOM     24  O   UNL     1       5.654   5.682  19.714  0.00  0.00    +0.000 OA
ATOM     25  O   UNL     1       5.470   3.493  19.737  0.00  0.00    +0.000 OA
ENDBRANCH  18  23
ENDBRANCH  16  17
ENDBRANCH  15  16
ENDBRANCH  14  15
ENDBRANCH   4  14
TORSDOF 7
ENDMDL
MODEL 6
REMARK VINA RESULT:      -7.0      2.939      7.975
REMARK  Name = 
REMARK  9 active torsions:
REMARK  status: ('A' for Active; 'I' for Inactive)
REMARK    1  A    between atoms: C_1  and  O_2
REMARK    2  A    between atoms: O_2  and  C_3
REMARK    3  A    between atoms: C_8  and  C_9
REMARK    4  A    between atoms: C_12  and  S_13
REMARK    5  A    between atoms: S_13  and  C_14
REMARK    6  A    between atoms: C_14  and  C_15
REMARK    7  A    between atoms: C_15  and  N_16
REMARK    8  A    between atoms: C_17  and  N_18
REMARK    9  A    between atoms: C_23  and  C_24
REMARK                            x       y       z     vdW  Elec       q    Type
REMARK                         _______ _______ _______ _____ _____    ______ ____
ROOT
ATOM      1  C   UNL     1       0.952   9.982  19.545  0.00  0.00    +0.000 A 
ATOM      2  N   UNL     1       1.266  10.750  18.516  0.00  0.00    +0.000 NA
ATOM      3  N   UNL     1       2.042   9.986  17.672  0.00  0.00    +0.000 NA
ATOM      4  C   UNL     1       2.158   8.804  18.241  0.00  0.00    +0.000 A 
ATOM      5  O   UNL     1       1.482   8.724  19.426  0.00  0.00    +0.000 OA
ENDROOT
BRANCH   1  11
ATOM      6  C   UNL     1      -0.738  11.381  20.850  0.00  0.00    +0.000 A 
ATOM      7  C   UNL     1      -1.434  11.580  22.055  0.00  0.00    +0.000 A 
ATOM      8  C   UNL     1      -1.168  10.795  23.178  0.00  0.00    +0.000 A 
ATOM      9  C   UNL     1      -0.210   9.796  23.108  0.00  0.00    +0.000 A 
ATOM     10  C   UNL     1       0.465   9.568  21.908  0.00  0.00    +0.000 A 
ATOM     11  C   UNL     1       0.209  10.342  20.755  0.00  0.00    +0.000 A 
BRANCH   6  13
ATOM     12  C   UNL     1      -0.726  13.544  19.874  0.00  0.00    +0.000 C 
ATOM     13  O   UNL     1      -0.984  12.148  19.738  0.00  0.00    +0.000 OA
ENDBRANCH   6  13
ENDBRANCH   1  11
BRANCH   4  14
ATOM     14  S   UNL     1       3.166   7.531  17.625  0.00  0.00    +0.000 S 
BRANCH  14  15
ATOM     15  C   UNL     1       2.307   6.074  18.313  0.00  0.00    +0.000 C 
BRANCH  15  16
ATOM     16  C   UNL     1       2.868   5.670  19.677  0.00  0.00    +0.000 C 
BRANCH  16  17
ATOM     17  N   UNL     1       3.494   4.355  19.654  0.00  0.00    +0.000 N 
ATOM     18  C   UNL     1       2.931   3.121  19.867  0.00  0.00    +0.000 A 
ATOM     19  C   UNL     1       3.959   2.214  19.794  0.00  0.00    +0.000 A 
ATOM     20  N   UNL     1       5.139   2.854  19.529  0.00  0.00    +0.000 NA
ATOM     21  C   UNL     1       4.850   4.138  19.448  0.00  0.00    +0.000 A 
ATOM     22  C   UNL     1       5.841   5.216  19.175  0.00  0.00    +0.000 C 
BRANCH  18  23
ATOM     23  N   UNL     1       1.557   2.842  20.103  0.00  0.00    +0.000 N 
ATOM     24  O   UNL     1       0.861   2.501  19.141  0.00  0.00    +0.000 OA
ATOM     25  O   UNL     1       1.165   2.949  21.271  0.00  0.00    +0.000 OA
ENDBRANCH  18  23
ENDBRANCH  16  17
ENDBRANCH  15  16
ENDBRANCH  14  15
ENDBRANCH   4  14
TORSDOF 7
ENDMDL
MODEL 7
REMARK VINA RESULT:      -6.9      3.276      8.050
REMARK  Name = 
REMARK  9 active torsions:
REMARK  status: ('A' for Active; 'I' for Inactive)
REMARK    1  A    between atoms: C_1  and  O_2
REMARK    2  A    between atoms: O_2  and  C_3
REMARK    3  A    between atoms: C_8  and  C_9
REMARK    4  A    between atoms: C_12  and  S_13
REMARK    5  A    between atoms: S_13  and  C_14
REMARK    6  A    between atoms: C_14  and  C_15
REMARK    7  A    between atoms: C_15  and  N_16
REMARK    8  A    between atoms: C_17  and  N_18
REMARK    9  A    between atoms: C_23  and  C_24
REMARK                            x       y       z     vdW  Elec       q    Type
REMARK                         _______ _______ _______ _____ _____    ______ ____
ROOT
ATOM      1  C   UNL     1      -0.399   9.899  18.579  0.00  0.00    +0.000 A 
ATOM      2  N   UNL     1       0.026   9.914  19.830  0.00  0.00    +0.000 NA
ATOM      3  N   UNL     1       1.224   9.236  19.852  0.00  0.00    +0.000 NA
ATOM      4  C   UNL     1       1.453   8.845  18.615  0.00  0.00    +0.000 A 
ATOM      5  O   UNL     1       0.471   9.240  17.750  0.00  0.00    +0.000 OA
ENDROOT
BRANCH   1  11
ATOM      6  C   UNL     1      -2.452  11.416  18.636  0.00  0.00    +0.000 A 
ATOM      7  C   UNL     1      -3.608  11.872  17.980  0.00  0.00    +0.000 A 
ATOM      8  C   UNL     1      -4.015  11.313  16.768  0.00  0.00    +0.000 A 
ATOM      9  C   UNL     1      -3.266  10.299  16.190  0.00  0.00    +0.000 A 
ATOM     10  C   UNL     1      -2.098   9.861  16.817  0.00  0.00    +0.000 A 
ATOM     11  C   UNL     1      -1.660  10.415  18.039  0.00  0.00    +0.000 A 
BRANCH   6  13
ATOM     12  C   UNL     1      -1.455  13.250  19.765  0.00  0.00    +0.000 C 
ATOM     13  O   UNL     1      -2.041  11.952  19.832  0.00  0.00    +0.000 OA
ENDBRANCH   6  13
ENDBRANCH   1  11
BRANCH   4  14
ATOM     14  S   UNL     1       2.781   7.825  18.154  0.00  0.00    +0.000 S 
BRANCH  14  15
ATOM     15  C   UNL     1       2.380   6.319  19.104  0.00  0.00    +0.000 C 
BRANCH  15  16
ATOM     16  C   UNL     1       3.625   5.480  19.398  0.00  0.00    +0.000 C 
BRANCH  16  17
ATOM     17  N   UNL     1       3.466   4.088  18.998  0.00  0.00    +0.000 N 
ATOM     18  C   UNL     1       2.873   3.051  19.674  0.00  0.00    +0.000 A 
ATOM     19  C   UNL     1       3.042   1.937  18.891  0.00  0.00    +0.000 A 
ATOM     20  N   UNL     1       3.712   2.262  17.743  0.00  0.00    +0.000 NA
ATOM     21  C   UNL     1       3.963   3.554  17.817  0.00  0.00    +0.000 A 
ATOM     22  C   UNL     1       4.684   4.339  16.777  0.00  0.00    +0.000 C 
BRANCH  18  23
ATOM     23  N   UNL     1       2.209   3.125  20.930  0.00  0.00    +0.000 N 
ATOM     24  O   UNL     1       2.804   2.699  21.926  0.00  0.00    +0.000 OA
ATOM     25  O   UNL     1       1.082   3.631  20.930  0.00  0.00    +0.000 OA
ENDBRANCH  18  23
ENDBRANCH  16  17
ENDBRANCH  15  16
ENDBRANCH  14  15
ENDBRANCH   4  14
TORSDOF 7
ENDMDL
MODEL 8
REMARK VINA RESULT:      -6.8      2.826      4.573
REMARK  Name = 
REMARK  9 active torsions:
REMARK  status: ('A' for Active; 'I' for Inactive)
REMARK    1  A    between atoms: C_1  and  O_2
REMARK    2  A    between atoms: O_2  and  C_3
REMARK    3  A    between atoms: C_8  and  C_9
REMARK    4  A    between atoms: C_12  and  S_13
REMARK    5  A    between atoms: S_13  and  C_14
REMARK    6  A    between atoms: C_14  and  C_15
REMARK    7  A    between atoms: C_15  and  N_16
REMARK    8  A    between atoms: C_17  and  N_18
REMARK    9  A    between atoms: C_23  and  C_24
REMARK                            x       y       z     vdW  Elec       q    Type
REMARK                         _______ _______ _______ _____ _____    ______ ____
ROOT
ATOM      1  C   UNL     1       2.328   6.163  19.135  0.00  0.00    +0.000 A 
ATOM      2  N   UNL     1       2.075   6.637  20.343  0.00  0.00    +0.000 NA
ATOM      3  N   UNL     1       1.785   7.975  20.192  0.00  0.00    +0.000 NA
ATOM      4  C   UNL     1       1.885   8.235  18.905  0.00  0.00    +0.000 A 
ATOM      5  O   UNL     1       2.215   7.129  18.171  0.00  0.00    +0.000 OA
ENDROOT
BRANCH   1  11
ATOM      6  C   UNL     1       4.078   4.320  18.890  0.00  0.00    +0.000 A 
ATOM      7  C   UNL     1       4.352   2.982  18.556  0.00  0.00    +0.000 A 
ATOM      8  C   UNL     1       3.355   2.148  18.049  0.00  0.00    +0.000 A 
ATOM      9  C   UNL     1       2.069   2.637  17.878  0.00  0.00    +0.000 A 
ATOM     10  C   UNL     1       1.777   3.954  18.236  0.00  0.00    +0.000 A 
ATOM     11  C   UNL     1       2.765   4.816  18.760  0.00  0.00    +0.000 A 
BRANCH   6  13
ATOM     12  C   UNL     1       6.015   5.615  18.443  0.00  0.00    +0.000 C 
ATOM     13  O   UNL     1       5.049   5.155  19.386  0.00  0.00    +0.000 OA
ENDBRANCH   6  13
ENDBRANCH   1  11
BRANCH   4  14
ATOM     14  S   UNL     1       1.748   9.828  18.227  0.00  0.00    +0.000 S 
BRANCH  14  15
ATOM     15  C   UNL     1       0.367  10.488  19.222  0.00  0.00    +0.000 C 
BRANCH  15  16
ATOM     16  C   UNL     1       0.860  11.381  20.362  0.00  0.00    +0.000 C 
BRANCH  16  17
ATOM     17  N   UNL     1      -0.195  11.697  21.316  0.00  0.00    +0.000 N 
ATOM     18  C   UNL     1      -0.678  10.946  22.359  0.00  0.00    +0.000 A 
ATOM     19  C   UNL     1      -1.708  11.669  22.907  0.00  0.00    +0.000 A 
ATOM     20  N   UNL     1      -1.863  12.853  22.239  0.00  0.00    +0.000 NA
ATOM     21  C   UNL     1      -0.953  12.860  21.285  0.00  0.00    +0.000 A 
ATOM     22  C   UNL     1      -0.760  13.964  20.304  0.00  0.00    +0.000 C 
BRANCH  18  23
ATOM     23  N   UNL     1      -0.197   9.678  22.787  0.00  0.00    +0.000 N 
ATOM     24  O   UNL     1      -0.700   8.667  22.283  0.00  0.00    +0.000 OA
ATOM     25  O   UNL     1       0.709   9.686  23.626  0.00  0.00    +0.000 OA
ENDBRANCH  18  23
ENDBRANCH  16  17
ENDBRANCH  15  16
ENDBRANCH  14  15
ENDBRANCH   4  14
TORSDOF 7
ENDMDL
MODEL 9
REMARK VINA RESULT:      -6.8      2.812      7.766
REMARK  Name = 
REMARK  9 active torsions:
REMARK  status: ('A' for Active; 'I' for Inactive)
REMARK    1  A    between atoms: C_1  and  O_2
REMARK    2  A    between atoms: O_2  and  C_3
REMARK    3  A    between atoms: C_8  and  C_9
REMARK    4  A    between atoms: C_12  and  S_13
REMARK    5  A    between atoms: S_13  and  C_14
REMARK    6  A    between atoms: C_14  and  C_15
REMARK    7  A    between atoms: C_15  and  N_16
REMARK    8  A    between atoms: C_17  and  N_18
REMARK    9  A    between atoms: C_23  and  C_24
REMARK                            x       y       z     vdW  Elec       q    Type
REMARK                         _______ _______ _______ _____ _____    ______ ____
ROOT
ATOM      1  C   UNL     1       0.999   9.427  19.506  0.00  0.00    +0.000 A 
ATOM      2  N   UNL     1       0.814   9.817  18.257  0.00  0.00    +0.000 NA
ATOM      3  N   UNL     1       1.685   9.088  17.479  0.00  0.00    +0.000 NA
ATOM      4  C   UNL     1       2.352   8.304  18.302  0.00  0.00    +0.000 A 
ATOM      5  O   UNL     1       1.961   8.457  19.603  0.00  0.00    +0.000 OA
ENDROOT
BRANCH   1  11
ATOM      6  C   UNL     1       0.064  11.304  20.963  0.00  0.00    +0.000 A 
ATOM      7  C   UNL     1      -0.598  11.666  22.149  0.00  0.00    +0.000 A 
ATOM      8  C   UNL     1      -0.907  10.714  23.121  0.00  0.00    +0.000 A 
ATOM      9  C   UNL     1      -0.569   9.385  22.916  0.00  0.00    +0.000 A 
ATOM     10  C   UNL     1       0.059   9.008  21.728  0.00  0.00    +0.000 A 
ATOM     11  C   UNL     1       0.376   9.950  20.725  0.00  0.00    +0.000 A 
BRANCH   6  13
ATOM     12  C   UNL     1      -0.626  13.198  19.711  0.00  0.00    +0.000 C 
ATOM     13  O   UNL     1       0.380  12.230  20.000  0.00  0.00    +0.000 OA
ENDBRANCH   6  13
ENDBRANCH   1  11
BRANCH   4  14
ATOM     14  S   UNL     1       3.673   7.289  17.811  0.00  0.00    +0.000 S 
BRANCH  14  15
ATOM     15  C   UNL     1       3.595   6.004  19.105  0.00  0.00    +0.000 C 
BRANCH  15  16
ATOM     16  C   UNL     1       2.424   5.045  18.889  0.00  0.00    +0.000 C 
BRANCH  16  17
ATOM     17  N   UNL     1       2.852   3.655  18.804  0.00  0.00    +0.000 N 
ATOM     18  C   UNL     1       2.716   2.645  19.723  0.00  0.00    +0.000 A 
ATOM     19  C   UNL     1       3.340   1.548  19.183  0.00  0.00    +0.000 A 
ATOM     20  N   UNL     1       3.845   1.851  17.948  0.00  0.00    +0.000 NA
ATOM     21  C   UNL     1       3.549   3.117  17.730  0.00  0.00    +0.000 A 
ATOM     22  C   UNL     1       3.912   3.874  16.499  0.00  0.00    +0.000 C 
BRANCH  18  23
ATOM     23  N   UNL     1       2.052   2.722  20.978  0.00  0.00    +0.000 N 
ATOM     24  O   UNL     1       0.833   2.928  20.978  0.00  0.00    +0.000 OA
ATOM     25  O   UNL     1       2.751   2.558  21.984  0.00  0.00    +0.000 OA
ENDBRANCH  18  23
ENDBRANCH  16  17
ENDBRANCH  15  16
ENDBRANCH  14  15
ENDBRANCH   4  14
TORSDOF 7
ENDMDL
