MODEL 1
REMARK VINA RESULT:      -8.5      0.000      0.000
REMARK  Name = 
REMARK  4 active torsions:
REMARK  status: ('A' for Active; 'I' for Inactive)
REMARK    1  A    between atoms: C_1  and  C_2
REMARK    2  A    between atoms: C_5  and  N_6
REMARK    3  A    between atoms: C_9  and  C_10
REMARK    4  A    between atoms: C_12  and  C_13
REMARK                            x       y       z     vdW  Elec       q    Type
REMARK                         _______ _______ _______ _____ _____    ______ ____
ROOT
ATOM      1  N   UNL     1       1.623   7.042  20.667  0.00  0.00    +0.000 N 
ATOM      2  C   UNL     1       2.368   6.038  20.147  0.00  0.00    +0.000 A 
ATOM      3  N   UNL     1       3.408   6.164  19.356  0.00  0.00    +0.000 NA
ATOM      4  C   UNL     1       3.925   4.936  18.994  0.00  0.00    +0.000 A 
ATOM      5  C   UNL     1       3.214   3.856  19.474  0.00  0.00    +0.000 A 
ATOM      6  S   UNL     1       1.946   4.399  20.493  0.00  0.00    +0.000 S 
ATOM      7  H   UNL     1       0.837   6.775  21.252  0.00  0.00    +0.000 HD
ENDROOT
BRANCH   1  12
ATOM      8  C   UNL     1       0.805  12.331  18.548  0.00  0.00    +0.000 C 
ATOM      9  C   UNL     1       1.053  10.960  19.101  0.00  0.00    +0.000 A 
ATOM     10  C   UNL     1       1.535   9.940  18.281  0.00  0.00    +0.000 A 
ATOM     11  C   UNL     1       1.755   8.660  18.796  0.00  0.00    +0.000 A 
ATOM     12  C   UNL     1       1.480   8.348  20.135  0.00  0.00    +0.000 A 
ATOM     13  C   UNL     1       1.027   9.397  20.959  0.00  0.00    +0.000 A 
ATOM     14 CL   UNL     1       0.685   9.115  22.634  0.00  0.00    +0.000 Cl
ATOM     15  C   UNL     1       0.811  10.684  20.451  0.00  0.00    +0.000 A 
ENDBRANCH   1  12
BRANCH   4  16
ATOM     16  C   UNL     1       5.122   4.867  18.170  0.00  0.00    +0.000 A 
ATOM     17  C   UNL     1       5.002   4.598  16.794  0.00  0.00    +0.000 A 
ATOM     18  C   UNL     1       6.127   4.600  15.947  0.00  0.00    +0.000 A 
ATOM     19  C   UNL     1       7.387   4.881  16.500  0.00  0.00    +0.000 A 
ATOM     20  C   UNL     1       7.519   5.144  17.861  0.00  0.00    +0.000 A 
ATOM     21  C   UNL     1       6.394   5.137  18.683  0.00  0.00    +0.000 A 
ATOM     22  F   UNL     1       6.570   5.427  19.980  0.00  0.00    +0.000 F 
BRANCH  18  23
ATOM     23  C   UNL     1       6.002   4.328  14.467  0.00  0.00    +0.000 C 
ATOM     24  F   UNL     1       4.756   4.552  13.968  0.00  0.00    +0.000 F 
ATOM     25  F   UNL     1       6.847   5.099  13.726  0.00  0.00    +0.000 F 
ATOM     26  F   UNL     1       6.305   3.038  14.151  0.00  0.00    +0.000 F 
ENDBRANCH  18  23
ENDBRANCH   4  16
TORSDOF 3
ENDMDL
MODEL 2
REMARK VINA RESULT:      -8.5      3.723      7.714
REMARK  Name = 
REMARK  4 active torsions:
REMARK  status: ('A' for Active; 'I' for Inactive)
REMARK    1  A    between atoms: C_1  and  C_2
REMARK    2  A    between atoms: C_5  and  N_6
REMARK    3  A    between atoms: C_9  and  C_10
REMARK    4  A    between atoms: C_12  and  C_13
REMARK                            x       y       z     vdW  Elec       q    Type
REMARK                         _______ _______ _______ _____ _____    ______ ____
ROOT
ATOM      1  N   UNL     1       4.995   3.253  17.105  0.00  0.00    +0.000 N 
ATOM      2  C   UNL     1       4.317   3.982  18.023  0.00  0.00    +0.000 A 
ATOM      3  N   UNL     1       3.829   5.190  17.859  0.00  0.00    +0.000 NA
ATOM      4  C   UNL     1       3.210   5.650  19.004  0.00  0.00    +0.000 A 
ATOM      5  C   UNL     1       3.291   4.790  20.080  0.00  0.00    +0.000 A 
ATOM      6  S   UNL     1       4.058   3.331  19.602  0.00  0.00    +0.000 S 
ATOM      7  H   UNL     1       5.321   2.337  17.396  0.00  0.00    +0.000 HD
ENDROOT
BRANCH   1  12
ATOM      8  C   UNL     1       7.916   5.531  12.700  0.00  0.00    +0.000 C 
ATOM      9  C   UNL     1       7.167   4.906  13.837  0.00  0.00    +0.000 A 
ATOM     10  C   UNL     1       5.980   4.211  13.610  0.00  0.00    +0.000 A 
ATOM     11  C   UNL     1       5.279   3.637  14.675  0.00  0.00    +0.000 A 
ATOM     12  C   UNL     1       5.722   3.759  15.999  0.00  0.00    +0.000 A 
ATOM     13  C   UNL     1       6.941   4.434  16.208  0.00  0.00    +0.000 A 
ATOM     14 CL   UNL     1       7.584   4.612  17.808  0.00  0.00    +0.000 Cl
ATOM     15  C   UNL     1       7.653   5.004  15.146  0.00  0.00    +0.000 A 
ENDBRANCH   1  12
BRANCH   4  16
ATOM     16  C   UNL     1       2.549   6.946  19.001  0.00  0.00    +0.000 A 
ATOM     17  C   UNL     1       1.788   7.339  20.117  0.00  0.00    +0.000 A 
ATOM     18  C   UNL     1       1.197   8.615  20.187  0.00  0.00    +0.000 A 
ATOM     19  C   UNL     1       1.383   9.504  19.117  0.00  0.00    +0.000 A 
ATOM     20  C   UNL     1       2.130   9.125  18.004  0.00  0.00    +0.000 A 
ATOM     21  C   UNL     1       2.706   7.858  17.953  0.00  0.00    +0.000 A 
ATOM     22  F   UNL     1       3.442   7.552  16.874  0.00  0.00    +0.000 F 
BRANCH  18  23
ATOM     23  C   UNL     1       0.393   9.048  21.390  0.00  0.00    +0.000 C 
ATOM     24  F   UNL     1       1.121   9.146  22.535  0.00  0.00    +0.000 F 
ATOM     25  F   UNL     1      -0.190  10.267  21.211  0.00  0.00    +0.000 F 
ATOM     26  F   UNL     1      -0.626   8.188  21.666  0.00  0.00    +0.000 F 
ENDBRANCH  18  23
ENDBRANCH   4  16
TORSDOF 3
ENDMDL
MODEL 3
REMARK VINA RESULT:      -8.0      1.487      1.880
REMARK  Name = 
REMARK  4 active torsions:
REMARK  status: ('A' for Active; 'I' for Inactive)
REMARK    1  A    between atoms: C_1  and  C_2
REMARK    2  A    between atoms: C_5  and  N_6
REMARK    3  A    between atoms: C_9  and  C_10
REMARK    4  A    between atoms: C_12  and  C_13
REMARK                            x       y       z     vdW  Elec       q    Type
REMARK                         _______ _______ _______ _____ _____    ______ ____
ROOT
ATOM      1  N   UNL     1       2.405   6.106  19.563  0.00  0.00    +0.000 N 
ATOM      2  C   UNL     1       3.052   5.208  18.782  0.00  0.00    +0.000 A 
ATOM      3  N   UNL     1       3.922   5.476  17.836  0.00  0.00    +0.000 NA
ATOM      4  C   UNL     1       4.378   4.328  17.221  0.00  0.00    +0.000 A 
ATOM      5  C   UNL     1       3.786   3.167  17.674  0.00  0.00    +0.000 A 
ATOM      6  S   UNL     1       2.725   3.523  18.974  0.00  0.00    +0.000 S 
ATOM      7  H   UNL     1       1.748   5.734  20.242  0.00  0.00    +0.000 HD
ENDROOT
BRANCH   1  12
ATOM      8  C   UNL     1       1.118  11.571  18.298  0.00  0.00    +0.000 C 
ATOM      9  C   UNL     1       1.487  10.158  18.633  0.00  0.00    +0.000 A 
ATOM     10  C   UNL     1       2.175   9.366  17.714  0.00  0.00    +0.000 A 
ATOM     11  C   UNL     1       2.508   8.045  18.026  0.00  0.00    +0.000 A 
ATOM     12  C   UNL     1       2.147   7.463  19.249  0.00  0.00    +0.000 A 
ATOM     13  C   UNL     1       1.483   8.286  20.180  0.00  0.00    +0.000 A 
ATOM     14 CL   UNL     1       1.020   7.665  21.730  0.00  0.00    +0.000 Cl
ATOM     15  C   UNL     1       1.153   9.613  19.878  0.00  0.00    +0.000 A 
ENDBRANCH   1  12
BRANCH   4  16
ATOM     16  C   UNL     1       5.399   4.414  16.188  0.00  0.00    +0.000 A 
ATOM     17  C   UNL     1       5.126   3.915  14.901  0.00  0.00    +0.000 A 
ATOM     18  C   UNL     1       6.056   4.049  13.852  0.00  0.00    +0.000 A 
ATOM     19  C   UNL     1       7.274   4.698  14.110  0.00  0.00    +0.000 A 
ATOM     20  C   UNL     1       7.558   5.191  15.380  0.00  0.00    +0.000 A 
ATOM     21  C   UNL     1       6.625   5.049  16.405  0.00  0.00    +0.000 A 
ATOM     22  F   UNL     1       6.932   5.568  17.603  0.00  0.00    +0.000 F 
BRANCH  18  23
ATOM     23  C   UNL     1       5.762   3.531  12.465  0.00  0.00    +0.000 C 
ATOM     24  F   UNL     1       4.498   3.796  12.032  0.00  0.00    +0.000 F 
ATOM     25  F   UNL     1       6.597   4.059  11.527  0.00  0.00    +0.000 F 
ATOM     26  F   UNL     1       5.912   2.180  12.375  0.00  0.00    +0.000 F 
ENDBRANCH  18  23
ENDBRANCH   4  16
TORSDOF 3
ENDMDL
MODEL 4
REMARK VINA RESULT:      -7.8      3.817      5.509
REMARK  Name = 
REMARK  4 active torsions:
REMARK  status: ('A' for Active; 'I' for Inactive)
REMARK    1  A    between atoms: C_1  and  C_2
REMARK    2  A    between atoms: C_5  and  N_6
REMARK    3  A    between atoms: C_9  and  C_10
REMARK    4  A    between atoms: C_12  and  C_13
REMARK                            x       y       z     vdW  Elec       q    Type
REMARK                         _______ _______ _______ _____ _____    ______ ____
ROOT
ATOM      1  N   UNL     1      -0.463  10.998  19.962  0.00  0.00    +0.000 N 
ATOM      2  C   UNL     1       0.279   9.984  20.466  0.00  0.00    +0.000 A 
ATOM      3  N   UNL     1       0.699   8.923  19.817  0.00  0.00    +0.000 NA
ATOM      4  C   UNL     1       1.418   8.075  20.635  0.00  0.00    +0.000 A 
ATOM      5  C   UNL     1       1.486   8.479  21.953  0.00  0.00    +0.000 A 
ATOM      6  S   UNL     1       0.731  10.008  22.133  0.00  0.00    +0.000 S 
ATOM      7  H   UNL     1      -0.720  11.742  20.603  0.00  0.00    +0.000 HD
ENDROOT
BRANCH   1  12
ATOM      8  C   UNL     1      -4.132  10.642  15.541  0.00  0.00    +0.000 C 
ATOM      9  C   UNL     1      -3.155  10.755  16.672  0.00  0.00    +0.000 A 
ATOM     10  C   UNL     1      -1.974  10.015  16.667  0.00  0.00    +0.000 A 
ATOM     11  C   UNL     1      -1.070  10.115  17.729  0.00  0.00    +0.000 A 
ATOM     12  C   UNL     1      -1.324  10.933  18.838  0.00  0.00    +0.000 A 
ATOM     13  C   UNL     1      -2.505  11.700  18.812  0.00  0.00    +0.000 A 
ATOM     14 CL   UNL     1      -2.894  12.762  20.126  0.00  0.00    +0.000 Cl
ATOM     15  C   UNL     1      -3.412  11.611  17.748  0.00  0.00    +0.000 A 
ENDBRANCH   1  12
BRANCH   4  16
ATOM     16  C   UNL     1       2.023   6.872  20.083  0.00  0.00    +0.000 A 
ATOM     17  C   UNL     1       1.783   5.631  20.698  0.00  0.00    +0.000 A 
ATOM     18  C   UNL     1       2.284   4.434  20.151  0.00  0.00    +0.000 A 
ATOM     19  C   UNL     1       3.035   4.497  18.966  0.00  0.00    +0.000 A 
ATOM     20  C   UNL     1       3.284   5.721  18.351  0.00  0.00    +0.000 A 
ATOM     21  C   UNL     1       2.780   6.894  18.908  0.00  0.00    +0.000 A 
ATOM     22  F   UNL     1       3.021   8.044  18.261  0.00  0.00    +0.000 F 
BRANCH  18  23
ATOM     23  C   UNL     1       2.016   3.096  20.797  0.00  0.00    +0.000 C 
ATOM     24  F   UNL     1       2.807   2.833  21.873  0.00  0.00    +0.000 F 
ATOM     25  F   UNL     1       0.732   2.984  21.241  0.00  0.00    +0.000 F 
ATOM     26  F   UNL     1       2.200   2.059  19.934  0.00  0.00    +0.000 F 
ENDBRANCH  18  23
ENDBRANCH   4  16
TORSDOF 3
ENDMDL
MODEL 5
REMARK VINA RESULT:      -7.7      4.610      8.048
REMARK  Name = 
REMARK  4 active torsions:
REMARK  status: ('A' for Active; 'I' for Inactive)
REMARK    1  A    between atoms: C_1  and  C_2
REMARK    2  A    between atoms: C_5  and  N_6
REMARK    3  A    between atoms: C_9  and  C_10
REMARK    4  A    between atoms: C_12  and  C_13
REMARK                            x       y       z     vdW  Elec       q    Type
REMARK                         _______ _______ _______ _____ _____    ______ ____
ROOT
ATOM      1  N   UNL     1       2.025   6.789  20.911  0.00  0.00    +0.000 N 
ATOM      2  C   UNL     1       1.456   8.018  20.898  0.00  0.00    +0.000 A 
ATOM      3  N   UNL     1       0.900   8.613  19.868  0.00  0.00    +0.000 NA
ATOM      4  C   UNL     1       0.433   9.870  20.195  0.00  0.00    +0.000 A 
ATOM      5  C   UNL     1       0.702  10.257  21.492  0.00  0.00    +0.000 A 
ATOM      6  S   UNL     1       1.450   8.968  22.341  0.00  0.00    +0.000 S 
ATOM      7  H   UNL     1       2.425   6.478  21.791  0.00  0.00    +0.000 HD
ENDROOT
BRANCH   1  12
ATOM      8  C   UNL     1       4.320   3.829  16.541  0.00  0.00    +0.000 C 
ATOM      9  C   UNL     1       3.702   4.618  17.656  0.00  0.00    +0.000 A 
ATOM     10  C   UNL     1       4.102   5.930  17.904  0.00  0.00    +0.000 A 
ATOM     11  C   UNL     1       3.532   6.660  18.951  0.00  0.00    +0.000 A 
ATOM     12  C   UNL     1       2.566   6.100  19.798  0.00  0.00    +0.000 A 
ATOM     13  C   UNL     1       2.147   4.785  19.513  0.00  0.00    +0.000 A 
ATOM     14 CL   UNL     1       0.938   4.016  20.489  0.00  0.00    +0.000 Cl
ATOM     15  C   UNL     1       2.709   4.050  18.461  0.00  0.00    +0.000 A 
ENDBRANCH   1  12
BRANCH   4  16
ATOM     16  C   UNL     1      -0.273  10.663  19.201  0.00  0.00    +0.000 A 
ATOM     17  C   UNL     1      -1.267  10.058  18.410  0.00  0.00    +0.000 A 
ATOM     18  C   UNL     1      -2.028  10.808  17.491  0.00  0.00    +0.000 A 
ATOM     19  C   UNL     1      -1.781  12.185  17.377  0.00  0.00    +0.000 A 
ATOM     20  C   UNL     1      -0.796  12.794  18.151  0.00  0.00    +0.000 A 
ATOM     21  C   UNL     1      -0.054  12.036  19.053  0.00  0.00    +0.000 A 
ATOM     22  F   UNL     1       0.861  12.674  19.798  0.00  0.00    +0.000 F 
BRANCH  18  23
ATOM     23  C   UNL     1      -3.107  10.168  16.652  0.00  0.00    +0.000 C 
ATOM     24  F   UNL     1      -2.657   9.647  15.477  0.00  0.00    +0.000 F 
ATOM     25  F   UNL     1      -3.729   9.144  17.301  0.00  0.00    +0.000 F 
ATOM     26  F   UNL     1      -4.092  11.047  16.318  0.00  0.00    +0.000 F 
ENDBRANCH  18  23
ENDBRANCH   4  16
TORSDOF 3
ENDMDL
MODEL 6
REMARK VINA RESULT:      -7.6      4.639      6.378
REMARK  Name = 
REMARK  4 active torsions:
REMARK  status: ('A' for Active; 'I' for Inactive)
REMARK    1  A    between atoms: C_1  and  C_2
REMARK    2  A    between atoms: C_5  and  N_6
REMARK    3  A    between atoms: C_9  and  C_10
REMARK    4  A    between atoms: C_12  and  C_13
REMARK                            x       y       z     vdW  Elec       q    Type
REMARK                         _______ _______ _______ _____ _____    ______ ____
ROOT
ATOM      1  N   UNL     1      -1.535  12.496  17.835  0.00  0.00    +0.000 N 
ATOM      2  C   UNL     1      -0.380  11.918  18.241  0.00  0.00    +0.000 A 
ATOM      3  N   UNL     1      -0.196  10.649  18.524  0.00  0.00    +0.000 NA
ATOM      4  C   UNL     1       1.100  10.398  18.925  0.00  0.00    +0.000 A 
ATOM      5  C   UNL     1       1.897  11.521  19.009  0.00  0.00    +0.000 A 
ATOM      6  S   UNL     1       1.028  12.894  18.459  0.00  0.00    +0.000 S 
ATOM      7  H   UNL     1      -1.514  13.498  17.671  0.00  0.00    +0.000 HD
ENDROOT
BRANCH   1  12
ATOM      8  C   UNL     1      -6.941  10.684  18.624  0.00  0.00    +0.000 C 
ATOM      9  C   UNL     1      -5.522  11.130  18.439  0.00  0.00    +0.000 A 
ATOM     10  C   UNL     1      -4.859  11.828  19.448  0.00  0.00    +0.000 A 
ATOM     11  C   UNL     1      -3.539  12.251  19.269  0.00  0.00    +0.000 A 
ATOM     12  C   UNL     1      -2.847  12.015  18.073  0.00  0.00    +0.000 A 
ATOM     13  C   UNL     1      -3.518  11.279  17.077  0.00  0.00    +0.000 A 
ATOM     14 CL   UNL     1      -2.734  10.914  15.575  0.00  0.00    +0.000 Cl
ATOM     15  C   UNL     1      -4.838  10.845  17.253  0.00  0.00    +0.000 A 
ENDBRANCH   1  12
BRANCH   4  16
ATOM     16  C   UNL     1       1.518   9.036  19.221  0.00  0.00    +0.000 A 
ATOM     17  C   UNL     1       2.374   8.364  18.330  0.00  0.00    +0.000 A 
ATOM     18  C   UNL     1       2.864   7.075  18.617  0.00  0.00    +0.000 A 
ATOM     19  C   UNL     1       2.485   6.463  19.822  0.00  0.00    +0.000 A 
ATOM     20  C   UNL     1       1.633   7.115  20.709  0.00  0.00    +0.000 A 
ATOM     21  C   UNL     1       1.159   8.390  20.407  0.00  0.00    +0.000 A 
ATOM     22  F   UNL     1       0.366   8.989  21.309  0.00  0.00    +0.000 F 
BRANCH  18  23
ATOM     23  C   UNL     1       3.797   6.357  17.672  0.00  0.00    +0.000 C 
ATOM     24  F   UNL     1       4.142   7.085  16.575  0.00  0.00    +0.000 F 
ATOM     25  F   UNL     1       4.969   6.004  18.270  0.00  0.00    +0.000 F 
ATOM     26  F   UNL     1       3.260   5.198  17.198  0.00  0.00    +0.000 F 
ENDBRANCH  18  23
ENDBRANCH   4  16
TORSDOF 3
ENDMDL
MODEL 7
REMARK VINA RESULT:      -7.5      1.780      2.776
REMARK  Name = 
REMARK  4 active torsions:
REMARK  status: ('A' for Active; 'I' for Inactive)
REMARK    1  A    between atoms: C_1  and  C_2
REMARK    2  A    between atoms: C_5  and  N_6
REMARK    3  A    between atoms: C_9  and  C_10
REMARK    4  A    between atoms: C_12  and  C_13
REMARK                            x       y       z     vdW  Elec       q    Type
REMARK                         _______ _______ _______ _____ _____    ______ ____
ROOT
ATOM      1  N   UNL     1       1.152   7.512  21.141  0.00  0.00    +0.000 N 
ATOM      2  C   UNL     1       1.832   6.571  20.444  0.00  0.00    +0.000 A 
ATOM      3  N   UNL     1       2.763   6.783  19.543  0.00  0.00    +0.000 NA
ATOM      4  C   UNL     1       3.238   5.602  19.011  0.00  0.00    +0.000 A 
ATOM      5  C   UNL     1       2.601   4.470  19.479  0.00  0.00    +0.000 A 
ATOM      6  S   UNL     1       1.469   4.901  20.693  0.00  0.00    +0.000 S 
ATOM      7  H   UNL     1       0.449   7.181  21.794  0.00  0.00    +0.000 HD
ENDROOT
BRANCH   1  12
ATOM      8  C   UNL     1       0.033  12.943  19.599  0.00  0.00    +0.000 C 
ATOM      9  C   UNL     1       0.359  11.537  20.000  0.00  0.00    +0.000 A 
ATOM     10  C   UNL     1       0.843  10.625  19.063  0.00  0.00    +0.000 A 
ATOM     11  C   UNL     1       1.137   9.311  19.438  0.00  0.00    +0.000 A 
ATOM     12  C   UNL     1       0.935   8.857  20.748  0.00  0.00    +0.000 A 
ATOM     13  C   UNL     1       0.478   9.799  21.691  0.00  0.00    +0.000 A 
ATOM     14 CL   UNL     1       0.224   9.338  23.343  0.00  0.00    +0.000 Cl
ATOM     15  C   UNL     1       0.190  11.119  21.324  0.00  0.00    +0.000 A 
ENDBRANCH   1  12
BRANCH   4  16
ATOM     16  C   UNL     1       4.322   5.626  18.040  0.00  0.00    +0.000 A 
ATOM     17  C   UNL     1       5.381   6.537  18.206  0.00  0.00    +0.000 A 
ATOM     18  C   UNL     1       6.487   6.541  17.334  0.00  0.00    +0.000 A 
ATOM     19  C   UNL     1       6.521   5.608  16.285  0.00  0.00    +0.000 A 
ATOM     20  C   UNL     1       5.476   4.705  16.107  0.00  0.00    +0.000 A 
ATOM     21  C   UNL     1       4.390   4.718  16.980  0.00  0.00    +0.000 A 
ATOM     22  F   UNL     1       3.424   3.808  16.785  0.00  0.00    +0.000 F 
BRANCH  18  23
ATOM     23  C   UNL     1       7.634   7.504  17.517  0.00  0.00    +0.000 C 
ATOM     24  F   UNL     1       8.439   7.211  18.576  0.00  0.00    +0.000 F 
ATOM     25  F   UNL     1       8.451   7.550  16.428  0.00  0.00    +0.000 F 
ATOM     26  F   UNL     1       7.208   8.783  17.714  0.00  0.00    +0.000 F 
ENDBRANCH  18  23
ENDBRANCH   4  16
TORSDOF 3
ENDMDL
MODEL 8
REMARK VINA RESULT:      -7.5      4.902      6.830
REMARK  Name = 
REMARK  4 active torsions:
REMARK  status: ('A' for Active; 'I' for Inactive)
REMARK    1  A    between atoms: C_1  and  C_2
REMARK    2  A    between atoms: C_5  and  N_6
REMARK    3  A    between atoms: C_9  and  C_10
REMARK    4  A    between atoms: C_12  and  C_13
REMARK                            x       y       z     vdW  Elec       q    Type
REMARK                         _______ _______ _______ _____ _____    ______ ____
ROOT
ATOM      1  N   UNL     1      -2.205  12.634  18.308  0.00  0.00    +0.000 N 
ATOM      2  C   UNL     1      -0.996  12.094  18.590  0.00  0.00    +0.000 A 
ATOM      3  N   UNL     1      -0.757  10.856  18.956  0.00  0.00    +0.000 NA
ATOM      4  C   UNL     1       0.587  10.641  19.184  0.00  0.00    +0.000 A 
ATOM      5  C   UNL     1       1.374  11.766  19.049  0.00  0.00    +0.000 A 
ATOM      6  S   UNL     1       0.417  13.085  18.511  0.00  0.00    +0.000 S 
ATOM      7  H   UNL     1      -2.220  13.617  18.053  0.00  0.00    +0.000 HD
ENDROOT
BRANCH   1  12
ATOM      8  C   UNL     1      -7.413  10.891  20.029  0.00  0.00    +0.000 C 
ATOM      9  C   UNL     1      -6.042  11.322  19.604  0.00  0.00    +0.000 A 
ATOM     10  C   UNL     1      -5.294  12.193  20.396  0.00  0.00    +0.000 A 
ATOM     11  C   UNL     1      -4.020  12.602  19.992  0.00  0.00    +0.000 A 
ATOM     12  C   UNL     1      -3.461  12.178  18.779  0.00  0.00    +0.000 A 
ATOM     13  C   UNL     1      -4.215  11.272  18.007  0.00  0.00    +0.000 A 
ATOM     14 CL   UNL     1      -3.596  10.671  16.503  0.00  0.00    +0.000 Cl
ATOM     15  C   UNL     1      -5.489  10.852  18.409  0.00  0.00    +0.000 A 
ENDBRANCH   1  12
BRANCH   4  16
ATOM     16  C   UNL     1       1.060   9.311  19.537  0.00  0.00    +0.000 A 
ATOM     17  C   UNL     1       1.882   8.607  18.639  0.00  0.00    +0.000 A 
ATOM     18  C   UNL     1       2.425   7.351  18.974  0.00  0.00    +0.000 A 
ATOM     19  C   UNL     1       2.134   6.806  20.235  0.00  0.00    +0.000 A 
ATOM     20  C   UNL     1       1.317   7.491  21.130  0.00  0.00    +0.000 A 
ATOM     21  C   UNL     1       0.789   8.732  20.780  0.00  0.00    +0.000 A 
ATOM     22  F   UNL     1       0.034   9.366  21.689  0.00  0.00    +0.000 F 
BRANCH  18  23
ATOM     23  C   UNL     1       3.322   6.598  18.021  0.00  0.00    +0.000 C 
ATOM     24  F   UNL     1       4.463   6.125  18.593  0.00  0.00    +0.000 F 
ATOM     25  F   UNL     1       2.702   5.516  17.472  0.00  0.00    +0.000 F 
ATOM     26  F   UNL     1       3.721   7.368  16.971  0.00  0.00    +0.000 F 
ENDBRANCH  18  23
ENDBRANCH   4  16
TORSDOF 3
ENDMDL
MODEL 9
REMARK VINA RESULT:      -7.5      3.201      4.142
REMARK  Name = 
REMARK  4 active torsions:
REMARK  status: ('A' for Active; 'I' for Inactive)
REMARK    1  A    between atoms: C_1  and  C_2
REMARK    2  A    between atoms: C_5  and  N_6
REMARK    3  A    between atoms: C_9  and  C_10
REMARK    4  A    between atoms: C_12  and  C_13
REMARK                            x       y       z     vdW  Elec       q    Type
REMARK                         _______ _______ _______ _____ _____    ______ ____
ROOT
ATOM      1  N   UNL     1      -0.199  10.557  20.025  0.00  0.00    +0.000 N 
ATOM      2  C   UNL     1       0.622   9.501  20.240  0.00  0.00    +0.000 A 
ATOM      3  N   UNL     1       1.045   8.642  19.342  0.00  0.00    +0.000 NA
ATOM      4  C   UNL     1       1.856   7.676  19.902  0.00  0.00    +0.000 A 
ATOM      5  C   UNL     1       1.994   7.772  21.271  0.00  0.00    +0.000 A 
ATOM      6  S   UNL     1       1.184   9.173  21.840  0.00  0.00    +0.000 S 
ATOM      7  H   UNL     1      -0.445  11.119  20.834  0.00  0.00    +0.000 HD
ENDROOT
BRANCH   1  12
ATOM      8  C   UNL     1      -4.153  11.045  15.871  0.00  0.00    +0.000 C 
ATOM      9  C   UNL     1      -3.101  10.937  16.933  0.00  0.00    +0.000 A 
ATOM     10  C   UNL     1      -2.027  10.061  16.783  0.00  0.00    +0.000 A 
ATOM     11  C   UNL     1      -1.052   9.955  17.780  0.00  0.00    +0.000 A 
ATOM     12  C   UNL     1      -1.129  10.698  18.966  0.00  0.00    +0.000 A 
ATOM     13  C   UNL     1      -2.201  11.603  19.088  0.00  0.00    +0.000 A 
ATOM     14 CL   UNL     1      -2.366  12.585  20.507  0.00  0.00    +0.000 Cl
ATOM     15  C   UNL     1      -3.177  11.721  18.090  0.00  0.00    +0.000 A 
ENDBRANCH   1  12
BRANCH   4  16
ATOM     16  C   UNL     1       2.476   6.668  19.055  0.00  0.00    +0.000 A 
ATOM     17  C   UNL     1       3.470   7.052  18.136  0.00  0.00    +0.000 A 
ATOM     18  C   UNL     1       4.150   6.099  17.354  0.00  0.00    +0.000 A 
ATOM     19  C   UNL     1       3.822   4.743  17.507  0.00  0.00    +0.000 A 
ATOM     20  C   UNL     1       2.836   4.351  18.408  0.00  0.00    +0.000 A 
ATOM     21  C   UNL     1       2.174   5.309  19.173  0.00  0.00    +0.000 A 
ATOM     22  F   UNL     1       1.254   4.879  20.050  0.00  0.00    +0.000 F 
BRANCH  18  23
ATOM     23  C   UNL     1       5.230   6.503  16.379  0.00  0.00    +0.000 C 
ATOM     24  F   UNL     1       6.170   7.334  16.908  0.00  0.00    +0.000 F 
ATOM     25  F   UNL     1       5.913   5.431  15.888  0.00  0.00    +0.000 F 
ATOM     26  F   UNL     1       4.728   7.151  15.291  0.00  0.00    +0.000 F 
ENDBRANCH  18  23
ENDBRANCH   4  16
TORSDOF 3
ENDMDL
