MODEL 1
REMARK VINA RESULT:      -8.0      0.000      0.000
REMARK  Name = 
REMARK  6 active torsions:
REMARK  status: ('A' for Active; 'I' for Inactive)
REMARK    1  A    between atoms: C_1  and  O_2
REMARK    2  A    between atoms: O_2  and  C_3
REMARK    3  A    between atoms: C_3  and  C_4
REMARK    4  A    between atoms: C_5  and  C_6
REMARK    5  A    between atoms: N_8  and  N_9
REMARK    6  A    between atoms: C_10  and  C_11
REMARK                            x       y       z     vdW  Elec       q    Type
REMARK                         _______ _______ _______ _____ _____    ______ ____
ROOT
ATOM      1  C   UNL     1       5.325   5.673  17.684  0.00  0.00    +0.000 A 
ATOM      2  C   UNL     1       6.655   5.920  17.990  0.00  0.00    +0.000 A 
ATOM      3  N   UNL     1       7.076   4.987  18.903  0.00  0.00    +0.000 NA
ATOM      4  N   UNL     1       6.048   4.201  19.197  0.00  0.00    +0.000 NA
ATOM      5  N   UNL     1       5.033   4.472  18.325  0.00  0.00    +0.000 N 
ATOM      6  C   UNL     1       3.870   3.674  18.221  0.00  0.00    +0.000 A 
ATOM      7  N   UNL     1       3.262   3.530  17.042  0.00  0.00    +0.000 NA
ATOM      8  O   UNL     1       2.153   2.735  17.334  0.00  0.00    +0.000 OA
ATOM      9  N   UNL     1       2.108   2.406  18.685  0.00  0.00    +0.000 NA
ATOM     10  C   UNL     1       3.173   2.991  19.232  0.00  0.00    +0.000 A 
ATOM     11  N   UNL     1       3.433   2.991  20.554  0.00  0.00    +0.000 N 
ATOM     12  H   UNL     1       2.702   2.672  21.185  0.00  0.00    +0.000 HD
ATOM     13  H   UNL     1       4.101   3.629  20.977  0.00  0.00    +0.000 HD
ENDROOT
BRANCH   2  14
ATOM     14  C   UNL     1       7.502   7.018  17.520  0.00  0.00    +0.000 C 
ATOM     15  O   UNL     1       7.942   7.045  16.374  0.00  0.00    +0.000 OA
ATOM     16  N   UNL     1       7.768   7.972  18.497  0.00  0.00    +0.000 N 
ATOM     17  H   UNL     1       7.392   7.849  19.430  0.00  0.00    +0.000 HD
BRANCH  16  18
ATOM     18  N   UNL     1       8.564   9.052  18.208  0.00  0.00    +0.000 NA
ATOM     19  C   UNL     1       9.034   9.707  19.225  0.00  0.00    +0.000 C 
BRANCH  19  20
ATOM     20  C   UNL     1       9.884  10.906  19.042  0.00  0.00    +0.000 A 
ATOM     21  C   UNL     1      10.158  11.400  17.767  0.00  0.00    +0.000 A 
ATOM     22  C   UNL     1      10.947  12.532  17.669  0.00  0.00    +0.000 A 
ATOM     23  N   UNL     1      11.465  13.182  18.735  0.00  0.00    +0.000 NA
ATOM     24  C   UNL     1      11.184  12.678  19.955  0.00  0.00    +0.000 A 
ATOM     25  C   UNL     1      10.406  11.550  20.163  0.00  0.00    +0.000 A 
ENDBRANCH  19  20
ENDBRANCH  16  18
ENDBRANCH   2  14
BRANCH   1  26
ATOM     26  C   UNL     1       4.335   6.489  16.932  0.00  0.00    +0.000 C 
BRANCH  26  28
ATOM     27  C   UNL     1       2.471   7.217  18.284  0.00  0.00    +0.000 C 
ATOM     28  O   UNL     1       3.773   7.489  17.785  0.00  0.00    +0.000 OA
ENDBRANCH  26  28
ENDBRANCH   1  26
TORSDOF 5
ENDMDL
MODEL 2
REMARK VINA RESULT:      -7.9      0.758      1.001
REMARK  Name = 
REMARK  6 active torsions:
REMARK  status: ('A' for Active; 'I' for Inactive)
REMARK    1  A    between atoms: C_1  and  O_2
REMARK    2  A    between atoms: O_2  and  C_3
REMARK    3  A    between atoms: C_3  and  C_4
REMARK    4  A    between atoms: C_5  and  C_6
REMARK    5  A    between atoms: N_8  and  N_9
REMARK    6  A    between atoms: C_10  and  C_11
REMARK                            x       y       z     vdW  Elec       q    Type
REMARK                         _______ _______ _______ _____ _____    ______ ____
ROOT
ATOM      1  C   UNL     1       5.067   5.519  17.701  0.00  0.00    +0.000 A 
ATOM      2  C   UNL     1       6.438   5.679  17.833  0.00  0.00    +0.000 A 
ATOM      3  N   UNL     1       6.918   4.697  18.663  0.00  0.00    +0.000 NA
ATOM      4  N   UNL     1       5.891   3.963  19.073  0.00  0.00    +0.000 NA
ATOM      5  N   UNL     1       4.789   4.318  18.350  0.00  0.00    +0.000 N 
ATOM      6  C   UNL     1       3.575   3.593  18.385  0.00  0.00    +0.000 A 
ATOM      7  N   UNL     1       2.809   3.519  17.294  0.00  0.00    +0.000 NA
ATOM      8  O   UNL     1       1.702   2.781  17.713  0.00  0.00    +0.000 OA
ATOM      9  N   UNL     1       1.815   2.416  19.052  0.00  0.00    +0.000 NA
ATOM     10  C   UNL     1       2.977   2.922  19.464  0.00  0.00    +0.000 A 
ATOM     11  N   UNL     1       3.407   2.868  20.740  0.00  0.00    +0.000 N 
ATOM     12  H   UNL     1       2.748   2.574  21.455  0.00  0.00    +0.000 HD
ATOM     13  H   UNL     1       4.163   3.454  21.084  0.00  0.00    +0.000 HD
ENDROOT
BRANCH   2  14
ATOM     14  C   UNL     1       7.282   6.739  17.278  0.00  0.00    +0.000 C 
ATOM     15  O   UNL     1       7.867   6.601  16.208  0.00  0.00    +0.000 OA
ATOM     16  N   UNL     1       7.368   7.864  18.092  0.00  0.00    +0.000 N 
ATOM     17  H   UNL     1       6.879   7.877  18.980  0.00  0.00    +0.000 HD
BRANCH  16  18
ATOM     18  N   UNL     1       8.138   8.934  17.711  0.00  0.00    +0.000 NA
ATOM     19  C   UNL     1       8.611   9.671  18.668  0.00  0.00    +0.000 C 
BRANCH  19  20
ATOM     20  C   UNL     1       9.435  10.869  18.383  0.00  0.00    +0.000 A 
ATOM     21  C   UNL     1      10.803  10.875  18.649  0.00  0.00    +0.000 A 
ATOM     22  C   UNL     1      11.515  12.021  18.346  0.00  0.00    +0.000 A 
ATOM     23  N   UNL     1      10.960  13.131  17.809  0.00  0.00    +0.000 NA
ATOM     24  C   UNL     1       9.633  13.095  17.565  0.00  0.00    +0.000 A 
ATOM     25  C   UNL     1       8.830  11.998  17.834  0.00  0.00    +0.000 A 
ENDBRANCH  19  20
ENDBRANCH  16  18
ENDBRANCH   2  14
BRANCH   1  26
ATOM     26  C   UNL     1       4.039   6.412  17.106  0.00  0.00    +0.000 C 
BRANCH  26  28
ATOM     27  C   UNL     1       2.432   8.038  17.886  0.00  0.00    +0.000 C 
ATOM     28  O   UNL     1       3.732   7.478  18.007  0.00  0.00    +0.000 OA
ENDBRANCH  26  28
ENDBRANCH   1  26
TORSDOF 5
ENDMDL
MODEL 3
REMARK VINA RESULT:      -7.8      0.965      1.514
REMARK  Name = 
REMARK  6 active torsions:
REMARK  status: ('A' for Active; 'I' for Inactive)
REMARK    1  A    between atoms: C_1  and  O_2
REMARK    2  A    between atoms: O_2  and  C_3
REMARK    3  A    between atoms: C_3  and  C_4
REMARK    4  A    between atoms: C_5  and  C_6
REMARK    5  A    between atoms: N_8  and  N_9
REMARK    6  A    between atoms: C_10  and  C_11
REMARK                            x       y       z     vdW  Elec       q    Type
REMARK                         _______ _______ _______ _____ _____    ______ ____
ROOT
ATOM      1  C   UNL     1       5.510   5.624  17.698  0.00  0.00    +0.000 A 
ATOM      2  C   UNL     1       6.768   6.039  18.111  0.00  0.00    +0.000 A 
ATOM      3  N   UNL     1       7.138   5.298  19.205  0.00  0.00    +0.000 NA
ATOM      4  N   UNL     1       6.143   4.471  19.501  0.00  0.00    +0.000 NA
ATOM      5  N   UNL     1       5.231   4.511  18.487  0.00  0.00    +0.000 N 
ATOM      6  C   UNL     1       4.154   3.600  18.380  0.00  0.00    +0.000 A 
ATOM      7  N   UNL     1       3.714   3.223  17.177  0.00  0.00    +0.000 NA
ATOM      8  O   UNL     1       2.640   2.380  17.464  0.00  0.00    +0.000 OA
ATOM      9  N   UNL     1       2.448   2.255  18.837  0.00  0.00    +0.000 NA
ATOM     10  C   UNL     1       3.387   3.013  19.401  0.00  0.00    +0.000 A 
ATOM     11  N   UNL     1       3.475   3.237  20.727  0.00  0.00    +0.000 N 
ATOM     12  H   UNL     1       2.696   2.949  21.312  0.00  0.00    +0.000 HD
ATOM     13  H   UNL     1       4.033   3.992  21.115  0.00  0.00    +0.000 HD
ENDROOT
BRANCH   2  14
ATOM     14  C   UNL     1       7.583   7.129  17.571  0.00  0.00    +0.000 C 
ATOM     15  O   UNL     1       8.093   7.059  16.456  0.00  0.00    +0.000 OA
ATOM     16  N   UNL     1       7.735   8.196  18.450  0.00  0.00    +0.000 N 
ATOM     17  H   UNL     1       7.308   8.153  19.368  0.00  0.00    +0.000 HD
BRANCH  16  18
ATOM     18  N   UNL     1       8.489   9.285  18.088  0.00  0.00    +0.000 NA
ATOM     19  C   UNL     1       9.048   9.943  19.057  0.00  0.00    +0.000 C 
BRANCH  19  20
ATOM     20  C   UNL     1       9.865  11.151  18.796  0.00  0.00    +0.000 A 
ATOM     21  C   UNL     1      11.065  11.362  19.473  0.00  0.00    +0.000 A 
ATOM     22  C   UNL     1      11.784  12.504  19.171  0.00  0.00    +0.000 A 
ATOM     23  N   UNL     1      11.390  13.423  18.261  0.00  0.00    +0.000 NA
ATOM     24  C   UNL     1      10.222  13.192  17.625  0.00  0.00    +0.000 A 
ATOM     25  C   UNL     1       9.426  12.081  17.854  0.00  0.00    +0.000 A 
ENDBRANCH  19  20
ENDBRANCH  16  18
ENDBRANCH   2  14
BRANCH   1  26
ATOM     26  C   UNL     1       4.566   6.220  16.717  0.00  0.00    +0.000 C 
BRANCH  26  28
ATOM     27  C   UNL     1       5.547   5.042  14.852  0.00  0.00    +0.000 C 
ATOM     28  O   UNL     1       5.176   6.287  15.426  0.00  0.00    +0.000 OA
ENDBRANCH  26  28
ENDBRANCH   1  26
TORSDOF 5
ENDMDL
MODEL 4
REMARK VINA RESULT:      -7.3      4.564      7.418
REMARK  Name = 
REMARK  6 active torsions:
REMARK  status: ('A' for Active; 'I' for Inactive)
REMARK    1  A    between atoms: C_1  and  O_2
REMARK    2  A    between atoms: O_2  and  C_3
REMARK    3  A    between atoms: C_3  and  C_4
REMARK    4  A    between atoms: C_5  and  C_6
REMARK    5  A    between atoms: N_8  and  N_9
REMARK    6  A    between atoms: C_10  and  C_11
REMARK                            x       y       z     vdW  Elec       q    Type
REMARK                         _______ _______ _______ _____ _____    ______ ____
ROOT
ATOM      1  C   UNL     1       4.022   6.046  18.302  0.00  0.00    +0.000 A 
ATOM      2  C   UNL     1       3.335   5.404  19.322  0.00  0.00    +0.000 A 
ATOM      3  N   UNL     1       3.778   4.107  19.401  0.00  0.00    +0.000 NA
ATOM      4  N   UNL     1       4.681   3.919  18.448  0.00  0.00    +0.000 NA
ATOM      5  N   UNL     1       4.989   5.129  17.898  0.00  0.00    +0.000 N 
ATOM      6  C   UNL     1       6.066   5.318  17.000  0.00  0.00    +0.000 A 
ATOM      7  N   UNL     1       6.738   6.471  16.996  0.00  0.00    +0.000 NA
ATOM      8  O   UNL     1       7.671   6.310  15.972  0.00  0.00    +0.000 OA
ATOM      9  N   UNL     1       7.554   5.058  15.373  0.00  0.00    +0.000 NA
ATOM     10  C   UNL     1       6.557   4.447  16.013  0.00  0.00    +0.000 A 
ATOM     11  N   UNL     1       6.066   3.243  15.661  0.00  0.00    +0.000 N 
ATOM     12  H   UNL     1       6.357   2.851  14.769  0.00  0.00    +0.000 HD
ATOM     13  H   UNL     1       5.170   2.902  15.995  0.00  0.00    +0.000 HD
ENDROOT
BRANCH   2  14
ATOM     14  C   UNL     1       2.255   5.933  20.158  0.00  0.00    +0.000 C 
ATOM     15  O   UNL     1       1.406   5.197  20.652  0.00  0.00    +0.000 OA
ATOM     16  N   UNL     1       2.284   7.317  20.291  0.00  0.00    +0.000 N 
ATOM     17  H   UNL     1       3.004   7.850  19.816  0.00  0.00    +0.000 HD
BRANCH  16  18
ATOM     18  N   UNL     1       1.324   7.959  21.032  0.00  0.00    +0.000 NA
ATOM     19  C   UNL     1       1.086   9.195  20.717  0.00  0.00    +0.000 C 
BRANCH  19  20
ATOM     20  C   UNL     1       0.091  10.002  21.461  0.00  0.00    +0.000 A 
ATOM     21  C   UNL     1      -0.274   9.663  22.763  0.00  0.00    +0.000 A 
ATOM     22  C   UNL     1      -1.199  10.468  23.404  0.00  0.00    +0.000 A 
ATOM     23  N   UNL     1      -1.766  11.557  22.840  0.00  0.00    +0.000 NA
ATOM     24  C   UNL     1      -1.395  11.857  21.578  0.00  0.00    +0.000 A 
ATOM     25  C   UNL     1      -0.479  11.117  20.848  0.00  0.00    +0.000 A 
ENDBRANCH  19  20
ENDBRANCH  16  18
ENDBRANCH   2  14
BRANCH   1  26
ATOM     26  C   UNL     1       3.791   7.366  17.659  0.00  0.00    +0.000 C 
BRANCH  26  28
ATOM     27  C   UNL     1       1.984   8.959  17.498  0.00  0.00    +0.000 C 
ATOM     28  O   UNL     1       2.390   7.597  17.502  0.00  0.00    +0.000 OA
ENDBRANCH  26  28
ENDBRANCH   1  26
TORSDOF 5
ENDMDL
MODEL 5
REMARK VINA RESULT:      -7.2      4.594      7.434
REMARK  Name = 
REMARK  6 active torsions:
REMARK  status: ('A' for Active; 'I' for Inactive)
REMARK    1  A    between atoms: C_1  and  O_2
REMARK    2  A    between atoms: O_2  and  C_3
REMARK    3  A    between atoms: C_3  and  C_4
REMARK    4  A    between atoms: C_5  and  C_6
REMARK    5  A    between atoms: N_8  and  N_9
REMARK    6  A    between atoms: C_10  and  C_11
REMARK                            x       y       z     vdW  Elec       q    Type
REMARK                         _______ _______ _______ _____ _____    ______ ____
ROOT
ATOM      1  C   UNL     1       3.840   6.209  18.436  0.00  0.00    +0.000 A 
ATOM      2  C   UNL     1       3.131   5.658  19.494  0.00  0.00    +0.000 A 
ATOM      3  N   UNL     1       3.570   4.373  19.694  0.00  0.00    +0.000 NA
ATOM      4  N   UNL     1       4.492   4.102  18.779  0.00  0.00    +0.000 NA
ATOM      5  N   UNL     1       4.814   5.261  18.133  0.00  0.00    +0.000 N 
ATOM      6  C   UNL     1       5.909   5.372  17.245  0.00  0.00    +0.000 A 
ATOM      7  N   UNL     1       6.583   6.521  17.155  0.00  0.00    +0.000 NA
ATOM      8  O   UNL     1       7.537   6.272  16.168  0.00  0.00    +0.000 OA
ATOM      9  N   UNL     1       7.430   4.973  15.678  0.00  0.00    +0.000 NA
ATOM     10  C   UNL     1       6.419   4.420  16.347  0.00  0.00    +0.000 A 
ATOM     11  N   UNL     1       5.934   3.189  16.090  0.00  0.00    +0.000 N 
ATOM     12  H   UNL     1       6.242   2.722  15.241  0.00  0.00    +0.000 HD
ATOM     13  H   UNL     1       5.030   2.878  16.434  0.00  0.00    +0.000 HD
ENDROOT
BRANCH   2  14
ATOM     14  C   UNL     1       2.035   6.257  20.258  0.00  0.00    +0.000 C 
ATOM     15  O   UNL     1       1.038   5.610  20.566  0.00  0.00    +0.000 OA
ATOM     16  N   UNL     1       2.234   7.602  20.552  0.00  0.00    +0.000 N 
ATOM     17  H   UNL     1       3.073   8.066  20.225  0.00  0.00    +0.000 HD
BRANCH  16  18
ATOM     18  N   UNL     1       1.282   8.303  21.249  0.00  0.00    +0.000 NA
ATOM     19  C   UNL     1       0.892   9.422  20.721  0.00  0.00    +0.000 C 
BRANCH  19  20
ATOM     20  C   UNL     1      -0.111  10.282  21.391  0.00  0.00    +0.000 A 
ATOM     21  C   UNL     1      -0.746  11.312  20.698  0.00  0.00    +0.000 A 
ATOM     22  C   UNL     1      -1.682  12.068  21.380  0.00  0.00    +0.000 A 
ATOM     23  N   UNL     1      -2.014  11.863  22.675  0.00  0.00    +0.000 NA
ATOM     24  C   UNL     1      -1.380  10.861  23.319  0.00  0.00    +0.000 A 
ATOM     25  C   UNL     1      -0.426  10.047  22.728  0.00  0.00    +0.000 A 
ENDBRANCH  19  20
ENDBRANCH  16  18
ENDBRANCH   2  14
BRANCH   1  26
ATOM     26  C   UNL     1       3.625   7.469  17.677  0.00  0.00    +0.000 C 
BRANCH  26  28
ATOM     27  C   UNL     1       1.933   9.188  17.559  0.00  0.00    +0.000 C 
ATOM     28  O   UNL     1       2.235   7.804  17.665  0.00  0.00    +0.000 OA
ENDBRANCH  26  28
ENDBRANCH   1  26
TORSDOF 5
ENDMDL
MODEL 6
REMARK VINA RESULT:      -7.2      1.690      2.385
REMARK  Name = 
REMARK  6 active torsions:
REMARK  status: ('A' for Active; 'I' for Inactive)
REMARK    1  A    between atoms: C_1  and  O_2
REMARK    2  A    between atoms: O_2  and  C_3
REMARK    3  A    between atoms: C_3  and  C_4
REMARK    4  A    between atoms: C_5  and  C_6
REMARK    5  A    between atoms: N_8  and  N_9
REMARK    6  A    between atoms: C_10  and  C_11
REMARK                            x       y       z     vdW  Elec       q    Type
REMARK                         _______ _______ _______ _____ _____    ______ ____
ROOT
ATOM      1  C   UNL     1       6.245   5.320  17.825  0.00  0.00    +0.000 A 
ATOM      2  C   UNL     1       6.218   6.654  17.445  0.00  0.00    +0.000 A 
ATOM      3  N   UNL     1       4.910   7.043  17.301  0.00  0.00    +0.000 NA
ATOM      4  N   UNL     1       4.136   5.993  17.541  0.00  0.00    +0.000 NA
ATOM      5  N   UNL     1       4.911   4.992  18.052  0.00  0.00    +0.000 N 
ATOM      6  C   UNL     1       4.375   3.808  18.611  0.00  0.00    +0.000 A 
ATOM      7  N   UNL     1       5.000   3.205  19.625  0.00  0.00    +0.000 NA
ATOM      8  O   UNL     1       4.222   2.074  19.870  0.00  0.00    +0.000 OA
ATOM      9  N   UNL     1       3.134   2.010  19.004  0.00  0.00    +0.000 NA
ATOM     10  C   UNL     1       3.233   3.086  18.225  0.00  0.00    +0.000 A 
ATOM     11  N   UNL     1       2.416   3.336  17.183  0.00  0.00    +0.000 N 
ATOM     12  H   UNL     1       1.796   2.592  16.873  0.00  0.00    +0.000 HD
ATOM     13  H   UNL     1       2.643   4.018  16.465  0.00  0.00    +0.000 HD
ENDROOT
BRANCH   2  14
ATOM     14  C   UNL     1       7.351   7.535  17.152  0.00  0.00    +0.000 C 
ATOM     15  O   UNL     1       8.164   7.265  16.272  0.00  0.00    +0.000 OA
ATOM     16  N   UNL     1       7.415   8.651  17.979  0.00  0.00    +0.000 N 
ATOM     17  H   UNL     1       6.719   8.775  18.706  0.00  0.00    +0.000 HD
BRANCH  16  18
ATOM     18  N   UNL     1       8.434   9.559  17.835  0.00  0.00    +0.000 NA
ATOM     19  C   UNL     1       8.948  10.024  18.932  0.00  0.00    +0.000 C 
BRANCH  19  20
ATOM     20  C   UNL     1      10.036  11.029  18.907  0.00  0.00    +0.000 A 
ATOM     21  C   UNL     1      10.553  11.492  17.698  0.00  0.00    +0.000 A 
ATOM     22  C   UNL     1      11.558  12.442  17.746  0.00  0.00    +0.000 A 
ATOM     23  N   UNL     1      12.063  12.942  18.895  0.00  0.00    +0.000 NA
ATOM     24  C   UNL     1      11.544  12.473  20.049  0.00  0.00    +0.000 A 
ATOM     25  C   UNL     1      10.538  11.522  20.110  0.00  0.00    +0.000 A 
ENDBRANCH  19  20
ENDBRANCH  16  18
ENDBRANCH   2  14
BRANCH   1  26
ATOM     26  C   UNL     1       7.375   4.359  17.907  0.00  0.00    +0.000 C 
BRANCH  26  28
ATOM     27  C   UNL     1       7.851   5.383  20.042  0.00  0.00    +0.000 C 
ATOM     28  O   UNL     1       8.356   4.831  18.834  0.00  0.00    +0.000 OA
ENDBRANCH  26  28
ENDBRANCH   1  26
TORSDOF 5
ENDMDL
MODEL 7
REMARK VINA RESULT:      -7.2      3.844      7.112
REMARK  Name = 
REMARK  6 active torsions:
REMARK  status: ('A' for Active; 'I' for Inactive)
REMARK    1  A    between atoms: C_1  and  O_2
REMARK    2  A    between atoms: O_2  and  C_3
REMARK    3  A    between atoms: C_3  and  C_4
REMARK    4  A    between atoms: C_5  and  C_6
REMARK    5  A    between atoms: N_8  and  N_9
REMARK    6  A    between atoms: C_10  and  C_11
REMARK                            x       y       z     vdW  Elec       q    Type
REMARK                         _______ _______ _______ _____ _____    ______ ____
ROOT
ATOM      1  C   UNL     1       5.048   5.745  17.038  0.00  0.00    +0.000 A 
ATOM      2  C   UNL     1       4.133   5.123  17.876  0.00  0.00    +0.000 A 
ATOM      3  N   UNL     1       3.786   3.914  17.327  0.00  0.00    +0.000 NA
ATOM      4  N   UNL     1       4.423   3.786  16.170  0.00  0.00    +0.000 NA
ATOM      5  N   UNL     1       5.342   4.789  16.069  0.00  0.00    +0.000 N 
ATOM      6  C   UNL     1       6.333   4.831  15.060  0.00  0.00    +0.000 A 
ATOM      7  N   UNL     1       7.530   5.360  15.320  0.00  0.00    +0.000 NA
ATOM      8  O   UNL     1       8.207   5.270  14.103  0.00  0.00    +0.000 OA
ATOM      9  N   UNL     1       7.410   4.683  13.124  0.00  0.00    +0.000 NA
ATOM     10  C   UNL     1       6.250   4.413  13.721  0.00  0.00    +0.000 A 
ATOM     11  N   UNL     1       5.171   3.926  13.078  0.00  0.00    +0.000 N 
ATOM     12  H   UNL     1       5.185   3.914  12.061  0.00  0.00    +0.000 HD
ATOM     13  H   UNL     1       4.239   3.950  13.482  0.00  0.00    +0.000 HD
ENDROOT
BRANCH   2  14
ATOM     14  C   UNL     1       3.535   5.644  19.107  0.00  0.00    +0.000 C 
ATOM     15  O   UNL     1       3.709   5.091  20.190  0.00  0.00    +0.000 OA
ATOM     16  N   UNL     1       2.750   6.775  18.908  0.00  0.00    +0.000 N 
ATOM     17  H   UNL     1       2.633   7.143  17.970  0.00  0.00    +0.000 HD
BRANCH  16  18
ATOM     18  N   UNL     1       2.110   7.366  19.968  0.00  0.00    +0.000 NA
ATOM     19  C   UNL     1       1.648   8.561  19.766  0.00  0.00    +0.000 C 
BRANCH  19  20
ATOM     20  C   UNL     1       0.962   9.314  20.842  0.00  0.00    +0.000 A 
ATOM     21  C   UNL     1       0.359  10.543  20.581  0.00  0.00    +0.000 A 
ATOM     22  C   UNL     1      -0.278  11.186  21.628  0.00  0.00    +0.000 A 
ATOM     23  N   UNL     1      -0.346  10.689  22.883  0.00  0.00    +0.000 NA
ATOM     24  C   UNL     1       0.249   9.499  23.105  0.00  0.00    +0.000 A 
ATOM     25  C   UNL     1       0.913   8.775  22.127  0.00  0.00    +0.000 A 
ENDBRANCH  19  20
ENDBRANCH  16  18
ENDBRANCH   2  14
BRANCH   1  26
ATOM     26  C   UNL     1       5.577   7.133  17.041  0.00  0.00    +0.000 C 
BRANCH  26  28
ATOM     27  C   UNL     1       7.661   8.246  17.544  0.00  0.00    +0.000 C 
ATOM     28  O   UNL     1       6.740   7.214  17.869  0.00  0.00    +0.000 OA
ENDBRANCH  26  28
ENDBRANCH   1  26
TORSDOF 5
ENDMDL
MODEL 8
REMARK VINA RESULT:      -7.1      1.667      2.450
REMARK  Name = 
REMARK  6 active torsions:
REMARK  status: ('A' for Active; 'I' for Inactive)
REMARK    1  A    between atoms: C_1  and  O_2
REMARK    2  A    between atoms: O_2  and  C_3
REMARK    3  A    between atoms: C_3  and  C_4
REMARK    4  A    between atoms: C_5  and  C_6
REMARK    5  A    between atoms: N_8  and  N_9
REMARK    6  A    between atoms: C_10  and  C_11
REMARK                            x       y       z     vdW  Elec       q    Type
REMARK                         _______ _______ _______ _____ _____    ______ ____
ROOT
ATOM      1  C   UNL     1       5.720   5.260  17.497  0.00  0.00    +0.000 A 
ATOM      2  C   UNL     1       5.944   6.628  17.554  0.00  0.00    +0.000 A 
ATOM      3  N   UNL     1       4.776   7.249  17.917  0.00  0.00    +0.000 NA
ATOM      4  N   UNL     1       3.836   6.322  18.049  0.00  0.00    +0.000 NA
ATOM      5  N   UNL     1       4.429   5.094  17.994  0.00  0.00    +0.000 N 
ATOM      6  C   UNL     1       3.751   3.893  18.308  0.00  0.00    +0.000 A 
ATOM      7  N   UNL     1       4.413   2.879  18.871  0.00  0.00    +0.000 NA
ATOM      8  O   UNL     1       3.450   1.876  18.985  0.00  0.00    +0.000 OA
ATOM      9  N   UNL     1       2.219   2.297  18.493  0.00  0.00    +0.000 NA
ATOM     10  C   UNL     1       2.410   3.548  18.073  0.00  0.00    +0.000 A 
ATOM     11  N   UNL     1       1.473   4.276  17.436  0.00  0.00    +0.000 N 
ATOM     12  H   UNL     1       0.635   3.800  17.113  0.00  0.00    +0.000 HD
ATOM     13  H   UNL     1       1.699   5.120  16.918  0.00  0.00    +0.000 HD
ENDROOT
BRANCH   2  14
ATOM     14  C   UNL     1       7.168   7.358  17.220  0.00  0.00    +0.000 C 
ATOM     15  O   UNL     1       7.922   6.976  16.329  0.00  0.00    +0.000 OA
ATOM     16  N   UNL     1       7.386   8.473  18.023  0.00  0.00    +0.000 N 
ATOM     17  H   UNL     1       6.727   8.694  18.761  0.00  0.00    +0.000 HD
BRANCH  16  18
ATOM     18  N   UNL     1       8.504   9.248  17.838  0.00  0.00    +0.000 NA
ATOM     19  C   UNL     1       8.774  10.099  18.780  0.00  0.00    +0.000 C 
BRANCH  19  20
ATOM     20  C   UNL     1       9.939  11.009  18.684  0.00  0.00    +0.000 A 
ATOM     21  C   UNL     1      10.826  11.148  19.750  0.00  0.00    +0.000 A 
ATOM     22  C   UNL     1      11.900  12.005  19.589  0.00  0.00    +0.000 A 
ATOM     23  N   UNL     1      12.135  12.710  18.460  0.00  0.00    +0.000 NA
ATOM     24  C   UNL     1      11.257  12.556  17.447  0.00  0.00    +0.000 A 
ATOM     25  C   UNL     1      10.149  11.726  17.507  0.00  0.00    +0.000 A 
ENDBRANCH  19  20
ENDBRANCH  16  18
ENDBRANCH   2  14
BRANCH   1  26
ATOM     26  C   UNL     1       6.564   4.161  16.961  0.00  0.00    +0.000 C 
BRANCH  26  28
ATOM     27  C   UNL     1       6.454   4.298  14.552  0.00  0.00    +0.000 C 
ATOM     28  O   UNL     1       6.007   3.663  15.742  0.00  0.00    +0.000 OA
ENDBRANCH  26  28
ENDBRANCH   1  26
TORSDOF 5
ENDMDL
MODEL 9
REMARK VINA RESULT:      -7.0      1.842      2.557
REMARK  Name = 
REMARK  6 active torsions:
REMARK  status: ('A' for Active; 'I' for Inactive)
REMARK    1  A    between atoms: C_1  and  O_2
REMARK    2  A    between atoms: O_2  and  C_3
REMARK    3  A    between atoms: C_3  and  C_4
REMARK    4  A    between atoms: C_5  and  C_6
REMARK    5  A    between atoms: N_8  and  N_9
REMARK    6  A    between atoms: C_10  and  C_11
REMARK                            x       y       z     vdW  Elec       q    Type
REMARK                         _______ _______ _______ _____ _____    ______ ____
ROOT
ATOM      1  C   UNL     1       6.260   5.391  17.880  0.00  0.00    +0.000 A 
ATOM      2  C   UNL     1       6.279   6.739  17.552  0.00  0.00    +0.000 A 
ATOM      3  N   UNL     1       4.987   7.200  17.511  0.00  0.00    +0.000 NA
ATOM      4  N   UNL     1       4.176   6.181  17.765  0.00  0.00    +0.000 NA
ATOM      5  N   UNL     1       4.928   5.123  18.185  0.00  0.00    +0.000 N 
ATOM      6  C   UNL     1       4.368   3.946  18.737  0.00  0.00    +0.000 A 
ATOM      7  N   UNL     1       5.026   3.273  19.683  0.00  0.00    +0.000 NA
ATOM      8  O   UNL     1       4.206   2.173  19.940  0.00  0.00    +0.000 OA
ATOM      9  N   UNL     1       3.061   2.199  19.148  0.00  0.00    +0.000 NA
ATOM     10  C   UNL     1       3.166   3.300  18.404  0.00  0.00    +0.000 A 
ATOM     11  N   UNL     1       2.296   3.632  17.430  0.00  0.00    +0.000 N 
ATOM     12  H   UNL     1       1.618   2.934  17.136  0.00  0.00    +0.000 HD
ATOM     13  H   UNL     1       2.511   4.329  16.723  0.00  0.00    +0.000 HD
ENDROOT
BRANCH   2  14
ATOM     14  C   UNL     1       7.436   7.571  17.214  0.00  0.00    +0.000 C 
ATOM     15  O   UNL     1       8.219   7.252  16.324  0.00  0.00    +0.000 OA
ATOM     16  N   UNL     1       7.557   8.704  18.013  0.00  0.00    +0.000 N 
ATOM     17  H   UNL     1       6.882   8.869  18.751  0.00  0.00    +0.000 HD
BRANCH  16  18
ATOM     18  N   UNL     1       8.604   9.571  17.825  0.00  0.00    +0.000 NA
ATOM     19  C   UNL     1       8.444  10.772  18.289  0.00  0.00    +0.000 C 
BRANCH  19  20
ATOM     20  C   UNL     1       9.492  11.807  18.125  0.00  0.00    +0.000 A 
ATOM     21  C   UNL     1      10.842  11.462  18.129  0.00  0.00    +0.000 A 
ATOM     22  C   UNL     1      11.768  12.475  17.957  0.00  0.00    +0.000 A 
ATOM     23  N   UNL     1      11.436  13.775  17.787  0.00  0.00    +0.000 NA
ATOM     24  C   UNL     1      10.121  14.077  17.790  0.00  0.00    +0.000 A 
ATOM     25  C   UNL     1       9.115  13.138  17.956  0.00  0.00    +0.000 A 
ENDBRANCH  19  20
ENDBRANCH  16  18
ENDBRANCH   2  14
BRANCH   1  26
ATOM     26  C   UNL     1       7.340   4.371  17.850  0.00  0.00    +0.000 C 
BRANCH  26  28
ATOM     27  C   UNL     1       6.774   4.003  15.531  0.00  0.00    +0.000 C 
ATOM     28  O   UNL     1       7.791   4.172  16.508  0.00  0.00    +0.000 OA
ENDBRANCH  26  28
ENDBRANCH   1  26
TORSDOF 5
ENDMDL
