MODEL 1
REMARK VINA RESULT:      -8.2      0.000      0.000
REMARK  Name = 
REMARK  10 active torsions:
REMARK  status: ('A' for Active; 'I' for Inactive)
REMARK    1  A    between atoms: C_1  and  N_2
REMARK    2  A    between atoms: N_2  and  C_3
REMARK    3  A    between atoms: N_2  and  C_4
REMARK    4  A    between atoms: C_4  and  C_5
REMARK    5  A    between atoms: C_8  and  N_9
REMARK    6  A    between atoms: C_10  and  C_12
REMARK    7  A    between atoms: C_16  and  C_17
REMARK    8  A    between atoms: C_17  and  N_18
REMARK    9  A    between atoms: N_21  and  C_22
REMARK   10  A    between atoms: C_25  and  C_26
REMARK                            x       y       z     vdW  Elec       q    Type
REMARK                         _______ _______ _______ _____ _____    ______ ____
ROOT
ATOM      1  C   UNL     1       9.406  11.339  18.091  0.00  0.00    +0.000 A 
ATOM      2  C   UNL     1      10.770  11.483  17.801  0.00  0.00    +0.000 A 
ATOM      3  C   UNL     1      11.307  12.736  17.520  0.00  0.00    +0.000 A 
ATOM      4  C   UNL     1      10.487  13.862  17.549  0.00  0.00    +0.000 A 
ATOM      5  C   UNL     1       9.124  13.744  17.859  0.00  0.00    +0.000 A 
ATOM      6  C   UNL     1       8.578  12.468  18.104  0.00  0.00    +0.000 A 
ENDROOT
BRANCH   1   8
ATOM      7  N   UNL     1       8.309   9.213  17.558  0.00  0.00    +0.000 N 
ATOM      8  C   UNL     1       8.940   9.989  18.514  0.00  0.00    +0.000 C 
ATOM      9  O   UNL     1       9.193   9.650  19.666  0.00  0.00    +0.000 OA
ATOM     10  H   UNL     1       8.356   9.519  16.593  0.00  0.00    +0.000 HD
BRANCH   7  14
ATOM     11  C   UNL     1       6.341   5.532  18.333  0.00  0.00    +0.000 A 
ATOM     12  C   UNL     1       7.558   5.819  18.959  0.00  0.00    +0.000 A 
ATOM     13  C   UNL     1       8.231   7.017  18.695  0.00  0.00    +0.000 A 
ATOM     14  C   UNL     1       7.704   7.955  17.802  0.00  0.00    +0.000 A 
ATOM     15  C   UNL     1       6.501   7.657  17.153  0.00  0.00    +0.000 A 
ATOM     16  C   UNL     1       5.834   6.449  17.402  0.00  0.00    +0.000 A 
BRANCH  11  17
ATOM     17  C   UNL     1       5.554   4.296  18.722  0.00  0.00    +0.000 C 
BRANCH  17  19
ATOM     18  C   UNL     1       3.470   3.215  18.059  0.00  0.00    +0.000 C 
ATOM     19  N   UNL     1       4.100   4.454  18.520  0.00  0.00    +0.000 NA
ATOM     20  C   UNL     1       3.456   4.901  19.756  0.00  0.00    +0.000 C 
ENDBRANCH  17  19
ENDBRANCH  11  17
ENDBRANCH   7  14
ENDBRANCH   1   8
BRANCH   5  21
ATOM     21  C   UNL     1       8.275  14.986  17.955  0.00  0.00    +0.000 C 
BRANCH  21  22
ATOM     22  N   UNL     1       6.961  14.780  17.395  0.00  0.00    +0.000 N 
ATOM     23  C   UNL     1       5.855  15.180  18.101  0.00  0.00    +0.000 C 
ATOM     24  O   UNL     1       5.959  15.713  19.199  0.00  0.00    +0.000 OA
ATOM     25  N   UNL     1       4.678  14.942  17.423  0.00  0.00    +0.000 N 
ATOM     26  H   UNL     1       6.860  14.082  16.675  0.00  0.00    +0.000 HD
ATOM     27  H   UNL     1       4.722  14.338  16.616  0.00  0.00    +0.000 HD
BRANCH  25  28
ATOM     28  C   UNL     1       3.399  15.352  17.851  0.00  0.00    +0.000 A 
ATOM     29  C   UNL     1       2.527  14.501  18.537  0.00  0.00    +0.000 A 
ATOM     30  C   UNL     1       1.255  14.927  18.924  0.00  0.00    +0.000 A 
ATOM     31  C   UNL     1       0.832  16.226  18.643  0.00  0.00    +0.000 A 
ATOM     32  C   UNL     1       1.711  17.092  17.973  0.00  0.00    +0.000 A 
ATOM     33  C   UNL     1       2.990  16.663  17.591  0.00  0.00    +0.000 A 
BRANCH  31  34
ATOM     34  C   UNL     1      -0.516  16.734  19.025  0.00  0.00    +0.000 C 
ATOM     35  N   UNL     1      -1.099  17.692  18.242  0.00  0.00    +0.000 N 
ATOM     36  O   UNL     1      -1.104  16.305  20.011  0.00  0.00    +0.000 OA
ATOM     37  H   UNL     1      -0.713  18.069  17.392  0.00  0.00    +0.000 HD
ATOM     38  H   UNL     1      -2.025  17.998  18.511  0.00  0.00    +0.000 HD
ENDBRANCH  31  34
ENDBRANCH  25  28
ENDBRANCH  21  22
ENDBRANCH   5  21
TORSDOF 8
ENDMDL
MODEL 2
REMARK VINA RESULT:      -8.1      3.890      9.289
REMARK  Name = 
REMARK  10 active torsions:
REMARK  status: ('A' for Active; 'I' for Inactive)
REMARK    1  A    between atoms: C_1  and  N_2
REMARK    2  A    between atoms: N_2  and  C_3
REMARK    3  A    between atoms: N_2  and  C_4
REMARK    4  A    between atoms: C_4  and  C_5
REMARK    5  A    between atoms: C_8  and  N_9
REMARK    6  A    between atoms: C_10  and  C_12
REMARK    7  A    between atoms: C_16  and  C_17
REMARK    8  A    between atoms: C_17  and  N_18
REMARK    9  A    between atoms: N_21  and  C_22
REMARK   10  A    between atoms: C_25  and  C_26
REMARK                            x       y       z     vdW  Elec       q    Type
REMARK                         _______ _______ _______ _____ _____    ______ ____
ROOT
ATOM      1  C   UNL     1       3.229   6.557  18.222  0.00  0.00    +0.000 A 
ATOM      2  C   UNL     1       2.551   5.336  18.102  0.00  0.00    +0.000 A 
ATOM      3  C   UNL     1       3.234   4.179  17.736  0.00  0.00    +0.000 A 
ATOM      4  C   UNL     1       4.607   4.229  17.508  0.00  0.00    +0.000 A 
ATOM      5  C   UNL     1       5.308   5.436  17.644  0.00  0.00    +0.000 A 
ATOM      6  C   UNL     1       4.606   6.612  17.976  0.00  0.00    +0.000 A 
ENDROOT
BRANCH   1   8
ATOM      7  N   UNL     1       2.108   7.680  20.090  0.00  0.00    +0.000 N 
ATOM      8  C   UNL     1       2.455   7.714  18.751  0.00  0.00    +0.000 C 
ATOM      9  O   UNL     1       2.224   8.632  17.969  0.00  0.00    +0.000 OA
ATOM     10  H   UNL     1       2.543   6.975  20.674  0.00  0.00    +0.000 HD
BRANCH   7  14
ATOM     11  C   UNL     1      -0.443  10.390  22.132  0.00  0.00    +0.000 A 
ATOM     12  C   UNL     1      -0.371  10.415  20.735  0.00  0.00    +0.000 A 
ATOM     13  C   UNL     1       0.483   9.545  20.050  0.00  0.00    +0.000 A 
ATOM     14  C   UNL     1       1.284   8.631  20.741  0.00  0.00    +0.000 A 
ATOM     15  C   UNL     1       1.235   8.625  22.140  0.00  0.00    +0.000 A 
ATOM     16  C   UNL     1       0.394   9.508  22.830  0.00  0.00    +0.000 A 
BRANCH  11  17
ATOM     17  C   UNL     1      -1.464  11.242  22.860  0.00  0.00    +0.000 C 
BRANCH  17  19
ATOM     18  C   UNL     1      -3.145  12.909  22.274  0.00  0.00    +0.000 C 
ATOM     19  N   UNL     1      -1.736  12.521  22.176  0.00  0.00    +0.000 NA
ATOM     20  C   UNL     1      -0.896  13.586  22.725  0.00  0.00    +0.000 C 
ENDBRANCH  17  19
ENDBRANCH  11  17
ENDBRANCH   7  14
ENDBRANCH   1   8
BRANCH   5  21
ATOM     21  C   UNL     1       6.805   5.448  17.462  0.00  0.00    +0.000 C 
BRANCH  21  22
ATOM     22  N   UNL     1       7.449   6.349  18.388  0.00  0.00    +0.000 N 
ATOM     23  C   UNL     1       7.862   7.583  17.953  0.00  0.00    +0.000 C 
ATOM     24  O   UNL     1       7.691   7.940  16.794  0.00  0.00    +0.000 OA
ATOM     25  N   UNL     1       8.432   8.337  18.959  0.00  0.00    +0.000 N 
ATOM     26  H   UNL     1       7.865   5.955  19.217  0.00  0.00    +0.000 HD
ATOM     27  H   UNL     1       8.674   7.860  19.814  0.00  0.00    +0.000 HD
BRANCH  25  28
ATOM     28  C   UNL     1       8.839   9.680  18.833  0.00  0.00    +0.000 A 
ATOM     29  C   UNL     1       8.364  10.518  17.821  0.00  0.00    +0.000 A 
ATOM     30  C   UNL     1       8.807  11.837  17.705  0.00  0.00    +0.000 A 
ATOM     31  C   UNL     1       9.730  12.352  18.614  0.00  0.00    +0.000 A 
ATOM     32  C   UNL     1      10.195  11.522  19.647  0.00  0.00    +0.000 A 
ATOM     33  C   UNL     1       9.744  10.199  19.763  0.00  0.00    +0.000 A 
BRANCH  31  34
ATOM     34  C   UNL     1      10.244  13.749  18.537  0.00  0.00    +0.000 C 
ATOM     35  N   UNL     1       9.998  14.474  17.403  0.00  0.00    +0.000 N 
ATOM     36  O   UNL     1      10.868  14.251  19.464  0.00  0.00    +0.000 OA
ATOM     37  H   UNL     1       9.458  14.161  16.613  0.00  0.00    +0.000 HD
ATOM     38  H   UNL     1      10.336  15.427  17.391  0.00  0.00    +0.000 HD
ENDBRANCH  31  34
ENDBRANCH  25  28
ENDBRANCH  21  22
ENDBRANCH   5  21
TORSDOF 8
ENDMDL
MODEL 3
REMARK VINA RESULT:      -8.1      0.863      1.543
REMARK  Name = 
REMARK  10 active torsions:
REMARK  status: ('A' for Active; 'I' for Inactive)
REMARK    1  A    between atoms: C_1  and  N_2
REMARK    2  A    between atoms: N_2  and  C_3
REMARK    3  A    between atoms: N_2  and  C_4
REMARK    4  A    between atoms: C_4  and  C_5
REMARK    5  A    between atoms: C_8  and  N_9
REMARK    6  A    between atoms: C_10  and  C_12
REMARK    7  A    between atoms: C_16  and  C_17
REMARK    8  A    between atoms: C_17  and  N_18
REMARK    9  A    between atoms: N_21  and  C_22
REMARK   10  A    between atoms: C_25  and  C_26
REMARK                            x       y       z     vdW  Elec       q    Type
REMARK                         _______ _______ _______ _____ _____    ______ ____
ROOT
ATOM      1  C   UNL     1       9.505  11.300  18.137  0.00  0.00    +0.000 A 
ATOM      2  C   UNL     1      10.884  11.339  17.885  0.00  0.00    +0.000 A 
ATOM      3  C   UNL     1      11.523  12.548  17.627  0.00  0.00    +0.000 A 
ATOM      4  C   UNL     1      10.793  13.734  17.640  0.00  0.00    +0.000 A 
ATOM      5  C   UNL     1       9.416  13.720  17.912  0.00  0.00    +0.000 A 
ATOM      6  C   UNL     1       8.766  12.489  18.134  0.00  0.00    +0.000 A 
ENDROOT
BRANCH   1   8
ATOM      7  N   UNL     1       8.288   9.254  17.554  0.00  0.00    +0.000 N 
ATOM      8  C   UNL     1       8.925   9.989  18.539  0.00  0.00    +0.000 C 
ATOM      9  O   UNL     1       9.096   9.639  19.703  0.00  0.00    +0.000 OA
ATOM     10  H   UNL     1       8.404   9.551  16.592  0.00  0.00    +0.000 HD
BRANCH   7  14
ATOM     11  C   UNL     1       6.327   5.535  18.140  0.00  0.00    +0.000 A 
ATOM     12  C   UNL     1       5.722   6.530  17.366  0.00  0.00    +0.000 A 
ATOM     13  C   UNL     1       6.344   7.769  17.184  0.00  0.00    +0.000 A 
ATOM     14  C   UNL     1       7.584   8.043  17.770  0.00  0.00    +0.000 A 
ATOM     15  C   UNL     1       8.178   7.059  18.568  0.00  0.00    +0.000 A 
ATOM     16  C   UNL     1       7.547   5.823  18.767  0.00  0.00    +0.000 A 
BRANCH  11  17
ATOM     17  C   UNL     1       5.711   4.152  18.226  0.00  0.00    +0.000 C 
BRANCH  17  19
ATOM     18  C   UNL     1       3.828   4.843  19.613  0.00  0.00    +0.000 C 
ATOM     19  N   UNL     1       4.967   3.932  19.482  0.00  0.00    +0.000 NA
ATOM     20  C   UNL     1       4.500   2.548  19.566  0.00  0.00    +0.000 C 
ENDBRANCH  17  19
ENDBRANCH  11  17
ENDBRANCH   7  14
ENDBRANCH   1   8
BRANCH   5  21
ATOM     21  C   UNL     1       8.664  15.024  17.992  0.00  0.00    +0.000 C 
BRANCH  21  22
ATOM     22  N   UNL     1       7.368  14.933  17.363  0.00  0.00    +0.000 N 
ATOM     23  C   UNL     1       6.235  15.007  18.134  0.00  0.00    +0.000 C 
ATOM     24  O   UNL     1       6.300  15.153  19.349  0.00  0.00    +0.000 OA
ATOM     25  N   UNL     1       5.078  14.933  17.387  0.00  0.00    +0.000 N 
ATOM     26  H   UNL     1       7.315  14.507  16.452  0.00  0.00    +0.000 HD
ATOM     27  H   UNL     1       5.165  14.633  16.428  0.00  0.00    +0.000 HD
BRANCH  25  28
ATOM     28  C   UNL     1       3.773  15.097  17.894  0.00  0.00    +0.000 A 
ATOM     29  C   UNL     1       3.132  16.338  17.930  0.00  0.00    +0.000 A 
ATOM     30  C   UNL     1       1.849  16.475  18.465  0.00  0.00    +0.000 A 
ATOM     31  C   UNL     1       1.173  15.362  18.965  0.00  0.00    +0.000 A 
ATOM     32  C   UNL     1       1.804  14.109  18.912  0.00  0.00    +0.000 A 
ATOM     33  C   UNL     1       3.090  13.975  18.370  0.00  0.00    +0.000 A 
BRANCH  31  34
ATOM     34  C   UNL     1      -0.193  15.448  19.553  0.00  0.00    +0.000 C 
ATOM     35  N   UNL     1      -1.106  14.481  19.232  0.00  0.00    +0.000 N 
ATOM     36  O   UNL     1      -0.504  16.356  20.316  0.00  0.00    +0.000 OA
ATOM     37  H   UNL     1      -0.927  13.677  18.653  0.00  0.00    +0.000 HD
ATOM     38  H   UNL     1      -2.016  14.551  19.668  0.00  0.00    +0.000 HD
ENDBRANCH  31  34
ENDBRANCH  25  28
ENDBRANCH  21  22
ENDBRANCH   5  21
TORSDOF 8
ENDMDL
MODEL 4
REMARK VINA RESULT:      -7.9      3.830      8.939
REMARK  Name = 
REMARK  10 active torsions:
REMARK  status: ('A' for Active; 'I' for Inactive)
REMARK    1  A    between atoms: C_1  and  N_2
REMARK    2  A    between atoms: N_2  and  C_3
REMARK    3  A    between atoms: N_2  and  C_4
REMARK    4  A    between atoms: C_4  and  C_5
REMARK    5  A    between atoms: C_8  and  N_9
REMARK    6  A    between atoms: C_10  and  C_12
REMARK    7  A    between atoms: C_16  and  C_17
REMARK    8  A    between atoms: C_17  and  N_18
REMARK    9  A    between atoms: N_21  and  C_22
REMARK   10  A    between atoms: C_25  and  C_26
REMARK                            x       y       z     vdW  Elec       q    Type
REMARK                         _______ _______ _______ _____ _____    ______ ____
ROOT
ATOM      1  C   UNL     1       3.618   5.633  17.613  0.00  0.00    +0.000 A 
ATOM      2  C   UNL     1       3.448   4.249  17.474  0.00  0.00    +0.000 A 
ATOM      3  C   UNL     1       4.528   3.429  17.159  0.00  0.00    +0.000 A 
ATOM      4  C   UNL     1       5.795   3.985  17.002  0.00  0.00    +0.000 A 
ATOM      5  C   UNL     1       5.993   5.365  17.160  0.00  0.00    +0.000 A 
ATOM      6  C   UNL     1       4.889   6.196  17.439  0.00  0.00    +0.000 A 
ENDROOT
BRANCH   1   8
ATOM      7  N   UNL     1       2.704   7.636  18.690  0.00  0.00    +0.000 N 
ATOM      8  C   UNL     1       2.445   6.418  18.085  0.00  0.00    +0.000 C 
ATOM      9  O   UNL     1       1.334   5.947  17.861  0.00  0.00    +0.000 OA
ATOM     10  H   UNL     1       3.644   8.009  18.619  0.00  0.00    +0.000 HD
BRANCH   7  14
ATOM     11  C   UNL     1      -0.117  10.271  20.457  0.00  0.00    +0.000 A 
ATOM     12  C   UNL     1       0.457   9.248  21.218  0.00  0.00    +0.000 A 
ATOM     13  C   UNL     1       1.369   8.357  20.644  0.00  0.00    +0.000 A 
ATOM     14  C   UNL     1       1.730   8.466  19.298  0.00  0.00    +0.000 A 
ATOM     15  C   UNL     1       1.136   9.472  18.527  0.00  0.00    +0.000 A 
ATOM     16  C   UNL     1       0.207  10.354  19.095  0.00  0.00    +0.000 A 
BRANCH  11  17
ATOM     17  C   UNL     1      -1.001  11.311  21.116  0.00  0.00    +0.000 C 
BRANCH  17  19
ATOM     18  C   UNL     1       0.517  13.199  21.398  0.00  0.00    +0.000 C 
ATOM     19  N   UNL     1      -0.269  12.164  22.073  0.00  0.00    +0.000 NA
ATOM     20  C   UNL     1      -1.196  12.790  23.016  0.00  0.00    +0.000 C 
ENDBRANCH  17  19
ENDBRANCH  11  17
ENDBRANCH   7  14
ENDBRANCH   1   8
BRANCH   5  21
ATOM     21  C   UNL     1       7.386   5.931  17.057  0.00  0.00    +0.000 C 
BRANCH  21  22
ATOM     22  N   UNL     1       7.373   7.370  16.948  0.00  0.00    +0.000 N 
ATOM     23  C   UNL     1       8.045   8.124  17.876  0.00  0.00    +0.000 C 
ATOM     24  O   UNL     1       8.663   7.601  18.795  0.00  0.00    +0.000 OA
ATOM     25  N   UNL     1       7.962   9.478  17.621  0.00  0.00    +0.000 N 
ATOM     26  H   UNL     1       6.634   7.795  16.410  0.00  0.00    +0.000 HD
ATOM     27  H   UNL     1       7.278   9.780  16.944  0.00  0.00    +0.000 HD
BRANCH  25  28
ATOM     28  C   UNL     1       8.647  10.481  18.336  0.00  0.00    +0.000 A 
ATOM     29  C   UNL     1       9.325  10.222  19.530  0.00  0.00    +0.000 A 
ATOM     30  C   UNL     1       9.972  11.242  20.231  0.00  0.00    +0.000 A 
ATOM     31  C   UNL     1       9.965  12.547  19.740  0.00  0.00    +0.000 A 
ATOM     32  C   UNL     1       9.304  12.809  18.530  0.00  0.00    +0.000 A 
ATOM     33  C   UNL     1       8.660  11.782  17.826  0.00  0.00    +0.000 A 
BRANCH  31  34
ATOM     34  C   UNL     1      10.631  13.677  20.447  0.00  0.00    +0.000 C 
ATOM     35  N   UNL     1      11.665  14.320  19.824  0.00  0.00    +0.000 N 
ATOM     36  O   UNL     1      10.266  14.038  21.560  0.00  0.00    +0.000 OA
ATOM     37  H   UNL     1      12.002  14.124  18.896  0.00  0.00    +0.000 HD
ATOM     38  H   UNL     1      12.080  15.100  20.317  0.00  0.00    +0.000 HD
ENDBRANCH  31  34
ENDBRANCH  25  28
ENDBRANCH  21  22
ENDBRANCH   5  21
TORSDOF 8
ENDMDL
MODEL 5
REMARK VINA RESULT:      -7.8      3.194      9.151
REMARK  Name = 
REMARK  10 active torsions:
REMARK  status: ('A' for Active; 'I' for Inactive)
REMARK    1  A    between atoms: C_1  and  N_2
REMARK    2  A    between atoms: N_2  and  C_3
REMARK    3  A    between atoms: N_2  and  C_4
REMARK    4  A    between atoms: C_4  and  C_5
REMARK    5  A    between atoms: C_8  and  N_9
REMARK    6  A    between atoms: C_10  and  C_12
REMARK    7  A    between atoms: C_16  and  C_17
REMARK    8  A    between atoms: C_17  and  N_18
REMARK    9  A    between atoms: N_21  and  C_22
REMARK   10  A    between atoms: C_25  and  C_26
REMARK                            x       y       z     vdW  Elec       q    Type
REMARK                         _______ _______ _______ _____ _____    ______ ____
ROOT
ATOM      1  C   UNL     1       3.317   6.458  18.046  0.00  0.00    +0.000 A 
ATOM      2  C   UNL     1       2.684   5.217  17.886  0.00  0.00    +0.000 A 
ATOM      3  C   UNL     1       3.416   4.089  17.527  0.00  0.00    +0.000 A 
ATOM      4  C   UNL     1       4.794   4.186  17.347  0.00  0.00    +0.000 A 
ATOM      5  C   UNL     1       5.451   5.413  17.524  0.00  0.00    +0.000 A 
ATOM      6  C   UNL     1       4.700   6.561  17.849  0.00  0.00    +0.000 A 
ENDROOT
BRANCH   1   8
ATOM      7  N   UNL     1       2.176   8.594  17.675  0.00  0.00    +0.000 N 
ATOM      8  C   UNL     1       2.489   7.581  18.564  0.00  0.00    +0.000 C 
ATOM      9  O   UNL     1       2.108   7.500  19.728  0.00  0.00    +0.000 OA
ATOM     10  H   UNL     1       2.366   8.437  16.692  0.00  0.00    +0.000 HD
BRANCH   7  14
ATOM     11  C   UNL     1       0.251  12.198  18.827  0.00  0.00    +0.000 A 
ATOM     12  C   UNL     1      -0.502  11.036  18.628  0.00  0.00    +0.000 A 
ATOM     13  C   UNL     1       0.115   9.848  18.224  0.00  0.00    +0.000 A 
ATOM     14  C   UNL     1       1.496   9.791  18.011  0.00  0.00    +0.000 A 
ATOM     15  C   UNL     1       2.246  10.959  18.182  0.00  0.00    +0.000 A 
ATOM     16  C   UNL     1       1.628  12.157  18.568  0.00  0.00    +0.000 A 
BRANCH  11  17
ATOM     17  C   UNL     1      -0.403  13.445  19.390  0.00  0.00    +0.000 C 
BRANCH  17  19
ATOM     18  C   UNL     1      -0.107  15.305  20.941  0.00  0.00    +0.000 C 
ATOM     19  N   UNL     1       0.233  13.912  20.638  0.00  0.00    +0.000 NA
ATOM     20  C   UNL     1      -0.154  13.058  21.762  0.00  0.00    +0.000 C 
ENDBRANCH  17  19
ENDBRANCH  11  17
ENDBRANCH   7  14
ENDBRANCH   1   8
BRANCH   5  21
ATOM     21  C   UNL     1       6.952   5.475  17.394  0.00  0.00    +0.000 C 
BRANCH  21  22
ATOM     22  N   UNL     1       7.535   6.376  18.360  0.00  0.00    +0.000 N 
ATOM     23  C   UNL     1       7.972   7.611  17.953  0.00  0.00    +0.000 C 
ATOM     24  O   UNL     1       7.874   7.970  16.786  0.00  0.00    +0.000 OA
ATOM     25  N   UNL     1       8.477   8.364  18.993  0.00  0.00    +0.000 N 
ATOM     26  H   UNL     1       7.899   5.981  19.212  0.00  0.00    +0.000 HD
ATOM     27  H   UNL     1       8.666   7.886  19.861  0.00  0.00    +0.000 HD
BRANCH  25  28
ATOM     28  C   UNL     1       8.890   9.708  18.895  0.00  0.00    +0.000 A 
ATOM     29  C   UNL     1       9.806  10.280  19.782  0.00  0.00    +0.000 A 
ATOM     30  C   UNL     1      10.174  11.623  19.677  0.00  0.00    +0.000 A 
ATOM     31  C   UNL     1       9.640  12.422  18.667  0.00  0.00    +0.000 A 
ATOM     32  C   UNL     1       8.735  11.848  17.760  0.00  0.00    +0.000 A 
ATOM     33  C   UNL     1       8.371  10.498  17.865  0.00  0.00    +0.000 A 
BRANCH  31  34
ATOM     34  C   UNL     1       9.990  13.862  18.510  0.00  0.00    +0.000 C 
ATOM     35  N   UNL     1       9.734  14.714  19.549  0.00  0.00    +0.000 N 
ATOM     36  O   UNL     1      10.502  14.285  17.480  0.00  0.00    +0.000 OA
ATOM     37  H   UNL     1       9.359  14.449  20.445  0.00  0.00    +0.000 HD
ATOM     38  H   UNL     1      10.007  15.680  19.423  0.00  0.00    +0.000 HD
ENDBRANCH  31  34
ENDBRANCH  25  28
ENDBRANCH  21  22
ENDBRANCH   5  21
TORSDOF 8
ENDMDL
MODEL 6
REMARK VINA RESULT:      -7.8      3.128      9.196
REMARK  Name = 
REMARK  10 active torsions:
REMARK  status: ('A' for Active; 'I' for Inactive)
REMARK    1  A    between atoms: C_1  and  N_2
REMARK    2  A    between atoms: N_2  and  C_3
REMARK    3  A    between atoms: N_2  and  C_4
REMARK    4  A    between atoms: C_4  and  C_5
REMARK    5  A    between atoms: C_8  and  N_9
REMARK    6  A    between atoms: C_10  and  C_12
REMARK    7  A    between atoms: C_16  and  C_17
REMARK    8  A    between atoms: C_17  and  N_18
REMARK    9  A    between atoms: N_21  and  C_22
REMARK   10  A    between atoms: C_25  and  C_26
REMARK                            x       y       z     vdW  Elec       q    Type
REMARK                         _______ _______ _______ _____ _____    ______ ____
ROOT
ATOM      1  C   UNL     1       3.421   6.550  18.378  0.00  0.00    +0.000 A 
ATOM      2  C   UNL     1       3.057   5.226  18.661  0.00  0.00    +0.000 A 
ATOM      3  C   UNL     1       3.946   4.180  18.429  0.00  0.00    +0.000 A 
ATOM      4  C   UNL     1       5.218   4.452  17.933  0.00  0.00    +0.000 A 
ATOM      5  C   UNL     1       5.612   5.771  17.664  0.00  0.00    +0.000 A 
ATOM      6  C   UNL     1       4.695   6.823  17.863  0.00  0.00    +0.000 A 
ENDROOT
BRANCH   1   8
ATOM      7  N   UNL     1       2.184   8.596  17.845  0.00  0.00    +0.000 N 
ATOM      8  C   UNL     1       2.467   7.619  18.783  0.00  0.00    +0.000 C 
ATOM      9  O   UNL     1       1.969   7.526  19.900  0.00  0.00    +0.000 OA
ATOM     10  H   UNL     1       2.488   8.441  16.891  0.00  0.00    +0.000 HD
BRANCH   7  14
ATOM     11  C   UNL     1      -0.106  12.063  18.721  0.00  0.00    +0.000 A 
ATOM     12  C   UNL     1      -0.748  10.869  18.379  0.00  0.00    +0.000 A 
ATOM     13  C   UNL     1      -0.007   9.725  18.064  0.00  0.00    +0.000 A 
ATOM     14  C   UNL     1       1.391   9.747  18.084  0.00  0.00    +0.000 A 
ATOM     15  C   UNL     1       2.035  10.948  18.397  0.00  0.00    +0.000 A 
ATOM     16  C   UNL     1       1.295  12.101  18.695  0.00  0.00    +0.000 A 
BRANCH  11  17
ATOM     17  C   UNL     1      -0.912  13.259  19.188  0.00  0.00    +0.000 C 
BRANCH  17  19
ATOM     18  C   UNL     1      -0.345  15.626  19.021  0.00  0.00    +0.000 C 
ATOM     19  N   UNL     1      -0.067  14.357  19.698  0.00  0.00    +0.000 NA
ATOM     20  C   UNL     1      -0.253  14.520  21.140  0.00  0.00    +0.000 C 
ENDBRANCH  17  19
ENDBRANCH  11  17
ENDBRANCH   7  14
ENDBRANCH   1   8
BRANCH   5  21
ATOM     21  C   UNL     1       7.019   6.044  17.197  0.00  0.00    +0.000 C 
BRANCH  21  22
ATOM     22  N   UNL     1       7.788   6.748  18.195  0.00  0.00    +0.000 N 
ATOM     23  C   UNL     1       8.098   8.071  18.001  0.00  0.00    +0.000 C 
ATOM     24  O   UNL     1       7.731   8.670  16.998  0.00  0.00    +0.000 OA
ATOM     25  N   UNL     1       8.809   8.609  19.053  0.00  0.00    +0.000 N 
ATOM     26  H   UNL     1       8.342   6.202  18.835  0.00  0.00    +0.000 HD
ATOM     27  H   UNL     1       9.198   7.966  19.726  0.00  0.00    +0.000 HD
BRANCH  25  28
ATOM     28  C   UNL     1       9.162   9.968  19.182  0.00  0.00    +0.000 A 
ATOM     29  C   UNL     1       9.378  10.796  18.077  0.00  0.00    +0.000 A 
ATOM     30  C   UNL     1       9.754  12.132  18.236  0.00  0.00    +0.000 A 
ATOM     31  C   UNL     1       9.909  12.672  19.512  0.00  0.00    +0.000 A 
ATOM     32  C   UNL     1       9.673  11.851  20.626  0.00  0.00    +0.000 A 
ATOM     33  C   UNL     1       9.290  10.512  20.462  0.00  0.00    +0.000 A 
BRANCH  31  34
ATOM     34  C   UNL     1      10.315  14.087  19.743  0.00  0.00    +0.000 C 
ATOM     35  N   UNL     1      10.474  14.519  21.031  0.00  0.00    +0.000 N 
ATOM     36  O   UNL     1      10.513  14.855  18.808  0.00  0.00    +0.000 OA
ATOM     37  H   UNL     1      10.378  13.950  21.856  0.00  0.00    +0.000 HD
ATOM     38  H   UNL     1      10.776  15.477  21.155  0.00  0.00    +0.000 HD
ENDBRANCH  31  34
ENDBRANCH  25  28
ENDBRANCH  21  22
ENDBRANCH   5  21
TORSDOF 8
ENDMDL
MODEL 7
REMARK VINA RESULT:      -7.8      0.741      1.199
REMARK  Name = 
REMARK  10 active torsions:
REMARK  status: ('A' for Active; 'I' for Inactive)
REMARK    1  A    between atoms: C_1  and  N_2
REMARK    2  A    between atoms: N_2  and  C_3
REMARK    3  A    between atoms: N_2  and  C_4
REMARK    4  A    between atoms: C_4  and  C_5
REMARK    5  A    between atoms: C_8  and  N_9
REMARK    6  A    between atoms: C_10  and  C_12
REMARK    7  A    between atoms: C_16  and  C_17
REMARK    8  A    between atoms: C_17  and  N_18
REMARK    9  A    between atoms: N_21  and  C_22
REMARK   10  A    between atoms: C_25  and  C_26
REMARK                            x       y       z     vdW  Elec       q    Type
REMARK                         _______ _______ _______ _____ _____    ______ ____
ROOT
ATOM      1  C   UNL     1       9.305  11.036  18.044  0.00  0.00    +0.000 A 
ATOM      2  C   UNL     1      10.700  11.175  18.003  0.00  0.00    +0.000 A 
ATOM      3  C   UNL     1      11.283  12.426  17.827  0.00  0.00    +0.000 A 
ATOM      4  C   UNL     1      10.476  13.555  17.713  0.00  0.00    +0.000 A 
ATOM      5  C   UNL     1       9.079  13.443  17.774  0.00  0.00    +0.000 A 
ATOM      6  C   UNL     1       8.492  12.169  17.912  0.00  0.00    +0.000 A 
ENDROOT
BRANCH   1   8
ATOM      7  N   UNL     1       8.101   9.013  17.364  0.00  0.00    +0.000 N 
ATOM      8  C   UNL     1       8.766   9.688  18.373  0.00  0.00    +0.000 C 
ATOM      9  O   UNL     1       8.992   9.258  19.500  0.00  0.00    +0.000 OA
ATOM     10  H   UNL     1       8.171   9.380  16.423  0.00  0.00    +0.000 HD
BRANCH   7  14
ATOM     11  C   UNL     1       5.936   5.398  17.884  0.00  0.00    +0.000 A 
ATOM     12  C   UNL     1       7.173   5.569  18.513  0.00  0.00    +0.000 A 
ATOM     13  C   UNL     1       7.909   6.744  18.331  0.00  0.00    +0.000 A 
ATOM     14  C   UNL     1       7.428   7.776  17.520  0.00  0.00    +0.000 A 
ATOM     15  C   UNL     1       6.204   7.595  16.867  0.00  0.00    +0.000 A 
ATOM     16  C   UNL     1       5.473   6.411  17.031  0.00  0.00    +0.000 A 
BRANCH  11  17
ATOM     17  C   UNL     1       5.084   4.181  18.187  0.00  0.00    +0.000 C 
BRANCH  17  19
ATOM     18  C   UNL     1       3.376   5.002  19.723  0.00  0.00    +0.000 C 
ATOM     19  N   UNL     1       4.573   4.171  19.572  0.00  0.00    +0.000 NA
ATOM     20  C   UNL     1       4.275   2.803  19.999  0.00  0.00    +0.000 C 
ENDBRANCH  17  19
ENDBRANCH  11  17
ENDBRANCH   7  14
ENDBRANCH   1   8
BRANCH   5  21
ATOM     21  C   UNL     1       8.232  14.688  17.720  0.00  0.00    +0.000 C 
BRANCH  21  22
ATOM     22  N   UNL     1       6.857  14.387  17.403  0.00  0.00    +0.000 N 
ATOM     23  C   UNL     1       5.852  15.093  18.014  0.00  0.00    +0.000 C 
ATOM     24  O   UNL     1       6.097  15.980  18.823  0.00  0.00    +0.000 OA
ATOM     25  N   UNL     1       4.597  14.709  17.587  0.00  0.00    +0.000 N 
ATOM     26  H   UNL     1       6.652  13.484  17.005  0.00  0.00    +0.000 HD
ATOM     27  H   UNL     1       4.530  13.852  17.059  0.00  0.00    +0.000 HD
BRANCH  25  28
ATOM     28  C   UNL     1       3.389  15.336  17.953  0.00  0.00    +0.000 A 
ATOM     29  C   UNL     1       3.039  16.613  17.504  0.00  0.00    +0.000 A 
ATOM     30  C   UNL     1       1.847  17.220  17.907  0.00  0.00    +0.000 A 
ATOM     31  C   UNL     1       0.971  16.552  18.761  0.00  0.00    +0.000 A 
ATOM     32  C   UNL     1       1.307  15.260  19.198  0.00  0.00    +0.000 A 
ATOM     33  C   UNL     1       2.502  14.652  18.788  0.00  0.00    +0.000 A 
BRANCH  31  34
ATOM     34  C   UNL     1      -0.310  17.151  19.230  0.00  0.00    +0.000 C 
ATOM     35  N   UNL     1      -1.452  16.401  19.149  0.00  0.00    +0.000 N 
ATOM     36  O   UNL     1      -0.353  18.288  19.687  0.00  0.00    +0.000 OA
ATOM     37  H   UNL     1      -1.504  15.448  18.831  0.00  0.00    +0.000 HD
ATOM     38  H   UNL     1      -2.300  16.825  19.499  0.00  0.00    +0.000 HD
ENDBRANCH  31  34
ENDBRANCH  25  28
ENDBRANCH  21  22
ENDBRANCH   5  21
TORSDOF 8
ENDMDL
MODEL 8
REMARK VINA RESULT:      -7.8      3.170      9.137
REMARK  Name = 
REMARK  10 active torsions:
REMARK  status: ('A' for Active; 'I' for Inactive)
REMARK    1  A    between atoms: C_1  and  N_2
REMARK    2  A    between atoms: N_2  and  C_3
REMARK    3  A    between atoms: N_2  and  C_4
REMARK    4  A    between atoms: C_4  and  C_5
REMARK    5  A    between atoms: C_8  and  N_9
REMARK    6  A    between atoms: C_10  and  C_12
REMARK    7  A    between atoms: C_16  and  C_17
REMARK    8  A    between atoms: C_17  and  N_18
REMARK    9  A    between atoms: N_21  and  C_22
REMARK   10  A    between atoms: C_25  and  C_26
REMARK                            x       y       z     vdW  Elec       q    Type
REMARK                         _______ _______ _______ _____ _____    ______ ____
ROOT
ATOM      1  C   UNL     1       3.457   6.350  18.098  0.00  0.00    +0.000 A 
ATOM      2  C   UNL     1       2.857   5.114  17.818  0.00  0.00    +0.000 A 
ATOM      3  C   UNL     1       3.632   4.013  17.465  0.00  0.00    +0.000 A 
ATOM      4  C   UNL     1       5.019   4.132  17.410  0.00  0.00    +0.000 A 
ATOM      5  C   UNL     1       5.642   5.353  17.708  0.00  0.00    +0.000 A 
ATOM      6  C   UNL     1       4.850   6.475  18.027  0.00  0.00    +0.000 A 
ENDROOT
BRANCH   1   8
ATOM      7  N   UNL     1       2.370   8.520  17.764  0.00  0.00    +0.000 N 
ATOM      8  C   UNL     1       2.572   7.436  18.600  0.00  0.00    +0.000 C 
ATOM      9  O   UNL     1       2.052   7.266  19.699  0.00  0.00    +0.000 OA
ATOM     10  H   UNL     1       2.678   8.440  16.802  0.00  0.00    +0.000 HD
BRANCH   7  14
ATOM     11  C   UNL     1       0.125  12.013  18.651  0.00  0.00    +0.000 A 
ATOM     12  C   UNL     1       1.522  12.071  18.608  0.00  0.00    +0.000 A 
ATOM     13  C   UNL     1       2.275  10.924  18.342  0.00  0.00    +0.000 A 
ATOM     14  C   UNL     1       1.654   9.693  18.111  0.00  0.00    +0.000 A 
ATOM     15  C   UNL     1       0.258   9.626  18.183  0.00  0.00    +0.000 A 
ATOM     16  C   UNL     1      -0.499  10.771  18.468  0.00  0.00    +0.000 A 
BRANCH  11  17
ATOM     17  C   UNL     1      -0.690  13.281  18.810  0.00  0.00    +0.000 C 
BRANCH  17  19
ATOM     18  C   UNL     1      -0.832  15.076  20.457  0.00  0.00    +0.000 C 
ATOM     19  N   UNL     1      -0.933  13.633  20.224  0.00  0.00    +0.000 NA
ATOM     20  C   UNL     1      -2.249  13.159  20.651  0.00  0.00    +0.000 C 
ENDBRANCH  17  19
ENDBRANCH  11  17
ENDBRANCH   7  14
ENDBRANCH   1   8
BRANCH   5  21
ATOM     21  C   UNL     1       7.147   5.436  17.713  0.00  0.00    +0.000 C 
BRANCH  21  22
ATOM     22  N   UNL     1       7.621   6.522  18.537  0.00  0.00    +0.000 N 
ATOM     23  C   UNL     1       8.050   7.683  17.945  0.00  0.00    +0.000 C 
ATOM     24  O   UNL     1       8.035   7.820  16.728  0.00  0.00    +0.000 OA
ATOM     25  N   UNL     1       8.444   8.633  18.863  0.00  0.00    +0.000 N 
ATOM     26  H   UNL     1       7.926   6.305  19.473  0.00  0.00    +0.000 HD
ATOM     27  H   UNL     1       8.576   8.330  19.816  0.00  0.00    +0.000 HD
BRANCH  25  28
ATOM     28  C   UNL     1       8.820   9.956  18.551  0.00  0.00    +0.000 A 
ATOM     29  C   UNL     1       7.991  10.823  17.833  0.00  0.00    +0.000 A 
ATOM     30  C   UNL     1       8.402  12.118  17.515  0.00  0.00    +0.000 A 
ATOM     31  C   UNL     1       9.653  12.581  17.922  0.00  0.00    +0.000 A 
ATOM     32  C   UNL     1      10.481  11.721  18.662  0.00  0.00    +0.000 A 
ATOM     33  C   UNL     1      10.063  10.423  18.985  0.00  0.00    +0.000 A 
BRANCH  31  34
ATOM     34  C   UNL     1      10.148  13.950  17.606  0.00  0.00    +0.000 C 
ATOM     35  N   UNL     1       9.303  15.010  17.790  0.00  0.00    +0.000 N 
ATOM     36  O   UNL     1      11.288  14.137  17.196  0.00  0.00    +0.000 OA
ATOM     37  H   UNL     1       8.370  14.956  18.164  0.00  0.00    +0.000 HD
ATOM     38  H   UNL     1       9.676  15.929  17.593  0.00  0.00    +0.000 HD
ENDBRANCH  31  34
ENDBRANCH  25  28
ENDBRANCH  21  22
ENDBRANCH   5  21
TORSDOF 8
ENDMDL
MODEL 9
REMARK VINA RESULT:      -7.7      6.272     12.451
REMARK  Name = 
REMARK  10 active torsions:
REMARK  status: ('A' for Active; 'I' for Inactive)
REMARK    1  A    between atoms: C_1  and  N_2
REMARK    2  A    between atoms: N_2  and  C_3
REMARK    3  A    between atoms: N_2  and  C_4
REMARK    4  A    between atoms: C_4  and  C_5
REMARK    5  A    between atoms: C_8  and  N_9
REMARK    6  A    between atoms: C_10  and  C_12
REMARK    7  A    between atoms: C_16  and  C_17
REMARK    8  A    between atoms: C_17  and  N_18
REMARK    9  A    between atoms: N_21  and  C_22
REMARK   10  A    between atoms: C_25  and  C_26
REMARK                            x       y       z     vdW  Elec       q    Type
REMARK                         _______ _______ _______ _____ _____    ______ ____
ROOT
ATOM      1  C   UNL     1       0.479   9.972  21.311  0.00  0.00    +0.000 A 
ATOM      2  C   UNL     1       0.607  10.555  20.042  0.00  0.00    +0.000 A 
ATOM      3  C   UNL     1       1.150   9.833  18.982  0.00  0.00    +0.000 A 
ATOM      4  C   UNL     1       1.547   8.513  19.176  0.00  0.00    +0.000 A 
ATOM      5  C   UNL     1       1.407   7.903  20.431  0.00  0.00    +0.000 A 
ATOM      6  C   UNL     1       0.894   8.650  21.511  0.00  0.00    +0.000 A 
ENDROOT
BRANCH   1   8
ATOM      7  N   UNL     1      -0.899  11.901  21.932  0.00  0.00    +0.000 N 
ATOM      8  C   UNL     1      -0.235  10.761  22.352  0.00  0.00    +0.000 C 
ATOM      9  O   UNL     1      -0.220  10.316  23.495  0.00  0.00    +0.000 OA
ATOM     10  H   UNL     1      -1.017  12.040  20.935  0.00  0.00    +0.000 HD
BRANCH   7  14
ATOM     11  C   UNL     1      -2.938  14.718  24.368  0.00  0.00    +0.000 A 
ATOM     12  C   UNL     1      -1.576  14.883  24.097  0.00  0.00    +0.000 A 
ATOM     13  C   UNL     1      -0.885  13.951  23.317  0.00  0.00    +0.000 A 
ATOM     14  C   UNL     1      -1.537  12.832  22.788  0.00  0.00    +0.000 A 
ATOM     15  C   UNL     1      -2.892  12.650  23.081  0.00  0.00    +0.000 A 
ATOM     16  C   UNL     1      -3.583  13.573  23.879  0.00  0.00    +0.000 A 
BRANCH  11  17
ATOM     17  C   UNL     1      -3.709  15.797  25.102  0.00  0.00    +0.000 C 
BRANCH  17  19
ATOM     18  C   UNL     1      -5.377  17.570  24.950  0.00  0.00    +0.000 C 
ATOM     19  N   UNL     1      -4.679  16.497  24.237  0.00  0.00    +0.000 NA
ATOM     20  C   UNL     1      -4.010  17.048  23.058  0.00  0.00    +0.000 C 
ENDBRANCH  17  19
ENDBRANCH  11  17
ENDBRANCH   7  14
ENDBRANCH   1   8
BRANCH   5  21
ATOM     21  C   UNL     1       1.777   6.451  20.595  0.00  0.00    +0.000 C 
BRANCH  21  22
ATOM     22  N   UNL     1       3.133   6.194  20.172  0.00  0.00    +0.000 N 
ATOM     23  C   UNL     1       3.373   5.785  18.884  0.00  0.00    +0.000 C 
ATOM     24  O   UNL     1       2.459   5.638  18.082  0.00  0.00    +0.000 OA
ATOM     25  N   UNL     1       4.716   5.608  18.625  0.00  0.00    +0.000 N 
ATOM     26  H   UNL     1       3.822   6.007  20.884  0.00  0.00    +0.000 HD
ATOM     27  H   UNL     1       5.342   5.587  19.416  0.00  0.00    +0.000 HD
BRANCH  25  28
ATOM     28  C   UNL     1       5.265   5.306  17.362  0.00  0.00    +0.000 A 
ATOM     29  C   UNL     1       6.071   4.186  17.142  0.00  0.00    +0.000 A 
ATOM     30  C   UNL     1       6.624   3.928  15.886  0.00  0.00    +0.000 A 
ATOM     31  C   UNL     1       6.369   4.783  14.815  0.00  0.00    +0.000 A 
ATOM     32  C   UNL     1       5.542   5.899  15.025  0.00  0.00    +0.000 A 
ATOM     33  C   UNL     1       4.984   6.152  16.286  0.00  0.00    +0.000 A 
BRANCH  31  34
ATOM     34  C   UNL     1       6.936   4.563  13.455  0.00  0.00    +0.000 C 
ATOM     35  N   UNL     1       6.477   3.506  12.718  0.00  0.00    +0.000 N 
ATOM     36  O   UNL     1       7.791   5.310  12.992  0.00  0.00    +0.000 OA
ATOM     37  H   UNL     1       5.748   2.870  12.997  0.00  0.00    +0.000 HD
ATOM     38  H   UNL     1       6.861   3.398  11.789  0.00  0.00    +0.000 HD
ENDBRANCH  31  34
ENDBRANCH  25  28
ENDBRANCH  21  22
ENDBRANCH   5  21
TORSDOF 8
ENDMDL
