MODEL 1
REMARK VINA RESULT:      -9.2      0.000      0.000
REMARK  Name = 
REMARK  11 active torsions:
REMARK  status: ('A' for Active; 'I' for Inactive)
REMARK    1  A    between atoms: C_1  and  C_2
REMARK    2  A    between atoms: C_2  and  O_3
REMARK    3  A    between atoms: O_3  and  C_4
REMARK    4  A    between atoms: C_7  and  N_8
REMARK    5  A    between atoms: C_9  and  C_11
REMARK    6  A    between atoms: C_11  and  O_12
REMARK    7  A    between atoms: O_12  and  C_13
REMARK    8  A    between atoms: C_13  and  C_15
REMARK    9  A    between atoms: N_23  and  C_24
REMARK   10  A    between atoms: C_24  and  C_25
REMARK   11  A    between atoms: C_25  and  C_26
REMARK                            x       y       z     vdW  Elec       q    Type
REMARK                         _______ _______ _______ _____ _____    ______ ____
ROOT
ATOM      1  C   UNL     1       4.224   3.292  18.352  0.00  0.00    +0.000 A 
ATOM      2  C   UNL     1       3.759   3.789  17.108  0.00  0.00    +0.000 A 
ATOM      3  C   UNL     1       4.440   4.835  16.459  0.00  0.00    +0.000 A 
ATOM      4  C   UNL     1       5.595   5.303  17.064  0.00  0.00    +0.000 A 
ATOM      5  C   UNL     1       6.150   4.626  18.127  0.00  0.00    +0.000 A 
ATOM      6  C   UNL     1       5.481   3.657  18.833  0.00  0.00    +0.000 A 
ATOM      7  C   UNL     1       7.356   5.320  18.521  0.00  0.00    +0.000 C 
ATOM      8  O   UNL     1       8.288   4.791  19.087  0.00  0.00    +0.000 OA
ATOM      9  N   UNL     1       7.218   6.584  18.034  0.00  0.00    +0.000 N 
ATOM     10  C   UNL     1       6.302   6.606  17.008  0.00  0.00    +0.000 C 
ATOM     11  O   UNL     1       6.024   7.503  16.235  0.00  0.00    +0.000 OA
ENDROOT
BRANCH   1  12
ATOM     12  C   UNL     1       3.365   2.534  19.297  0.00  0.00    +0.000 C 
ATOM     13  O   UNL     1       2.558   1.698  18.928  0.00  0.00    +0.000 OA
BRANCH  12  14
ATOM     14  O   UNL     1       3.696   2.824  20.573  0.00  0.00    +0.000 OA
BRANCH  14  15
ATOM     15  C   UNL     1       2.616   3.302  21.377  0.00  0.00    +0.000 C 
BRANCH  15  17
ATOM     16  N   UNL     1       2.618   5.621  20.606  0.00  0.00    +0.000 N 
ATOM     17  C   UNL     1       1.863   4.467  20.743  0.00  0.00    +0.000 C 
ATOM     18  O   UNL     1       0.694   4.314  20.400  0.00  0.00    +0.000 OA
ATOM     19  H   UNL     1       3.575   5.565  20.937  0.00  0.00    +0.000 HD
BRANCH  16  23
ATOM     20  C   UNL     1       1.410   9.269  18.840  0.00  0.00    +0.000 A 
ATOM     21  C   UNL     1       1.055   8.988  20.156  0.00  0.00    +0.000 A 
ATOM     22  C   UNL     1       1.451   7.788  20.754  0.00  0.00    +0.000 A 
ATOM     23  C   UNL     1       2.193   6.849  20.052  0.00  0.00    +0.000 A 
ATOM     24  C   UNL     1       2.531   7.123  18.719  0.00  0.00    +0.000 A 
ATOM     25  C   UNL     1       2.133   8.328  18.112  0.00  0.00    +0.000 A 
BRANCH  20  26
ATOM     26  O   UNL     1       0.974  10.478  18.382  0.00  0.00    +0.000 OA
BRANCH  26  28
ATOM     27  C   UNL     1      -1.305  10.274  17.742  0.00  0.00    +0.000 C 
ATOM     28  C   UNL     1      -0.345  10.868  18.758  0.00  0.00    +0.000 C 
ENDBRANCH  26  28
ENDBRANCH  20  26
ENDBRANCH  16  23
ENDBRANCH  15  17
ENDBRANCH  14  15
ENDBRANCH  12  14
ENDBRANCH   1  12
BRANCH   9  29
ATOM     29  C   UNL     1       8.063   7.643  18.535  0.00  0.00    +0.000 C 
BRANCH  29  30
ATOM     30  C   UNL     1       8.108   8.929  17.688  0.00  0.00    +0.000 C 
BRANCH  30  31
ATOM     31  C   UNL     1       8.687  10.169  18.343  0.00  0.00    +0.000 A 
ATOM     32  C   UNL     1       9.457  10.093  19.514  0.00  0.00    +0.000 A 
ATOM     33  C   UNL     1      10.046  11.243  20.057  0.00  0.00    +0.000 A 
ATOM     34  C   UNL     1       9.868  12.479  19.442  0.00  0.00    +0.000 A 
ATOM     35  C   UNL     1       9.107  12.568  18.280  0.00  0.00    +0.000 A 
ATOM     36  C   UNL     1       8.521  11.421  17.734  0.00  0.00    +0.000 A 
ENDBRANCH  30  31
ENDBRANCH  29  30
ENDBRANCH   9  29
TORSDOF 10
ENDMDL
MODEL 2
REMARK VINA RESULT:      -8.8      0.892      1.238
REMARK  Name = 
REMARK  11 active torsions:
REMARK  status: ('A' for Active; 'I' for Inactive)
REMARK    1  A    between atoms: C_1  and  C_2
REMARK    2  A    between atoms: C_2  and  O_3
REMARK    3  A    between atoms: O_3  and  C_4
REMARK    4  A    between atoms: C_7  and  N_8
REMARK    5  A    between atoms: C_9  and  C_11
REMARK    6  A    between atoms: C_11  and  O_12
REMARK    7  A    between atoms: O_12  and  C_13
REMARK    8  A    between atoms: C_13  and  C_15
REMARK    9  A    between atoms: N_23  and  C_24
REMARK   10  A    between atoms: C_24  and  C_25
REMARK   11  A    between atoms: C_25  and  C_26
REMARK                            x       y       z     vdW  Elec       q    Type
REMARK                         _______ _______ _______ _____ _____    ______ ____
ROOT
ATOM      1  C   UNL     1       4.446   3.622  18.177  0.00  0.00    +0.000 A 
ATOM      2  C   UNL     1       4.151   4.141  16.891  0.00  0.00    +0.000 A 
ATOM      3  C   UNL     1       4.945   5.160  16.334  0.00  0.00    +0.000 A 
ATOM      4  C   UNL     1       6.038   5.580  17.075  0.00  0.00    +0.000 A 
ATOM      5  C   UNL     1       6.437   4.878  18.190  0.00  0.00    +0.000 A 
ATOM      6  C   UNL     1       5.650   3.935  18.805  0.00  0.00    +0.000 A 
ATOM      7  C   UNL     1       7.614   5.521  18.729  0.00  0.00    +0.000 C 
ATOM      8  O   UNL     1       8.451   4.954  19.396  0.00  0.00    +0.000 OA
ATOM      9  N   UNL     1       7.585   6.791  18.238  0.00  0.00    +0.000 N 
ATOM     10  C   UNL     1       6.798   6.853  17.111  0.00  0.00    +0.000 C 
ATOM     11  O   UNL     1       6.650   7.762  16.317  0.00  0.00    +0.000 OA
ENDROOT
BRANCH   1  12
ATOM     12  C   UNL     1       3.451   2.897  19.008  0.00  0.00    +0.000 C 
ATOM     13  O   UNL     1       2.589   2.181  18.529  0.00  0.00    +0.000 OA
BRANCH  12  14
ATOM     14  O   UNL     1       3.725   3.060  20.321  0.00  0.00    +0.000 OA
BRANCH  14  15
ATOM     15  C   UNL     1       2.595   3.396  21.129  0.00  0.00    +0.000 C 
BRANCH  15  17
ATOM     16  N   UNL     1       2.622   5.726  20.394  0.00  0.00    +0.000 N 
ATOM     17  C   UNL     1       1.829   4.613  20.619  0.00  0.00    +0.000 C 
ATOM     18  O   UNL     1       0.617   4.530  20.437  0.00  0.00    +0.000 OA
ATOM     19  H   UNL     1       3.611   5.612  20.589  0.00  0.00    +0.000 HD
BRANCH  16  23
ATOM     20  C   UNL     1       1.405   9.475  18.860  0.00  0.00    +0.000 A 
ATOM     21  C   UNL     1       1.091   9.130  20.171  0.00  0.00    +0.000 A 
ATOM     22  C   UNL     1       1.489   7.895  20.692  0.00  0.00    +0.000 A 
ATOM     23  C   UNL     1       2.196   6.986  19.919  0.00  0.00    +0.000 A 
ATOM     24  C   UNL     1       2.493   7.326  18.591  0.00  0.00    +0.000 A 
ATOM     25  C   UNL     1       2.092   8.565  18.061  0.00  0.00    +0.000 A 
BRANCH  20  26
ATOM     26  O   UNL     1       0.971  10.712  18.480  0.00  0.00    +0.000 OA
BRANCH  26  28
ATOM     27  C   UNL     1       1.817  12.705  19.459  0.00  0.00    +0.000 C 
ATOM     28  C   UNL     1       1.968  11.717  18.315  0.00  0.00    +0.000 C 
ENDBRANCH  26  28
ENDBRANCH  20  26
ENDBRANCH  16  23
ENDBRANCH  15  17
ENDBRANCH  14  15
ENDBRANCH  12  14
ENDBRANCH   1  12
BRANCH   9  29
ATOM     29  C   UNL     1       8.407   7.814  18.843  0.00  0.00    +0.000 C 
BRANCH  29  30
ATOM     30  C   UNL     1       8.287   9.224  18.234  0.00  0.00    +0.000 C 
BRANCH  30  31
ATOM     31  C   UNL     1       9.261  10.276  18.729  0.00  0.00    +0.000 A 
ATOM     32  C   UNL     1      10.082  10.995  17.845  0.00  0.00    +0.000 A 
ATOM     33  C   UNL     1      10.918  12.016  18.317  0.00  0.00    +0.000 A 
ATOM     34  C   UNL     1      10.948  12.327  19.675  0.00  0.00    +0.000 A 
ATOM     35  C   UNL     1      10.138  11.622  20.561  0.00  0.00    +0.000 A 
ATOM     36  C   UNL     1       9.300  10.605  20.091  0.00  0.00    +0.000 A 
ENDBRANCH  30  31
ENDBRANCH  29  30
ENDBRANCH   9  29
TORSDOF 10
ENDMDL
MODEL 3
REMARK VINA RESULT:      -8.6      1.232      1.804
REMARK  Name = 
REMARK  11 active torsions:
REMARK  status: ('A' for Active; 'I' for Inactive)
REMARK    1  A    between atoms: C_1  and  C_2
REMARK    2  A    between atoms: C_2  and  O_3
REMARK    3  A    between atoms: O_3  and  C_4
REMARK    4  A    between atoms: C_7  and  N_8
REMARK    5  A    between atoms: C_9  and  C_11
REMARK    6  A    between atoms: C_11  and  O_12
REMARK    7  A    between atoms: O_12  and  C_13
REMARK    8  A    between atoms: C_13  and  C_15
REMARK    9  A    between atoms: N_23  and  C_24
REMARK   10  A    between atoms: C_24  and  C_25
REMARK   11  A    between atoms: C_25  and  C_26
REMARK                            x       y       z     vdW  Elec       q    Type
REMARK                         _______ _______ _______ _____ _____    ______ ____
ROOT
ATOM      1  C   UNL     1       3.920   3.657  17.987  0.00  0.00    +0.000 A 
ATOM      2  C   UNL     1       4.296   3.412  16.641  0.00  0.00    +0.000 A 
ATOM      3  C   UNL     1       5.487   3.953  16.124  0.00  0.00    +0.000 A 
ATOM      4  C   UNL     1       6.280   4.677  16.999  0.00  0.00    +0.000 A 
ATOM      5  C   UNL     1       6.012   4.674  18.350  0.00  0.00    +0.000 A 
ATOM      6  C   UNL     1       4.826   4.227  18.879  0.00  0.00    +0.000 A 
ATOM      7  C   UNL     1       7.017   5.476  19.009  0.00  0.00    +0.000 C 
ATOM      8  O   UNL     1       7.345   5.335  20.167  0.00  0.00    +0.000 OA
ATOM      9  N   UNL     1       7.525   6.284  18.038  0.00  0.00    +0.000 N 
ATOM     10  C   UNL     1       7.281   5.752  16.794  0.00  0.00    +0.000 C 
ATOM     11  O   UNL     1       7.702   6.097  15.706  0.00  0.00    +0.000 OA
ENDROOT
BRANCH   1  12
ATOM     12  C   UNL     1       2.527   3.515  18.480  0.00  0.00    +0.000 C 
ATOM     13  O   UNL     1       1.554   3.727  17.777  0.00  0.00    +0.000 OA
BRANCH  12  14
ATOM     14  O   UNL     1       2.519   3.022  19.737  0.00  0.00    +0.000 OA
BRANCH  14  15
ATOM     15  C   UNL     1       2.651   4.006  20.766  0.00  0.00    +0.000 C 
BRANCH  15  17
ATOM     16  N   UNL     1       2.424   6.400  20.330  0.00  0.00    +0.000 N 
ATOM     17  C   UNL     1       1.744   5.215  20.563  0.00  0.00    +0.000 C 
ATOM     18  O   UNL     1       0.525   5.068  20.604  0.00  0.00    +0.000 OA
ATOM     19  H   UNL     1       3.436   6.333  20.320  0.00  0.00    +0.000 HD
BRANCH  16  23
ATOM     20  C   UNL     1       0.671  10.207  19.768  0.00  0.00    +0.000 A 
ATOM     21  C   UNL     1       1.330   9.587  18.710  0.00  0.00    +0.000 A 
ATOM     22  C   UNL     1       1.911   8.327  18.881  0.00  0.00    +0.000 A 
ATOM     23  C   UNL     1       1.854   7.672  20.103  0.00  0.00    +0.000 A 
ATOM     24  C   UNL     1       1.209   8.307  21.174  0.00  0.00    +0.000 A 
ATOM     25  C   UNL     1       0.626   9.576  21.008  0.00  0.00    +0.000 A 
BRANCH  20  26
ATOM     26  O   UNL     1       0.137  11.426  19.465  0.00  0.00    +0.000 OA
BRANCH  26  28
ATOM     27  C   UNL     1       1.882  12.939  20.023  0.00  0.00    +0.000 C 
ATOM     28  C   UNL     1       0.462  12.503  20.341  0.00  0.00    +0.000 C 
ENDBRANCH  26  28
ENDBRANCH  20  26
ENDBRANCH  16  23
ENDBRANCH  15  17
ENDBRANCH  14  15
ENDBRANCH  12  14
ENDBRANCH   1  12
BRANCH   9  29
ATOM     29  C   UNL     1       8.294   7.451  18.405  0.00  0.00    +0.000 C 
BRANCH  29  30
ATOM     30  C   UNL     1       7.777   8.798  17.864  0.00  0.00    +0.000 C 
BRANCH  30  31
ATOM     31  C   UNL     1       8.531  10.046  18.281  0.00  0.00    +0.000 A 
ATOM     32  C   UNL     1       8.461  11.234  17.535  0.00  0.00    +0.000 A 
ATOM     33  C   UNL     1       9.103  12.397  17.982  0.00  0.00    +0.000 A 
ATOM     34  C   UNL     1       9.825  12.386  19.173  0.00  0.00    +0.000 A 
ATOM     35  C   UNL     1       9.901  11.215  19.922  0.00  0.00    +0.000 A 
ATOM     36  C   UNL     1       9.258  10.054  19.479  0.00  0.00    +0.000 A 
ENDBRANCH  30  31
ENDBRANCH  29  30
ENDBRANCH   9  29
TORSDOF 10
ENDMDL
MODEL 4
REMARK VINA RESULT:      -8.5      1.072      1.403
REMARK  Name = 
REMARK  11 active torsions:
REMARK  status: ('A' for Active; 'I' for Inactive)
REMARK    1  A    between atoms: C_1  and  C_2
REMARK    2  A    between atoms: C_2  and  O_3
REMARK    3  A    between atoms: O_3  and  C_4
REMARK    4  A    between atoms: C_7  and  N_8
REMARK    5  A    between atoms: C_9  and  C_11
REMARK    6  A    between atoms: C_11  and  O_12
REMARK    7  A    between atoms: O_12  and  C_13
REMARK    8  A    between atoms: C_13  and  C_15
REMARK    9  A    between atoms: N_23  and  C_24
REMARK   10  A    between atoms: C_24  and  C_25
REMARK   11  A    between atoms: C_25  and  C_26
REMARK                            x       y       z     vdW  Elec       q    Type
REMARK                         _______ _______ _______ _____ _____    ______ ____
ROOT
ATOM      1  C   UNL     1       3.967   3.665  17.992  0.00  0.00    +0.000 A 
ATOM      2  C   UNL     1       4.335   3.391  16.651  0.00  0.00    +0.000 A 
ATOM      3  C   UNL     1       5.522   3.923  16.115  0.00  0.00    +0.000 A 
ATOM      4  C   UNL     1       6.318   4.667  16.968  0.00  0.00    +0.000 A 
ATOM      5  C   UNL     1       6.059   4.692  18.321  0.00  0.00    +0.000 A 
ATOM      6  C   UNL     1       4.877   4.256  18.867  0.00  0.00    +0.000 A 
ATOM      7  C   UNL     1       7.067   5.510  18.956  0.00  0.00    +0.000 C 
ATOM      8  O   UNL     1       7.403   5.395  20.115  0.00  0.00    +0.000 OA
ATOM      9  N   UNL     1       7.568   6.298  17.965  0.00  0.00    +0.000 N 
ATOM     10  C   UNL     1       7.317   5.738  16.734  0.00  0.00    +0.000 C 
ATOM     11  O   UNL     1       7.731   6.060  15.636  0.00  0.00    +0.000 OA
ENDROOT
BRANCH   1  12
ATOM     12  C   UNL     1       2.576   3.533  18.497  0.00  0.00    +0.000 C 
ATOM     13  O   UNL     1       1.600   3.759  17.805  0.00  0.00    +0.000 OA
BRANCH  12  14
ATOM     14  O   UNL     1       2.575   3.030  19.751  0.00  0.00    +0.000 OA
BRANCH  14  15
ATOM     15  C   UNL     1       2.617   4.012  20.788  0.00  0.00    +0.000 C 
BRANCH  15  17
ATOM     16  N   UNL     1       2.517   6.369  20.148  0.00  0.00    +0.000 N 
ATOM     17  C   UNL     1       1.776   5.247  20.483  0.00  0.00    +0.000 C 
ATOM     18  O   UNL     1       0.551   5.171  20.540  0.00  0.00    +0.000 OA
ATOM     19  H   UNL     1       3.524   6.246  20.142  0.00  0.00    +0.000 HD
BRANCH  16  23
ATOM     20  C   UNL     1       1.065  10.178  19.026  0.00  0.00    +0.000 A 
ATOM     21  C   UNL     1       0.882   9.725  20.329  0.00  0.00    +0.000 A 
ATOM     22  C   UNL     1       1.360   8.470  20.715  0.00  0.00    +0.000 A 
ATOM     23  C   UNL     1       2.016   7.645  19.813  0.00  0.00    +0.000 A 
ATOM     24  C   UNL     1       2.180   8.093  18.494  0.00  0.00    +0.000 A 
ATOM     25  C   UNL     1       1.698   9.354  18.100  0.00  0.00    +0.000 A 
BRANCH  20  26
ATOM     26  O   UNL     1       0.564  11.424  18.784  0.00  0.00    +0.000 OA
BRANCH  26  28
ATOM     27  C   UNL     1      -1.222  12.908  19.290  0.00  0.00    +0.000 C 
ATOM     28  C   UNL     1      -0.855  11.545  18.729  0.00  0.00    +0.000 C 
ENDBRANCH  26  28
ENDBRANCH  20  26
ENDBRANCH  16  23
ENDBRANCH  15  17
ENDBRANCH  14  15
ENDBRANCH  12  14
ENDBRANCH   1  12
BRANCH   9  29
ATOM     29  C   UNL     1       8.337   7.474  18.301  0.00  0.00    +0.000 C 
BRANCH  29  30
ATOM     30  C   UNL     1       7.717   8.825  17.898  0.00  0.00    +0.000 C 
BRANCH  30  31
ATOM     31  C   UNL     1       8.483  10.078  18.275  0.00  0.00    +0.000 A 
ATOM     32  C   UNL     1       8.437  11.237  17.484  0.00  0.00    +0.000 A 
ATOM     33  C   UNL     1       9.090  12.407  17.893  0.00  0.00    +0.000 A 
ATOM     34  C   UNL     1       9.801  12.432  19.090  0.00  0.00    +0.000 A 
ATOM     35  C   UNL     1       9.854  11.290  19.884  0.00  0.00    +0.000 A 
ATOM     36  C   UNL     1       9.199  10.122  19.480  0.00  0.00    +0.000 A 
ENDBRANCH  30  31
ENDBRANCH  29  30
ENDBRANCH   9  29
TORSDOF 10
ENDMDL
MODEL 5
REMARK VINA RESULT:      -8.1      2.269      2.970
REMARK  Name = 
REMARK  11 active torsions:
REMARK  status: ('A' for Active; 'I' for Inactive)
REMARK    1  A    between atoms: C_1  and  C_2
REMARK    2  A    between atoms: C_2  and  O_3
REMARK    3  A    between atoms: O_3  and  C_4
REMARK    4  A    between atoms: C_7  and  N_8
REMARK    5  A    between atoms: C_9  and  C_11
REMARK    6  A    between atoms: C_11  and  O_12
REMARK    7  A    between atoms: O_12  and  C_13
REMARK    8  A    between atoms: C_13  and  C_15
REMARK    9  A    between atoms: N_23  and  C_24
REMARK   10  A    between atoms: C_24  and  C_25
REMARK   11  A    between atoms: C_25  and  C_26
REMARK                            x       y       z     vdW  Elec       q    Type
REMARK                         _______ _______ _______ _____ _____    ______ ____
ROOT
ATOM      1  C   UNL     1       3.843   4.199  18.648  0.00  0.00    +0.000 A 
ATOM      2  C   UNL     1       3.995   4.035  17.247  0.00  0.00    +0.000 A 
ATOM      3  C   UNL     1       5.146   4.514  16.594  0.00  0.00    +0.000 A 
ATOM      4  C   UNL     1       6.122   5.093  17.387  0.00  0.00    +0.000 A 
ATOM      5  C   UNL     1       6.054   5.001  18.759  0.00  0.00    +0.000 A 
ATOM      6  C   UNL     1       4.919   4.615  19.430  0.00  0.00    +0.000 A 
ATOM      7  C   UNL     1       7.216   5.657  19.312  0.00  0.00    +0.000 C 
ATOM      8  O   UNL     1       7.693   5.394  20.394  0.00  0.00    +0.000 OA
ATOM      9  N   UNL     1       7.653   6.497  18.333  0.00  0.00    +0.000 N 
ATOM     10  C   UNL     1       7.182   6.092  17.107  0.00  0.00    +0.000 C 
ATOM     11  O   UNL     1       7.473   6.489  15.994  0.00  0.00    +0.000 OA
ENDROOT
BRANCH   1  12
ATOM     12  C   UNL     1       2.529   4.136  19.335  0.00  0.00    +0.000 C 
ATOM     13  O   UNL     1       2.137   3.141  19.920  0.00  0.00    +0.000 OA
BRANCH  12  14
ATOM     14  O   UNL     1       1.924   5.343  19.307  0.00  0.00    +0.000 OA
BRANCH  14  15
ATOM     15  C   UNL     1       2.601   6.368  20.038  0.00  0.00    +0.000 C 
BRANCH  15  17
ATOM     16  N   UNL     1       1.316   8.096  21.194  0.00  0.00    +0.000 N 
ATOM     17  C   UNL     1       1.886   7.715  19.990  0.00  0.00    +0.000 C 
ATOM     18  O   UNL     1       1.871   8.352  18.940  0.00  0.00    +0.000 OA
ATOM     19  H   UNL     1       1.436   7.448  21.965  0.00  0.00    +0.000 HD
BRANCH  16  23
ATOM     20  C   UNL     1      -0.875  11.605  22.071  0.00  0.00    +0.000 A 
ATOM     21  C   UNL     1      -0.104  11.543  20.914  0.00  0.00    +0.000 A 
ATOM     22  C   UNL     1       0.623  10.389  20.610  0.00  0.00    +0.000 A 
ATOM     23  C   UNL     1       0.601   9.286  21.452  0.00  0.00    +0.000 A 
ATOM     24  C   UNL     1      -0.158   9.358  22.629  0.00  0.00    +0.000 A 
ATOM     25  C   UNL     1      -0.889  10.518  22.941  0.00  0.00    +0.000 A 
BRANCH  20  26
ATOM     26  O   UNL     1      -1.545  12.781  22.242  0.00  0.00    +0.000 OA
BRANCH  26  28
ATOM     27  C   UNL     1      -0.855  14.700  23.463  0.00  0.00    +0.000 C 
ATOM     28  C   UNL     1      -1.530  13.342  23.553  0.00  0.00    +0.000 C 
ENDBRANCH  26  28
ENDBRANCH  20  26
ENDBRANCH  16  23
ENDBRANCH  15  17
ENDBRANCH  14  15
ENDBRANCH  12  14
ENDBRANCH   1  12
BRANCH   9  29
ATOM     29  C   UNL     1       8.576   7.561  18.659  0.00  0.00    +0.000 C 
BRANCH  29  30
ATOM     30  C   UNL     1       8.164   8.974  18.205  0.00  0.00    +0.000 C 
BRANCH  30  31
ATOM     31  C   UNL     1       9.043  10.127  18.653  0.00  0.00    +0.000 A 
ATOM     32  C   UNL     1       9.233  10.426  20.011  0.00  0.00    +0.000 A 
ATOM     33  C   UNL     1      10.110  11.446  20.403  0.00  0.00    +0.000 A 
ATOM     34  C   UNL     1      10.801  12.183  19.444  0.00  0.00    +0.000 A 
ATOM     35  C   UNL     1      10.622  11.896  18.093  0.00  0.00    +0.000 A 
ATOM     36  C   UNL     1       9.750  10.876  17.701  0.00  0.00    +0.000 A 
ENDBRANCH  30  31
ENDBRANCH  29  30
ENDBRANCH   9  29
TORSDOF 10
ENDMDL
MODEL 6
REMARK VINA RESULT:      -8.0      1.838      2.556
REMARK  Name = 
REMARK  11 active torsions:
REMARK  status: ('A' for Active; 'I' for Inactive)
REMARK    1  A    between atoms: C_1  and  C_2
REMARK    2  A    between atoms: C_2  and  O_3
REMARK    3  A    between atoms: O_3  and  C_4
REMARK    4  A    between atoms: C_7  and  N_8
REMARK    5  A    between atoms: C_9  and  C_11
REMARK    6  A    between atoms: C_11  and  O_12
REMARK    7  A    between atoms: O_12  and  C_13
REMARK    8  A    between atoms: C_13  and  C_15
REMARK    9  A    between atoms: N_23  and  C_24
REMARK   10  A    between atoms: C_24  and  C_25
REMARK   11  A    between atoms: C_25  and  C_26
REMARK                            x       y       z     vdW  Elec       q    Type
REMARK                         _______ _______ _______ _____ _____    ______ ____
ROOT
ATOM      1  C   UNL     1       3.756   4.015  19.006  0.00  0.00    +0.000 A 
ATOM      2  C   UNL     1       3.760   3.787  17.606  0.00  0.00    +0.000 A 
ATOM      3  C   UNL     1       4.815   4.266  16.809  0.00  0.00    +0.000 A 
ATOM      4  C   UNL     1       5.853   4.910  17.462  0.00  0.00    +0.000 A 
ATOM      5  C   UNL     1       5.937   4.882  18.837  0.00  0.00    +0.000 A 
ATOM      6  C   UNL     1       4.896   4.498  19.645  0.00  0.00    +0.000 A 
ATOM      7  C   UNL     1       7.131   5.597  19.228  0.00  0.00    +0.000 C 
ATOM      8  O   UNL     1       7.732   5.399  20.262  0.00  0.00    +0.000 OA
ATOM      9  N   UNL     1       7.431   6.400  18.170  0.00  0.00    +0.000 N 
ATOM     10  C   UNL     1       6.843   5.924  17.022  0.00  0.00    +0.000 C 
ATOM     11  O   UNL     1       6.997   6.274  15.868  0.00  0.00    +0.000 OA
ENDROOT
BRANCH   1  12
ATOM     12  C   UNL     1       2.527   3.949  19.836  0.00  0.00    +0.000 C 
ATOM     13  O   UNL     1       1.683   3.081  19.697  0.00  0.00    +0.000 OA
BRANCH  12  14
ATOM     14  O   UNL     1       2.558   4.893  20.802  0.00  0.00    +0.000 OA
BRANCH  14  15
ATOM     15  C   UNL     1       1.439   5.782  20.805  0.00  0.00    +0.000 C 
BRANCH  15  17
ATOM     16  N   UNL     1       0.959   8.174  20.656  0.00  0.00    +0.000 N 
ATOM     17  C   UNL     1       1.744   7.137  20.175  0.00  0.00    +0.000 C 
ATOM     18  O   UNL     1       2.631   7.224  19.331  0.00  0.00    +0.000 OA
ATOM     19  H   UNL     1       0.279   7.921  21.364  0.00  0.00    +0.000 HD
BRANCH  16  23
ATOM     20  C   UNL     1       1.114  12.269  19.612  0.00  0.00    +0.000 A 
ATOM     21  C   UNL     1       1.242  11.299  18.623  0.00  0.00    +0.000 A 
ATOM     22  C   UNL     1       1.189   9.941  18.953  0.00  0.00    +0.000 A 
ATOM     23  C   UNL     1       1.019   9.530  20.267  0.00  0.00    +0.000 A 
ATOM     24  C   UNL     1       0.912  10.508  21.266  0.00  0.00    +0.000 A 
ATOM     25  C   UNL     1       0.968  11.875  20.939  0.00  0.00    +0.000 A 
BRANCH  20  26
ATOM     26  O   UNL     1       1.169  13.554  19.156  0.00  0.00    +0.000 OA
BRANCH  26  28
ATOM     27  C   UNL     1       2.982  15.041  18.771  0.00  0.00    +0.000 C 
ATOM     28  C   UNL     1       2.203  13.859  18.222  0.00  0.00    +0.000 C 
ENDBRANCH  26  28
ENDBRANCH  20  26
ENDBRANCH  16  23
ENDBRANCH  15  17
ENDBRANCH  14  15
ENDBRANCH  12  14
ENDBRANCH   1  12
BRANCH   9  29
ATOM     29  C   UNL     1       8.349   7.503  18.344  0.00  0.00    +0.000 C 
BRANCH  29  30
ATOM     30  C   UNL     1       7.869   8.869  17.816  0.00  0.00    +0.000 C 
BRANCH  30  31
ATOM     31  C   UNL     1       8.570  10.103  18.353  0.00  0.00    +0.000 A 
ATOM     32  C   UNL     1       8.455  11.351  17.720  0.00  0.00    +0.000 A 
ATOM     33  C   UNL     1       9.047  12.492  18.278  0.00  0.00    +0.000 A 
ATOM     34  C   UNL     1       9.764  12.399  19.468  0.00  0.00    +0.000 A 
ATOM     35  C   UNL     1       9.884  11.168  20.107  0.00  0.00    +0.000 A 
ATOM     36  C   UNL     1       9.291  10.029  19.553  0.00  0.00    +0.000 A 
ENDBRANCH  30  31
ENDBRANCH  29  30
ENDBRANCH   9  29
TORSDOF 10
ENDMDL
MODEL 7
REMARK VINA RESULT:      -8.0      1.664      2.382
REMARK  Name = 
REMARK  11 active torsions:
REMARK  status: ('A' for Active; 'I' for Inactive)
REMARK    1  A    between atoms: C_1  and  C_2
REMARK    2  A    between atoms: C_2  and  O_3
REMARK    3  A    between atoms: O_3  and  C_4
REMARK    4  A    between atoms: C_7  and  N_8
REMARK    5  A    between atoms: C_9  and  C_11
REMARK    6  A    between atoms: C_11  and  O_12
REMARK    7  A    between atoms: O_12  and  C_13
REMARK    8  A    between atoms: C_13  and  C_15
REMARK    9  A    between atoms: N_23  and  C_24
REMARK   10  A    between atoms: C_24  and  C_25
REMARK   11  A    between atoms: C_25  and  C_26
REMARK                            x       y       z     vdW  Elec       q    Type
REMARK                         _______ _______ _______ _____ _____    ______ ____
ROOT
ATOM      1  C   UNL     1       3.810   3.998  18.348  0.00  0.00    +0.000 A 
ATOM      2  C   UNL     1       4.091   3.739  16.982  0.00  0.00    +0.000 A 
ATOM      3  C   UNL     1       5.279   4.215  16.396  0.00  0.00    +0.000 A 
ATOM      4  C   UNL     1       6.161   4.888  17.224  0.00  0.00    +0.000 A 
ATOM      5  C   UNL     1       5.974   4.892  18.589  0.00  0.00    +0.000 A 
ATOM      6  C   UNL     1       4.798   4.511  19.186  0.00  0.00    +0.000 A 
ATOM      7  C   UNL     1       7.061   5.632  19.189  0.00  0.00    +0.000 C 
ATOM      8  O   UNL     1       7.448   5.466  20.325  0.00  0.00    +0.000 OA
ATOM      9  N   UNL     1       7.556   6.415  18.191  0.00  0.00    +0.000 N 
ATOM     10  C   UNL     1       7.209   5.905  16.962  0.00  0.00    +0.000 C 
ATOM     11  O   UNL     1       7.585   6.230  15.852  0.00  0.00    +0.000 OA
ENDROOT
BRANCH   1  12
ATOM     12  C   UNL     1       2.442   3.934  18.922  0.00  0.00    +0.000 C 
ATOM     13  O   UNL     1       1.933   2.893  19.299  0.00  0.00    +0.000 OA
BRANCH  12  14
ATOM     14  O   UNL     1       1.929   5.176  19.060  0.00  0.00    +0.000 OA
BRANCH  14  15
ATOM     15  C   UNL     1       1.789   5.618  20.412  0.00  0.00    +0.000 C 
BRANCH  15  17
ATOM     16  N   UNL     1       1.575   7.798  19.327  0.00  0.00    +0.000 N 
ATOM     17  C   UNL     1       1.652   7.132  20.540  0.00  0.00    +0.000 C 
ATOM     18  O   UNL     1       1.608   7.641  21.656  0.00  0.00    +0.000 OA
ATOM     19  H   UNL     1       1.617   7.213  18.499  0.00  0.00    +0.000 HD
BRANCH  16  23
ATOM     20  C   UNL     1       1.077  11.968  18.836  0.00  0.00    +0.000 A 
ATOM     21  C   UNL     1       1.978  11.280  18.029  0.00  0.00    +0.000 A 
ATOM     22  C   UNL     1       2.150   9.901  18.178  0.00  0.00    +0.000 A 
ATOM     23  C   UNL     1       1.439   9.190  19.133  0.00  0.00    +0.000 A 
ATOM     24  C   UNL     1       0.548   9.887  19.962  0.00  0.00    +0.000 A 
ATOM     25  C   UNL     1       0.373  11.275  19.818  0.00  0.00    +0.000 A 
BRANCH  20  26
ATOM     26  O   UNL     1       0.993  13.306  18.580  0.00  0.00    +0.000 OA
BRANCH  26  28
ATOM     27  C   UNL     1      -0.116  15.407  18.629  0.00  0.00    +0.000 C 
ATOM     28  C   UNL     1      -0.041  14.023  19.250  0.00  0.00    +0.000 C 
ENDBRANCH  26  28
ENDBRANCH  20  26
ENDBRANCH  16  23
ENDBRANCH  15  17
ENDBRANCH  14  15
ENDBRANCH  12  14
ENDBRANCH   1  12
BRANCH   9  29
ATOM     29  C   UNL     1       8.411   7.534  18.514  0.00  0.00    +0.000 C 
BRANCH  29  30
ATOM     30  C   UNL     1       8.094   8.857  17.790  0.00  0.00    +0.000 C 
BRANCH  30  31
ATOM     31  C   UNL     1       8.693  10.124  18.370  0.00  0.00    +0.000 A 
ATOM     32  C   UNL     1       8.563  11.364  17.725  0.00  0.00    +0.000 A 
ATOM     33  C   UNL     1       9.057  12.533  18.318  0.00  0.00    +0.000 A 
ATOM     34  C   UNL     1       9.691  12.477  19.557  0.00  0.00    +0.000 A 
ATOM     35  C   UNL     1       9.825  11.254  20.208  0.00  0.00    +0.000 A 
ATOM     36  C   UNL     1       9.329  10.087  19.619  0.00  0.00    +0.000 A 
ENDBRANCH  30  31
ENDBRANCH  29  30
ENDBRANCH   9  29
TORSDOF 10
ENDMDL
MODEL 8
REMARK VINA RESULT:      -8.0      2.407      8.153
REMARK  Name = 
REMARK  11 active torsions:
REMARK  status: ('A' for Active; 'I' for Inactive)
REMARK    1  A    between atoms: C_1  and  C_2
REMARK    2  A    between atoms: C_2  and  O_3
REMARK    3  A    between atoms: O_3  and  C_4
REMARK    4  A    between atoms: C_7  and  N_8
REMARK    5  A    between atoms: C_9  and  C_11
REMARK    6  A    between atoms: C_11  and  O_12
REMARK    7  A    between atoms: O_12  and  C_13
REMARK    8  A    between atoms: C_13  and  C_15
REMARK    9  A    between atoms: N_23  and  C_24
REMARK   10  A    between atoms: C_24  and  C_25
REMARK   11  A    between atoms: C_25  and  C_26
REMARK                            x       y       z     vdW  Elec       q    Type
REMARK                         _______ _______ _______ _____ _____    ______ ____
ROOT
ATOM      1  C   UNL     1       5.400   5.674  17.115  0.00  0.00    +0.000 A 
ATOM      2  C   UNL     1       4.917   4.470  17.689  0.00  0.00    +0.000 A 
ATOM      3  C   UNL     1       3.784   4.482  18.523  0.00  0.00    +0.000 A 
ATOM      4  C   UNL     1       3.150   5.700  18.703  0.00  0.00    +0.000 A 
ATOM      5  C   UNL     1       3.492   6.787  17.929  0.00  0.00    +0.000 A 
ATOM      6  C   UNL     1       4.634   6.837  17.168  0.00  0.00    +0.000 A 
ATOM      7  C   UNL     1       2.645   7.894  18.311  0.00  0.00    +0.000 C 
ATOM      8  O   UNL     1       2.368   8.819  17.580  0.00  0.00    +0.000 OA
ATOM      9  N   UNL     1       2.199   7.590  19.561  0.00  0.00    +0.000 N 
ATOM     10  C   UNL     1       2.295   6.237  19.790  0.00  0.00    +0.000 C 
ATOM     11  O   UNL     1       1.864   5.573  20.713  0.00  0.00    +0.000 OA
ENDROOT
BRANCH   1  12
ATOM     12  C   UNL     1       6.787   5.834  16.610  0.00  0.00    +0.000 C 
ATOM     13  O   UNL     1       7.399   4.931  16.067  0.00  0.00    +0.000 OA
BRANCH  12  14
ATOM     14  O   UNL     1       7.191   7.116  16.738  0.00  0.00    +0.000 OA
BRANCH  14  15
ATOM     15  C   UNL     1       7.894   7.403  17.949  0.00  0.00    +0.000 C 
BRANCH  15  17
ATOM     16  N   UNL     1       9.095   9.162  19.147  0.00  0.00    +0.000 N 
ATOM     17  C   UNL     1       8.180   8.888  18.143  0.00  0.00    +0.000 C 
ATOM     18  O   UNL     1       7.617   9.709  17.424  0.00  0.00    +0.000 OA
ATOM     19  H   UNL     1       9.469   8.356  19.635  0.00  0.00    +0.000 HD
BRANCH  16  23
ATOM     20  C   UNL     1      10.546  12.981  20.238  0.00  0.00    +0.000 A 
ATOM     21  C   UNL     1       9.707  12.288  21.104  0.00  0.00    +0.000 A 
ATOM     22  C   UNL     1       9.222  11.023  20.758  0.00  0.00    +0.000 A 
ATOM     23  C   UNL     1       9.556  10.435  19.547  0.00  0.00    +0.000 A 
ATOM     24  C   UNL     1      10.384  11.144  18.665  0.00  0.00    +0.000 A 
ATOM     25  C   UNL     1      10.872  12.418  19.007  0.00  0.00    +0.000 A 
BRANCH  20  26
ATOM     26  O   UNL     1      10.959  14.197  20.701  0.00  0.00    +0.000 OA
BRANCH  26  28
ATOM     27  C   UNL     1       9.980  16.215  21.484  0.00  0.00    +0.000 C 
ATOM     28  C   UNL     1      10.228  14.748  21.793  0.00  0.00    +0.000 C 
ENDBRANCH  26  28
ENDBRANCH  20  26
ENDBRANCH  16  23
ENDBRANCH  15  17
ENDBRANCH  14  15
ENDBRANCH  12  14
ENDBRANCH   1  12
BRANCH   9  29
ATOM     29  C   UNL     1       1.619   8.623  20.388  0.00  0.00    +0.000 C 
BRANCH  29  30
ATOM     30  C   UNL     1       0.084   8.740  20.346  0.00  0.00    +0.000 C 
BRANCH  30  31
ATOM     31  C   UNL     1      -0.497  10.047  19.842  0.00  0.00    +0.000 A 
ATOM     32  C   UNL     1      -0.887  10.214  18.504  0.00  0.00    +0.000 A 
ATOM     33  C   UNL     1      -1.493  11.404  18.079  0.00  0.00    +0.000 A 
ATOM     34  C   UNL     1      -1.710  12.442  18.982  0.00  0.00    +0.000 A 
ATOM     35  C   UNL     1      -1.328  12.289  20.312  0.00  0.00    +0.000 A 
ATOM     36  C   UNL     1      -0.727  11.100  20.739  0.00  0.00    +0.000 A 
ENDBRANCH  30  31
ENDBRANCH  29  30
ENDBRANCH   9  29
TORSDOF 10
ENDMDL
MODEL 9
REMARK VINA RESULT:      -7.9      0.810      1.465
REMARK  Name = 
REMARK  11 active torsions:
REMARK  status: ('A' for Active; 'I' for Inactive)
REMARK    1  A    between atoms: C_1  and  C_2
REMARK    2  A    between atoms: C_2  and  O_3
REMARK    3  A    between atoms: O_3  and  C_4
REMARK    4  A    between atoms: C_7  and  N_8
REMARK    5  A    between atoms: C_9  and  C_11
REMARK    6  A    between atoms: C_11  and  O_12
REMARK    7  A    between atoms: O_12  and  C_13
REMARK    8  A    between atoms: C_13  and  C_15
REMARK    9  A    between atoms: N_23  and  C_24
REMARK   10  A    between atoms: C_24  and  C_25
REMARK   11  A    between atoms: C_25  and  C_26
REMARK                            x       y       z     vdW  Elec       q    Type
REMARK                         _______ _______ _______ _____ _____    ______ ____
ROOT
ATOM      1  C   UNL     1       4.530   3.277  18.947  0.00  0.00    +0.000 A 
ATOM      2  C   UNL     1       3.796   3.808  17.855  0.00  0.00    +0.000 A 
ATOM      3  C   UNL     1       4.292   4.907  17.131  0.00  0.00    +0.000 A 
ATOM      4  C   UNL     1       5.534   5.395  17.502  0.00  0.00    +0.000 A 
ATOM      5  C   UNL     1       6.323   4.696  18.388  0.00  0.00    +0.000 A 
ATOM      6  C   UNL     1       5.848   3.671  19.169  0.00  0.00    +0.000 A 
ATOM      7  C   UNL     1       7.563   5.420  18.553  0.00  0.00    +0.000 C 
ATOM      8  O   UNL     1       8.609   4.905  18.882  0.00  0.00    +0.000 OA
ATOM      9  N   UNL     1       7.286   6.697  18.170  0.00  0.00    +0.000 N 
ATOM     10  C   UNL     1       6.173   6.727  17.363  0.00  0.00    +0.000 C 
ATOM     11  O   UNL     1       5.711   7.644  16.712  0.00  0.00    +0.000 OA
ENDROOT
BRANCH   1  12
ATOM     12  C   UNL     1       3.914   2.445  20.011  0.00  0.00    +0.000 C 
ATOM     13  O   UNL     1       4.556   1.667  20.694  0.00  0.00    +0.000 OA
BRANCH  12  14
ATOM     14  O   UNL     1       2.612   2.768  20.168  0.00  0.00    +0.000 OA
BRANCH  14  15
ATOM     15  C   UNL     1       2.359   3.769  21.157  0.00  0.00    +0.000 C 
BRANCH  15  17
ATOM     16  N   UNL     1       2.425   6.095  20.412  0.00  0.00    +0.000 N 
ATOM     17  C   UNL     1       1.620   4.984  20.608  0.00  0.00    +0.000 C 
ATOM     18  O   UNL     1       0.417   4.904  20.375  0.00  0.00    +0.000 OA
ATOM     19  H   UNL     1       3.404   5.979  20.650  0.00  0.00    +0.000 HD
BRANCH  16  23
ATOM     20  C   UNL     1       1.156   9.883  19.024  0.00  0.00    +0.000 A 
ATOM     21  C   UNL     1       1.926   9.068  18.200  0.00  0.00    +0.000 A 
ATOM     22  C   UNL     1       2.350   7.812  18.644  0.00  0.00    +0.000 A 
ATOM     23  C   UNL     1       2.023   7.353  19.912  0.00  0.00    +0.000 A 
ATOM     24  C   UNL     1       1.265   8.185  20.750  0.00  0.00    +0.000 A 
ATOM     25  C   UNL     1       0.839   9.450  20.309  0.00  0.00    +0.000 A 
BRANCH  20  26
ATOM     26  O   UNL     1       0.797  11.075  18.465  0.00  0.00    +0.000 OA
BRANCH  26  28
ATOM     27  C   UNL     1      -0.488  13.040  18.830  0.00  0.00    +0.000 C 
ATOM     28  C   UNL     1       0.649  12.180  19.354  0.00  0.00    +0.000 C 
ENDBRANCH  26  28
ENDBRANCH  20  26
ENDBRANCH  16  23
ENDBRANCH  15  17
ENDBRANCH  14  15
ENDBRANCH  12  14
ENDBRANCH   1  12
BRANCH   9  29
ATOM     29  C   UNL     1       8.187   7.767  18.534  0.00  0.00    +0.000 C 
BRANCH  29  30
ATOM     30  C   UNL     1       8.140   9.022  17.642  0.00  0.00    +0.000 C 
BRANCH  30  31
ATOM     31  C   UNL     1       8.757  10.290  18.200  0.00  0.00    +0.000 A 
ATOM     32  C   UNL     1       8.502  11.547  17.628  0.00  0.00    +0.000 A 
ATOM     33  C   UNL     1       9.020  12.713  18.207  0.00  0.00    +0.000 A 
ATOM     34  C   UNL     1       9.802  12.638  19.358  0.00  0.00    +0.000 A 
ATOM     35  C   UNL     1      10.061  11.397  19.934  0.00  0.00    +0.000 A 
ATOM     36  C   UNL     1       9.542  10.233  19.360  0.00  0.00    +0.000 A 
ENDBRANCH  30  31
ENDBRANCH  29  30
ENDBRANCH   9  29
TORSDOF 10
ENDMDL
