MODEL 1
REMARK VINA RESULT:      -9.1      0.000      0.000
REMARK  Name = 
REMARK  4 active torsions:
REMARK  status: ('A' for Active; 'I' for Inactive)
REMARK    1  A    between atoms: C_2  and  C_3
REMARK    2  A    between atoms: C_2  and  C_11
REMARK    3  A    between atoms: C_3  and  C_4
REMARK    4  A    between atoms: C_4  and  C_5
REMARK                            x       y       z     vdW  Elec       q    Type
REMARK                         _______ _______ _______ _____ _____    ______ ____
ROOT
ATOM      1  C   UNL     1       6.676   6.167  17.597  0.00  0.00    +0.000 C 
ATOM      2  C   UNL     1       5.526   6.029  18.587  0.00  0.00    +0.000 C 
ATOM      3  C   UNL     1       4.562   4.943  18.174  0.00  0.00    +0.000 A 
ATOM      4  C   UNL     1       4.824   4.209  17.010  0.00  0.00    +0.000 A 
ATOM      5  C   UNL     1       3.872   3.373  16.442  0.00  0.00    +0.000 A 
ATOM      6  C   UNL     1       2.650   3.208  17.082  0.00  0.00    +0.000 A 
ATOM      7  C   UNL     1       2.409   3.809  18.326  0.00  0.00    +0.000 A 
ATOM      8  C   UNL     1       1.215   3.550  19.014  0.00  0.00    +0.000 A 
ATOM      9  C   UNL     1       0.998   4.065  20.291  0.00  0.00    +0.000 A 
ATOM     10  C   UNL     1       1.972   4.850  20.894  0.00  0.00    +0.000 A 
ATOM     11  C   UNL     1       3.143   5.165  20.201  0.00  0.00    +0.000 A 
ATOM     12  C   UNL     1       3.383   4.665  18.904  0.00  0.00    +0.000 A 
ATOM     13  O   UNL     1       6.090   4.181  16.414  0.00  0.00    +0.000 OA
ATOM     14  C   UNL     1       7.073   4.780  17.180  0.00  0.00    +0.000 C 
ATOM     15  O   UNL     1       8.168   4.266  17.360  0.00  0.00    +0.000 OA
ENDROOT
BRANCH   1  17
ATOM     16  O   UNL     1       8.369   6.711  19.207  0.00  0.00    +0.000 OA
ATOM     17  C   UNL     1       7.814   7.004  18.144  0.00  0.00    +0.000 C 
BRANCH  17  18
ATOM     18  C   UNL     1       8.246   8.256  17.393  0.00  0.00    +0.000 C 
BRANCH  18  19
ATOM     19  C   UNL     1       7.836   9.552  18.090  0.00  0.00    +0.000 C 
BRANCH  19  20
ATOM     20  C   UNL     1       9.027  10.327  18.579  0.00  0.00    +0.000 A 
ATOM     21  C   UNL     1       9.237  10.512  19.955  0.00  0.00    +0.000 A 
ATOM     22  C   UNL     1      10.342  11.236  20.408  0.00  0.00    +0.000 A 
ATOM     23  C   UNL     1      11.228  11.789  19.489  0.00  0.00    +0.000 A 
ATOM     24  C   UNL     1      11.016  11.614  18.116  0.00  0.00    +0.000 A 
ATOM     25  C   UNL     1       9.923  10.888  17.665  0.00  0.00    +0.000 A 
ENDBRANCH  19  20
ENDBRANCH  18  19
ENDBRANCH  17  18
ENDBRANCH   1  17
TORSDOF 4
ENDMDL
MODEL 2
REMARK VINA RESULT:      -8.9      0.901      1.215
REMARK  Name = 
REMARK  4 active torsions:
REMARK  status: ('A' for Active; 'I' for Inactive)
REMARK    1  A    between atoms: C_2  and  C_3
REMARK    2  A    between atoms: C_2  and  C_11
REMARK    3  A    between atoms: C_3  and  C_4
REMARK    4  A    between atoms: C_4  and  C_5
REMARK                            x       y       z     vdW  Elec       q    Type
REMARK                         _______ _______ _______ _____ _____    ______ ____
ROOT
ATOM      1  C   UNL     1       6.540   6.117  17.716  0.00  0.00    +0.000 C 
ATOM      2  C   UNL     1       5.441   5.853  18.738  0.00  0.00    +0.000 C 
ATOM      3  C   UNL     1       4.459   4.817  18.245  0.00  0.00    +0.000 A 
ATOM      4  C   UNL     1       4.664   4.229  16.990  0.00  0.00    +0.000 A 
ATOM      5  C   UNL     1       3.687   3.461  16.372  0.00  0.00    +0.000 A 
ATOM      6  C   UNL     1       2.498   3.211  17.048  0.00  0.00    +0.000 A 
ATOM      7  C   UNL     1       2.318   3.656  18.365  0.00  0.00    +0.000 A 
ATOM      8  C   UNL     1       1.161   3.307  19.074  0.00  0.00    +0.000 A 
ATOM      9  C   UNL     1       1.006   3.663  20.413  0.00  0.00    +0.000 A 
ATOM     10  C   UNL     1       2.007   4.378  21.058  0.00  0.00    +0.000 A 
ATOM     11  C   UNL     1       3.142   4.782  20.352  0.00  0.00    +0.000 A 
ATOM     12  C   UNL     1       3.318   4.444  18.993  0.00  0.00    +0.000 A 
ATOM     13  O   UNL     1       5.899   4.283  16.334  0.00  0.00    +0.000 OA
ATOM     14  C   UNL     1       6.918   4.793  17.117  0.00  0.00    +0.000 C 
ATOM     15  O   UNL     1       8.022   4.270  17.180  0.00  0.00    +0.000 OA
ENDROOT
BRANCH   1  17
ATOM     16  O   UNL     1       8.409   6.406  19.193  0.00  0.00    +0.000 OA
ATOM     17  C   UNL     1       7.702   6.891  18.304  0.00  0.00    +0.000 C 
BRANCH  17  18
ATOM     18  C   UNL     1       7.971   8.310  17.824  0.00  0.00    +0.000 C 
BRANCH  18  19
ATOM     19  C   UNL     1       8.918   9.089  18.735  0.00  0.00    +0.000 C 
BRANCH  19  20
ATOM     20  C   UNL     1       9.037  10.529  18.320  0.00  0.00    +0.000 A 
ATOM     21  C   UNL     1      10.204  11.256  18.607  0.00  0.00    +0.000 A 
ATOM     22  C   UNL     1      10.311  12.594  18.225  0.00  0.00    +0.000 A 
ATOM     23  C   UNL     1       9.250  13.213  17.572  0.00  0.00    +0.000 A 
ATOM     24  C   UNL     1       8.082  12.494  17.293  0.00  0.00    +0.000 A 
ATOM     25  C   UNL     1       7.976  11.161  17.665  0.00  0.00    +0.000 A 
ENDBRANCH  19  20
ENDBRANCH  18  19
ENDBRANCH  17  18
ENDBRANCH   1  17
TORSDOF 4
ENDMDL
MODEL 3
REMARK VINA RESULT:      -8.8      4.076      6.835
REMARK  Name = 
REMARK  4 active torsions:
REMARK  status: ('A' for Active; 'I' for Inactive)
REMARK    1  A    between atoms: C_2  and  C_3
REMARK    2  A    between atoms: C_2  and  C_11
REMARK    3  A    between atoms: C_3  and  C_4
REMARK    4  A    between atoms: C_4  and  C_5
REMARK                            x       y       z     vdW  Elec       q    Type
REMARK                         _______ _______ _______ _____ _____    ______ ____
ROOT
ATOM      1  C   UNL     1       5.760   5.654  16.843  0.00  0.00    +0.000 C 
ATOM      2  C   UNL     1       4.883   4.499  17.310  0.00  0.00    +0.000 C 
ATOM      3  C   UNL     1       3.715   4.984  18.135  0.00  0.00    +0.000 A 
ATOM      4  C   UNL     1       3.559   6.359  18.349  0.00  0.00    +0.000 A 
ATOM      5  C   UNL     1       2.664   6.858  19.286  0.00  0.00    +0.000 A 
ATOM      6  C   UNL     1       1.851   5.971  19.981  0.00  0.00    +0.000 A 
ATOM      7  C   UNL     1       1.872   4.601  19.685  0.00  0.00    +0.000 A 
ATOM      8  C   UNL     1       0.972   3.730  20.315  0.00  0.00    +0.000 A 
ATOM      9  C   UNL     1       0.917   2.382  19.966  0.00  0.00    +0.000 A 
ATOM     10  C   UNL     1       1.766   1.886  18.985  0.00  0.00    +0.000 A 
ATOM     11  C   UNL     1       2.707   2.727  18.387  0.00  0.00    +0.000 A 
ATOM     12  C   UNL     1       2.790   4.093  18.728  0.00  0.00    +0.000 A 
ATOM     13  O   UNL     1       4.207   7.316  17.560  0.00  0.00    +0.000 OA
ATOM     14  C   UNL     1       4.844   6.779  16.456  0.00  0.00    +0.000 C 
ATOM     15  O   UNL     1       4.752   7.274  15.341  0.00  0.00    +0.000 OA
ENDROOT
BRANCH   1  17
ATOM     16  O   UNL     1       7.746   5.905  15.521  0.00  0.00    +0.000 OA
ATOM     17  C   UNL     1       6.733   5.240  15.759  0.00  0.00    +0.000 C 
BRANCH  17  18
ATOM     18  C   UNL     1       6.429   4.010  14.915  0.00  0.00    +0.000 C 
BRANCH  18  19
ATOM     19  C   UNL     1       6.937   4.120  13.478  0.00  0.00    +0.000 C 
BRANCH  19  20
ATOM     20  C   UNL     1       6.058   3.374  12.514  0.00  0.00    +0.000 A 
ATOM     21  C   UNL     1       6.515   2.195  11.902  0.00  0.00    +0.000 A 
ATOM     22  C   UNL     1       5.699   1.506  11.003  0.00  0.00    +0.000 A 
ATOM     23  C   UNL     1       4.434   2.000  10.702  0.00  0.00    +0.000 A 
ATOM     24  C   UNL     1       3.978   3.179  11.303  0.00  0.00    +0.000 A 
ATOM     25  C   UNL     1       4.786   3.861  12.203  0.00  0.00    +0.000 A 
ENDBRANCH  19  20
ENDBRANCH  18  19
ENDBRANCH  17  18
ENDBRANCH   1  17
TORSDOF 4
ENDMDL
MODEL 4
REMARK VINA RESULT:      -8.7      4.084      6.804
REMARK  Name = 
REMARK  4 active torsions:
REMARK  status: ('A' for Active; 'I' for Inactive)
REMARK    1  A    between atoms: C_2  and  C_3
REMARK    2  A    between atoms: C_2  and  C_11
REMARK    3  A    between atoms: C_3  and  C_4
REMARK    4  A    between atoms: C_4  and  C_5
REMARK                            x       y       z     vdW  Elec       q    Type
REMARK                         _______ _______ _______ _____ _____    ______ ____
ROOT
ATOM      1  C   UNL     1       5.690   5.707  16.805  0.00  0.00    +0.000 C 
ATOM      2  C   UNL     1       4.814   4.555  17.280  0.00  0.00    +0.000 C 
ATOM      3  C   UNL     1       3.650   5.044  18.110  0.00  0.00    +0.000 A 
ATOM      4  C   UNL     1       3.498   6.421  18.320  0.00  0.00    +0.000 A 
ATOM      5  C   UNL     1       2.609   6.924  19.260  0.00  0.00    +0.000 A 
ATOM      6  C   UNL     1       1.797   6.041  19.962  0.00  0.00    +0.000 A 
ATOM      7  C   UNL     1       1.816   4.670  19.670  0.00  0.00    +0.000 A 
ATOM      8  C   UNL     1       0.918   3.802  20.308  0.00  0.00    +0.000 A 
ATOM      9  C   UNL     1       0.859   2.453  19.964  0.00  0.00    +0.000 A 
ATOM     10  C   UNL     1       1.701   1.953  18.980  0.00  0.00    +0.000 A 
ATOM     11  C   UNL     1       2.640   2.790  18.374  0.00  0.00    +0.000 A 
ATOM     12  C   UNL     1       2.728   4.157  18.711  0.00  0.00    +0.000 A 
ATOM     13  O   UNL     1       4.143   7.374  17.524  0.00  0.00    +0.000 OA
ATOM     14  C   UNL     1       4.774   6.832  16.419  0.00  0.00    +0.000 C 
ATOM     15  O   UNL     1       4.677   7.323  15.303  0.00  0.00    +0.000 OA
ENDROOT
BRANCH   1  17
ATOM     16  O   UNL     1       7.768   5.817  15.611  0.00  0.00    +0.000 OA
ATOM     17  C   UNL     1       6.657   5.288  15.717  0.00  0.00    +0.000 C 
BRANCH  17  18
ATOM     18  C   UNL     1       6.230   4.232  14.708  0.00  0.00    +0.000 C 
BRANCH  18  19
ATOM     19  C   UNL     1       6.609   4.581  13.269  0.00  0.00    +0.000 C 
BRANCH  19  20
ATOM     20  C   UNL     1       6.387   3.424  12.335  0.00  0.00    +0.000 A 
ATOM     21  C   UNL     1       5.084   3.014  12.009  0.00  0.00    +0.000 A 
ATOM     22  C   UNL     1       4.880   1.937  11.145  0.00  0.00    +0.000 A 
ATOM     23  C   UNL     1       5.974   1.258  10.619  0.00  0.00    +0.000 A 
ATOM     24  C   UNL     1       7.275   1.658  10.948  0.00  0.00    +0.000 A 
ATOM     25  C   UNL     1       7.479   2.734  11.802  0.00  0.00    +0.000 A 
ENDBRANCH  19  20
ENDBRANCH  18  19
ENDBRANCH  17  18
ENDBRANCH   1  17
TORSDOF 4
ENDMDL
MODEL 5
REMARK VINA RESULT:      -8.6      2.858      5.257
REMARK  Name = 
REMARK  4 active torsions:
REMARK  status: ('A' for Active; 'I' for Inactive)
REMARK    1  A    between atoms: C_2  and  C_3
REMARK    2  A    between atoms: C_2  and  C_11
REMARK    3  A    between atoms: C_3  and  C_4
REMARK    4  A    between atoms: C_4  and  C_5
REMARK                            x       y       z     vdW  Elec       q    Type
REMARK                         _______ _______ _______ _____ _____    ______ ____
ROOT
ATOM      1  C   UNL     1       3.347   4.261  18.043  0.00  0.00    +0.000 C 
ATOM      2  C   UNL     1       3.097   5.729  17.720  0.00  0.00    +0.000 C 
ATOM      3  C   UNL     1       2.520   6.469  18.903  0.00  0.00    +0.000 A 
ATOM      4  C   UNL     1       2.312   5.776  20.103  0.00  0.00    +0.000 A 
ATOM      5  C   UNL     1       1.569   6.318  21.143  0.00  0.00    +0.000 A 
ATOM      6  C   UNL     1       1.076   7.611  21.017  0.00  0.00    +0.000 A 
ATOM      7  C   UNL     1       1.392   8.389  19.894  0.00  0.00    +0.000 A 
ATOM      8  C   UNL     1       0.980   9.728  19.827  0.00  0.00    +0.000 A 
ATOM      9  C   UNL     1       1.362  10.542  18.762  0.00  0.00    +0.000 A 
ATOM     10  C   UNL     1       2.158  10.026  17.748  0.00  0.00    +0.000 A 
ATOM     11  C   UNL     1       2.531   8.680  17.770  0.00  0.00    +0.000 A 
ATOM     12  C   UNL     1       2.150   7.832  18.831  0.00  0.00    +0.000 A 
ATOM     13  O   UNL     1       2.930   4.550  20.373  0.00  0.00    +0.000 OA
ATOM     14  C   UNL     1       3.890   4.199  19.441  0.00  0.00    +0.000 C 
ATOM     15  O   UNL     1       4.989   3.769  19.763  0.00  0.00    +0.000 OA
ENDROOT
BRANCH   1  17
ATOM     16  O   UNL     1       4.441   2.367  17.056  0.00  0.00    +0.000 OA
ATOM     17  C   UNL     1       4.216   3.580  17.006  0.00  0.00    +0.000 C 
BRANCH  17  18
ATOM     18  C   UNL     1       4.864   4.417  15.911  0.00  0.00    +0.000 C 
BRANCH  18  19
ATOM     19  C   UNL     1       6.390   4.348  15.918  0.00  0.00    +0.000 C 
BRANCH  19  20
ATOM     20  C   UNL     1       6.990   5.305  16.911  0.00  0.00    +0.000 A 
ATOM     21  C   UNL     1       7.023   6.682  16.638  0.00  0.00    +0.000 A 
ATOM     22  C   UNL     1       7.585   7.569  17.558  0.00  0.00    +0.000 A 
ATOM     23  C   UNL     1       8.128   7.081  18.743  0.00  0.00    +0.000 A 
ATOM     24  C   UNL     1       8.105   5.708  19.014  0.00  0.00    +0.000 A 
ATOM     25  C   UNL     1       7.540   4.826  18.103  0.00  0.00    +0.000 A 
ENDBRANCH  19  20
ENDBRANCH  18  19
ENDBRANCH  17  18
ENDBRANCH   1  17
TORSDOF 4
ENDMDL
MODEL 6
REMARK VINA RESULT:      -8.6      3.553      5.629
REMARK  Name = 
REMARK  4 active torsions:
REMARK  status: ('A' for Active; 'I' for Inactive)
REMARK    1  A    between atoms: C_2  and  C_3
REMARK    2  A    between atoms: C_2  and  C_11
REMARK    3  A    between atoms: C_3  and  C_4
REMARK    4  A    between atoms: C_4  and  C_5
REMARK                            x       y       z     vdW  Elec       q    Type
REMARK                         _______ _______ _______ _____ _____    ______ ____
ROOT
ATOM      1  C   UNL     1       5.871   6.431  17.878  0.00  0.00    +0.000 C 
ATOM      2  C   UNL     1       5.395   5.198  18.637  0.00  0.00    +0.000 C 
ATOM      3  C   UNL     1       3.994   5.379  19.171  0.00  0.00    +0.000 A 
ATOM      4  C   UNL     1       3.317   6.576  18.909  0.00  0.00    +0.000 A 
ATOM      5  C   UNL     1       2.138   6.910  19.563  0.00  0.00    +0.000 A 
ATOM      6  C   UNL     1       1.580   6.000  20.452  0.00  0.00    +0.000 A 
ATOM      7  C   UNL     1       2.149   4.731  20.627  0.00  0.00    +0.000 A 
ATOM      8  C   UNL     1       1.518   3.782  21.444  0.00  0.00    +0.000 A 
ATOM      9  C   UNL     1       2.020   2.486  21.556  0.00  0.00    +0.000 A 
ATOM     10  C   UNL     1       3.163   2.125  20.855  0.00  0.00    +0.000 A 
ATOM     11  C   UNL     1       3.836   3.072  20.081  0.00  0.00    +0.000 A 
ATOM     12  C   UNL     1       3.355   4.393  19.958  0.00  0.00    +0.000 A 
ATOM     13  O   UNL     1       3.718   7.454  17.895  0.00  0.00    +0.000 OA
ATOM     14  C   UNL     1       4.706   6.938  17.078  0.00  0.00    +0.000 C 
ATOM     15  O   UNL     1       4.661   7.025  15.859  0.00  0.00    +0.000 OA
ENDROOT
BRANCH   1  17
ATOM     16  O   UNL     1       7.869   7.081  16.721  0.00  0.00    +0.000 OA
ATOM     17  C   UNL     1       7.119   6.162  17.062  0.00  0.00    +0.000 C 
BRANCH  17  18
ATOM     18  C   UNL     1       7.424   4.739  16.615  0.00  0.00    +0.000 C 
BRANCH  18  19
ATOM     19  C   UNL     1       6.303   4.109  15.791  0.00  0.00    +0.000 C 
BRANCH  19  20
ATOM     20  C   UNL     1       6.578   4.190  14.315  0.00  0.00    +0.000 A 
ATOM     21  C   UNL     1       5.922   3.326  13.422  0.00  0.00    +0.000 A 
ATOM     22  C   UNL     1       6.182   3.399  12.053  0.00  0.00    +0.000 A 
ATOM     23  C   UNL     1       7.108   4.321  11.575  0.00  0.00    +0.000 A 
ATOM     24  C   UNL     1       7.770   5.177  12.462  0.00  0.00    +0.000 A 
ATOM     25  C   UNL     1       7.507   5.111  13.824  0.00  0.00    +0.000 A 
ENDBRANCH  19  20
ENDBRANCH  18  19
ENDBRANCH  17  18
ENDBRANCH   1  17
TORSDOF 4
ENDMDL
MODEL 7
REMARK VINA RESULT:      -8.6      3.848      6.940
REMARK  Name = 
REMARK  4 active torsions:
REMARK  status: ('A' for Active; 'I' for Inactive)
REMARK    1  A    between atoms: C_2  and  C_3
REMARK    2  A    between atoms: C_2  and  C_11
REMARK    3  A    between atoms: C_3  and  C_4
REMARK    4  A    between atoms: C_4  and  C_5
REMARK                            x       y       z     vdW  Elec       q    Type
REMARK                         _______ _______ _______ _____ _____    ______ ____
ROOT
ATOM      1  C   UNL     1       3.536   3.986  18.595  0.00  0.00    +0.000 C 
ATOM      2  C   UNL     1       3.777   3.876  17.094  0.00  0.00    +0.000 C 
ATOM      3  C   UNL     1       5.214   4.172  16.738  0.00  0.00    +0.000 A 
ATOM      4  C   UNL     1       6.120   4.473  17.763  0.00  0.00    +0.000 A 
ATOM      5  C   UNL     1       7.382   4.989  17.498  0.00  0.00    +0.000 A 
ATOM      6  C   UNL     1       7.783   5.144  16.176  0.00  0.00    +0.000 A 
ATOM      7  C   UNL     1       6.961   4.713  15.126  0.00  0.00    +0.000 A 
ATOM      8  C   UNL     1       7.419   4.776  13.802  0.00  0.00    +0.000 A 
ATOM      9  C   UNL     1       6.654   4.267  12.754  0.00  0.00    +0.000 A 
ATOM     10  C   UNL     1       5.417   3.692  13.017  0.00  0.00    +0.000 A 
ATOM     11  C   UNL     1       4.921   3.671  14.322  0.00  0.00    +0.000 A 
ATOM     12  C   UNL     1       5.670   4.188  15.399  0.00  0.00    +0.000 A 
ATOM     13  O   UNL     1       5.858   4.170  19.104  0.00  0.00    +0.000 OA
ATOM     14  C   UNL     1       4.730   3.390  19.282  0.00  0.00    +0.000 C 
ATOM     15  O   UNL     1       4.716   2.419  20.025  0.00  0.00    +0.000 OA
ENDROOT
BRANCH   1  17
ATOM     16  O   UNL     1       1.882   2.248  18.654  0.00  0.00    +0.000 OA
ATOM     17  C   UNL     1       2.210   3.384  19.013  0.00  0.00    +0.000 C 
BRANCH  17  18
ATOM     18  C   UNL     1       1.246   4.213  19.849  0.00  0.00    +0.000 C 
BRANCH  18  19
ATOM     19  C   UNL     1       1.943   5.247  20.731  0.00  0.00    +0.000 C 
BRANCH  19  20
ATOM     20  C   UNL     1       1.774   6.643  20.200  0.00  0.00    +0.000 A 
ATOM     21  C   UNL     1       2.235   6.975  18.916  0.00  0.00    +0.000 A 
ATOM     22  C   UNL     1       2.081   8.273  18.426  0.00  0.00    +0.000 A 
ATOM     23  C   UNL     1       1.482   9.244  19.221  0.00  0.00    +0.000 A 
ATOM     24  C   UNL     1       1.029   8.919  20.506  0.00  0.00    +0.000 A 
ATOM     25  C   UNL     1       1.175   7.627  20.991  0.00  0.00    +0.000 A 
ENDBRANCH  19  20
ENDBRANCH  18  19
ENDBRANCH  17  18
ENDBRANCH   1  17
TORSDOF 4
ENDMDL
MODEL 8
REMARK VINA RESULT:      -8.5      3.048      5.400
REMARK  Name = 
REMARK  4 active torsions:
REMARK  status: ('A' for Active; 'I' for Inactive)
REMARK    1  A    between atoms: C_2  and  C_3
REMARK    2  A    between atoms: C_2  and  C_11
REMARK    3  A    between atoms: C_3  and  C_4
REMARK    4  A    between atoms: C_4  and  C_5
REMARK                            x       y       z     vdW  Elec       q    Type
REMARK                         _______ _______ _______ _____ _____    ______ ____
ROOT
ATOM      1  C   UNL     1       3.007   4.447  18.249  0.00  0.00    +0.000 C 
ATOM      2  C   UNL     1       2.823   5.911  17.870  0.00  0.00    +0.000 C 
ATOM      3  C   UNL     1       2.296   6.725  19.028  0.00  0.00    +0.000 A 
ATOM      4  C   UNL     1       2.070   6.091  20.256  0.00  0.00    +0.000 A 
ATOM      5  C   UNL     1       1.366   6.710  21.281  0.00  0.00    +0.000 A 
ATOM      6  C   UNL     1       0.935   8.019  21.108  0.00  0.00    +0.000 A 
ATOM      7  C   UNL     1       1.274   8.736  19.952  0.00  0.00    +0.000 A 
ATOM      8  C   UNL     1       0.926  10.089  19.834  0.00  0.00    +0.000 A 
ATOM      9  C   UNL     1       1.334  10.841  18.734  0.00  0.00    +0.000 A 
ATOM     10  C   UNL     1       2.092  10.247  17.734  0.00  0.00    +0.000 A 
ATOM     11  C   UNL     1       2.400   8.887  17.807  0.00  0.00    +0.000 A 
ATOM     12  C   UNL     1       1.991   8.100  18.905  0.00  0.00    +0.000 A 
ATOM     13  O   UNL     1       2.631   4.848  20.570  0.00  0.00    +0.000 OA
ATOM     14  C   UNL     1       3.562   4.415  19.643  0.00  0.00    +0.000 C 
ATOM     15  O   UNL     1       4.643   3.944  19.971  0.00  0.00    +0.000 OA
ENDROOT
BRANCH   1  17
ATOM     16  O   UNL     1       3.902   2.452  17.262  0.00  0.00    +0.000 OA
ATOM     17  C   UNL     1       3.829   3.684  17.232  0.00  0.00    +0.000 C 
BRANCH  17  18
ATOM     18  C   UNL     1       4.620   4.456  16.184  0.00  0.00    +0.000 C 
BRANCH  18  19
ATOM     19  C   UNL     1       6.125   4.207  16.256  0.00  0.00    +0.000 C 
BRANCH  19  20
ATOM     20  C   UNL     1       6.827   5.251  17.079  0.00  0.00    +0.000 A 
ATOM     21  C   UNL     1       7.470   4.897  18.277  0.00  0.00    +0.000 A 
ATOM     22  C   UNL     1       8.118   5.868  19.042  0.00  0.00    +0.000 A 
ATOM     23  C   UNL     1       8.111   7.195  18.623  0.00  0.00    +0.000 A 
ATOM     24  C   UNL     1       7.463   7.553  17.435  0.00  0.00    +0.000 A 
ATOM     25  C   UNL     1       6.825   6.587  16.669  0.00  0.00    +0.000 A 
ENDBRANCH  19  20
ENDBRANCH  18  19
ENDBRANCH  17  18
ENDBRANCH   1  17
TORSDOF 4
ENDMDL
MODEL 9
REMARK VINA RESULT:      -8.5      4.449      6.658
REMARK  Name = 
REMARK  4 active torsions:
REMARK  status: ('A' for Active; 'I' for Inactive)
REMARK    1  A    between atoms: C_2  and  C_3
REMARK    2  A    between atoms: C_2  and  C_11
REMARK    3  A    between atoms: C_3  and  C_4
REMARK    4  A    between atoms: C_4  and  C_5
REMARK                            x       y       z     vdW  Elec       q    Type
REMARK                         _______ _______ _______ _____ _____    ______ ____
ROOT
ATOM      1  C   UNL     1       2.915   5.917  19.583  0.00  0.00    +0.000 C 
ATOM      2  C   UNL     1       2.117   6.722  20.601  0.00  0.00    +0.000 C 
ATOM      3  C   UNL     1       1.610   8.018  20.015  0.00  0.00    +0.000 A 
ATOM      4  C   UNL     1       1.890   8.311  18.674  0.00  0.00    +0.000 A 
ATOM      5  C   UNL     1       1.672   9.574  18.140  0.00  0.00    +0.000 A 
ATOM      6  C   UNL     1       1.095  10.554  18.939  0.00  0.00    +0.000 A 
ATOM      7  C   UNL     1       0.664  10.253  20.238  0.00  0.00    +0.000 A 
ATOM      8  C   UNL     1      -0.013  11.218  20.997  0.00  0.00    +0.000 A 
ATOM      9  C   UNL     1      -0.529  10.909  22.254  0.00  0.00    +0.000 A 
ATOM     10  C   UNL     1      -0.371   9.629  22.770  0.00  0.00    +0.000 A 
ATOM     11  C   UNL     1       0.349   8.672  22.053  0.00  0.00    +0.000 A 
ATOM     12  C   UNL     1       0.891   8.962  20.783  0.00  0.00    +0.000 A 
ATOM     13  O   UNL     1       2.297   7.329  17.764  0.00  0.00    +0.000 OA
ATOM     14  C   UNL     1       2.209   6.043  18.265  0.00  0.00    +0.000 C 
ATOM     15  O   UNL     1       1.726   5.121  17.622  0.00  0.00    +0.000 OA
ENDROOT
BRANCH   1  17
ATOM     16  O   UNL     1       2.430   3.959  20.881  0.00  0.00    +0.000 OA
ATOM     17  C   UNL     1       3.152   4.490  20.031  0.00  0.00    +0.000 C 
BRANCH  17  18
ATOM     18  C   UNL     1       4.330   3.715  19.458  0.00  0.00    +0.000 C 
BRANCH  18  19
ATOM     19  C   UNL     1       5.523   4.600  19.102  0.00  0.00    +0.000 C 
BRANCH  19  20
ATOM     20  C   UNL     1       5.859   4.528  17.639  0.00  0.00    +0.000 A 
ATOM     21  C   UNL     1       4.891   4.117  16.708  0.00  0.00    +0.000 A 
ATOM     22  C   UNL     1       5.206   4.046  15.350  0.00  0.00    +0.000 A 
ATOM     23  C   UNL     1       6.489   4.369  14.921  0.00  0.00    +0.000 A 
ATOM     24  C   UNL     1       7.459   4.770  15.848  0.00  0.00    +0.000 A 
ATOM     25  C   UNL     1       7.145   4.848  17.198  0.00  0.00    +0.000 A 
ENDBRANCH  19  20
ENDBRANCH  18  19
ENDBRANCH  17  18
ENDBRANCH   1  17
TORSDOF 4
ENDMDL
