MODEL 1
REMARK VINA RESULT:      -8.6      0.000      0.000
REMARK  Name = 
REMARK  8 active torsions:
REMARK  status: ('A' for Active; 'I' for Inactive)
REMARK    1  A    between atoms: C_2  and  C_3
REMARK    2  A    between atoms: C_3  and  S_4
REMARK    3  A    between atoms: S_4  and  C_5
REMARK    4  A    between atoms: C_7  and  C_8
REMARK    5  A    between atoms: C_14  and  C_15
REMARK    6  A    between atoms: N_22  and  C_23
REMARK    7  A    between atoms: C_23  and  C_24
REMARK    8  A    between atoms: C_24  and  N_25
REMARK                            x       y       z     vdW  Elec       q    Type
REMARK                         _______ _______ _______ _____ _____    ______ ____
ROOT
ATOM      1  C   UNL     1       5.430   5.767  17.587  0.00  0.00    +0.000 A 
ATOM      2  N   UNL     1       4.764   4.731  18.028  0.00  0.00    +0.000 NA
ATOM      3  C   UNL     1       3.535   5.240  18.434  0.00  0.00    +0.000 A 
ATOM      4  C   UNL     1       3.482   6.624  18.260  0.00  0.00    +0.000 A 
ATOM      5  N   UNL     1       4.694   6.912  17.663  0.00  0.00    +0.000 N 
ATOM      6  H   UNL     1       5.026   7.826  17.398  0.00  0.00    +0.000 HD
ENDROOT
BRANCH   3   7
ATOM      7  C   UNL     1       2.490   4.394  19.005  0.00  0.00    +0.000 A 
ATOM      8  C   UNL     1       1.707   3.592  18.167  0.00  0.00    +0.000 A 
ATOM      9  C   UNL     1       0.723   2.754  18.702  0.00  0.00    +0.000 A 
ATOM     10  C   UNL     1       0.522   2.696  20.082  0.00  0.00    +0.000 A 
ATOM     11  C   UNL     1       1.298   3.480  20.928  0.00  0.00    +0.000 A 
ATOM     12  C   UNL     1       2.257   4.342  20.390  0.00  0.00    +0.000 A 
ENDBRANCH   3   7
BRANCH   4  13
ATOM     13  C   UNL     1       2.509   7.664  18.626  0.00  0.00    +0.000 A 
ATOM     14  C   UNL     1       2.061   7.791  19.951  0.00  0.00    +0.000 A 
ATOM     15  C   UNL     1       1.114   8.752  20.310  0.00  0.00    +0.000 A 
ATOM     16  C   UNL     1       0.636   9.640  19.354  0.00  0.00    +0.000 A 
ATOM     17  C   UNL     1       1.084   9.547  18.038  0.00  0.00    +0.000 A 
ATOM     18  C   UNL     1       2.004   8.558  17.673  0.00  0.00    +0.000 A 
ENDBRANCH   4  13
BRANCH   1  19
ATOM     19  S   UNL     1       7.045   5.841  16.975  0.00  0.00    +0.000 S 
BRANCH  19  20
ATOM     20  C   UNL     1       7.924   6.687  18.319  0.00  0.00    +0.000 C 
BRANCH  20  22
ATOM     21  O   UNL     1       7.362   8.721  17.130  0.00  0.00    +0.000 OA
ATOM     22  C   UNL     1       7.998   8.187  18.035  0.00  0.00    +0.000 C 
ATOM     23  N   UNL     1       8.828   8.906  18.878  0.00  0.00    +0.000 N 
ATOM     24  H   UNL     1       9.363   8.408  19.579  0.00  0.00    +0.000 HD
BRANCH  23  25
ATOM     25  C   UNL     1       9.043  10.341  18.734  0.00  0.00    +0.000 C 
BRANCH  25  26
ATOM     26  C   UNL     1      10.019  10.913  19.774  0.00  0.00    +0.000 C 
BRANCH  26  27
ATOM     27  N   UNL     1      10.270  12.336  19.581  0.00  0.00    +0.000 N 
ATOM     28  C   UNL     1       9.508  13.296  20.194  0.00  0.00    +0.000 C 
ATOM     29  O   UNL     1       8.571  13.076  20.958  0.00  0.00    +0.000 OA
ATOM     30  C   UNL     1       9.935  14.692  19.832  0.00  0.00    +0.000 C 
ATOM     31  S   UNL     1      11.288  14.513  18.658  0.00  0.00    +0.000 S 
ATOM     32  C   UNL     1      11.212  12.768  18.690  0.00  0.00    +0.000 C 
ATOM     33  O   UNL     1      11.911  12.068  17.973  0.00  0.00    +0.000 OA
ENDBRANCH  26  27
ENDBRANCH  25  26
ENDBRANCH  23  25
ENDBRANCH  20  22
ENDBRANCH  19  20
ENDBRANCH   1  19
TORSDOF 8
ENDMDL
MODEL 2
REMARK VINA RESULT:      -8.5      0.691      1.296
REMARK  Name = 
REMARK  8 active torsions:
REMARK  status: ('A' for Active; 'I' for Inactive)
REMARK    1  A    between atoms: C_2  and  C_3
REMARK    2  A    between atoms: C_3  and  S_4
REMARK    3  A    between atoms: S_4  and  C_5
REMARK    4  A    between atoms: C_7  and  C_8
REMARK    5  A    between atoms: C_14  and  C_15
REMARK    6  A    between atoms: N_22  and  C_23
REMARK    7  A    between atoms: C_23  and  C_24
REMARK    8  A    between atoms: C_24  and  N_25
REMARK                            x       y       z     vdW  Elec       q    Type
REMARK                         _______ _______ _______ _____ _____    ______ ____
ROOT
ATOM      1  C   UNL     1       5.464   5.884  17.546  0.00  0.00    +0.000 A 
ATOM      2  N   UNL     1       4.839   4.827  17.996  0.00  0.00    +0.000 NA
ATOM      3  C   UNL     1       3.597   5.293  18.412  0.00  0.00    +0.000 A 
ATOM      4  C   UNL     1       3.492   6.673  18.233  0.00  0.00    +0.000 A 
ATOM      5  N   UNL     1       4.688   7.002  17.625  0.00  0.00    +0.000 N 
ATOM      6  H   UNL     1       4.984   7.927  17.353  0.00  0.00    +0.000 HD
ENDROOT
BRANCH   3   7
ATOM      7  C   UNL     1       2.587   4.413  18.995  0.00  0.00    +0.000 A 
ATOM      8  C   UNL     1       1.743   3.672  18.160  0.00  0.00    +0.000 A 
ATOM      9  C   UNL     1       0.791   2.801  18.704  0.00  0.00    +0.000 A 
ATOM     10  C   UNL     1       0.686   2.649  20.087  0.00  0.00    +0.000 A 
ATOM     11  C   UNL     1       1.526   3.371  20.929  0.00  0.00    +0.000 A 
ATOM     12  C   UNL     1       2.450   4.266  20.386  0.00  0.00    +0.000 A 
ENDBRANCH   3   7
BRANCH   4  13
ATOM     13  C   UNL     1       2.486   7.679  18.605  0.00  0.00    +0.000 A 
ATOM     14  C   UNL     1       2.047   7.796  19.933  0.00  0.00    +0.000 A 
ATOM     15  C   UNL     1       1.069   8.723  20.298  0.00  0.00    +0.000 A 
ATOM     16  C   UNL     1       0.550   9.590  19.343  0.00  0.00    +0.000 A 
ATOM     17  C   UNL     1       0.989   9.508  18.024  0.00  0.00    +0.000 A 
ATOM     18  C   UNL     1       1.940   8.550  17.653  0.00  0.00    +0.000 A 
ENDBRANCH   4  13
BRANCH   1  19
ATOM     19  S   UNL     1       7.069   6.014  16.919  0.00  0.00    +0.000 S 
BRANCH  19  20
ATOM     20  C   UNL     1       7.944   6.842  18.277  0.00  0.00    +0.000 C 
BRANCH  20  22
ATOM     21  O   UNL     1       7.195   8.922  17.286  0.00  0.00    +0.000 OA
ATOM     22  C   UNL     1       7.987   8.350  18.029  0.00  0.00    +0.000 C 
ATOM     23  N   UNL     1       8.982   9.030  18.711  0.00  0.00    +0.000 N 
ATOM     24  H   UNL     1       9.636   8.502  19.277  0.00  0.00    +0.000 HD
BRANCH  23  25
ATOM     25  C   UNL     1       9.191  10.466  18.572  0.00  0.00    +0.000 C 
BRANCH  25  26
ATOM     26  C   UNL     1       9.435  11.175  19.914  0.00  0.00    +0.000 C 
BRANCH  26  27
ATOM     27  N   UNL     1      10.162  12.429  19.759  0.00  0.00    +0.000 N 
ATOM     28  C   UNL     1      11.525  12.495  19.880  0.00  0.00    +0.000 C 
ATOM     29  O   UNL     1      12.264  11.539  20.109  0.00  0.00    +0.000 OA
ATOM     30  C   UNL     1      12.055  13.892  19.703  0.00  0.00    +0.000 C 
ATOM     31  S   UNL     1      10.616  14.943  19.451  0.00  0.00    +0.000 S 
ATOM     32  C   UNL     1       9.496  13.611  19.596  0.00  0.00    +0.000 C 
ATOM     33  O   UNL     1       8.285  13.767  19.575  0.00  0.00    +0.000 OA
ENDBRANCH  26  27
ENDBRANCH  25  26
ENDBRANCH  23  25
ENDBRANCH  20  22
ENDBRANCH  19  20
ENDBRANCH   1  19
TORSDOF 8
ENDMDL
MODEL 3
REMARK VINA RESULT:      -8.4      1.320      1.846
REMARK  Name = 
REMARK  8 active torsions:
REMARK  status: ('A' for Active; 'I' for Inactive)
REMARK    1  A    between atoms: C_2  and  C_3
REMARK    2  A    between atoms: C_3  and  S_4
REMARK    3  A    between atoms: S_4  and  C_5
REMARK    4  A    between atoms: C_7  and  C_8
REMARK    5  A    between atoms: C_14  and  C_15
REMARK    6  A    between atoms: N_22  and  C_23
REMARK    7  A    between atoms: C_23  and  C_24
REMARK    8  A    between atoms: C_24  and  N_25
REMARK                            x       y       z     vdW  Elec       q    Type
REMARK                         _______ _______ _______ _____ _____    ______ ____
ROOT
ATOM      1  C   UNL     1       5.479   5.675  17.671  0.00  0.00    +0.000 A 
ATOM      2  N   UNL     1       4.889   4.662  18.251  0.00  0.00    +0.000 NA
ATOM      3  C   UNL     1       3.667   5.161  18.689  0.00  0.00    +0.000 A 
ATOM      4  C   UNL     1       3.541   6.518  18.388  0.00  0.00    +0.000 A 
ATOM      5  N   UNL     1       4.698   6.793  17.687  0.00  0.00    +0.000 N 
ATOM      6  H   UNL     1       4.972   7.689  17.314  0.00  0.00    +0.000 HD
ENDROOT
BRANCH   3   7
ATOM      7  C   UNL     1       2.698   4.335  19.406  0.00  0.00    +0.000 A 
ATOM      8  C   UNL     1       2.776   4.221  20.799  0.00  0.00    +0.000 A 
ATOM      9  C   UNL     1       1.837   3.458  21.503  0.00  0.00    +0.000 A 
ATOM     10  C   UNL     1       0.801   2.816  20.824  0.00  0.00    +0.000 A 
ATOM     11  C   UNL     1       0.706   2.928  19.441  0.00  0.00    +0.000 A 
ATOM     12  C   UNL     1       1.664   3.660  18.736  0.00  0.00    +0.000 A 
ENDBRANCH   3   7
BRANCH   4  13
ATOM     13  C   UNL     1       2.547   7.550  18.718  0.00  0.00    +0.000 A 
ATOM     14  C   UNL     1       2.090   8.444  17.737  0.00  0.00    +0.000 A 
ATOM     15  C   UNL     1       1.170   9.449  18.040  0.00  0.00    +0.000 A 
ATOM     16  C   UNL     1       0.649   9.544  19.325  0.00  0.00    +0.000 A 
ATOM     17  C   UNL     1       1.071   8.653  20.309  0.00  0.00    +0.000 A 
ATOM     18  C   UNL     1       2.023   7.670  20.012  0.00  0.00    +0.000 A 
ENDBRANCH   4  13
BRANCH   1  19
ATOM     19  S   UNL     1       7.047   5.752  16.947  0.00  0.00    +0.000 S 
BRANCH  19  20
ATOM     20  C   UNL     1       7.311   7.541  16.797  0.00  0.00    +0.000 C 
BRANCH  20  22
ATOM     21  O   UNL     1       8.501   7.318  18.895  0.00  0.00    +0.000 OA
ATOM     22  C   UNL     1       8.108   8.055  17.995  0.00  0.00    +0.000 C 
ATOM     23  N   UNL     1       8.364   9.416  17.992  0.00  0.00    +0.000 N 
ATOM     24  H   UNL     1       7.978   9.985  17.247  0.00  0.00    +0.000 HD
BRANCH  23  25
ATOM     25  C   UNL     1       9.084  10.084  19.070  0.00  0.00    +0.000 C 
BRANCH  25  26
ATOM     26  C   UNL     1      10.032  11.186  18.572  0.00  0.00    +0.000 C 
BRANCH  26  27
ATOM     27  N   UNL     1       9.505  12.525  18.805  0.00  0.00    +0.000 N 
ATOM     28  C   UNL     1       8.504  13.054  18.033  0.00  0.00    +0.000 C 
ATOM     29  O   UNL     1       7.948  12.477  17.101  0.00  0.00    +0.000 OA
ATOM     30  C   UNL     1       8.136  14.454  18.441  0.00  0.00    +0.000 C 
ATOM     31  S   UNL     1       9.244  14.888  19.792  0.00  0.00    +0.000 S 
ATOM     32  C   UNL     1      10.069  13.349  19.739  0.00  0.00    +0.000 C 
ATOM     33  O   UNL     1      11.033  13.097  20.444  0.00  0.00    +0.000 OA
ENDBRANCH  26  27
ENDBRANCH  25  26
ENDBRANCH  23  25
ENDBRANCH  20  22
ENDBRANCH  19  20
ENDBRANCH   1  19
TORSDOF 8
ENDMDL
MODEL 4
REMARK VINA RESULT:      -8.4      1.236      1.637
REMARK  Name = 
REMARK  8 active torsions:
REMARK  status: ('A' for Active; 'I' for Inactive)
REMARK    1  A    between atoms: C_2  and  C_3
REMARK    2  A    between atoms: C_3  and  S_4
REMARK    3  A    between atoms: S_4  and  C_5
REMARK    4  A    between atoms: C_7  and  C_8
REMARK    5  A    between atoms: C_14  and  C_15
REMARK    6  A    between atoms: N_22  and  C_23
REMARK    7  A    between atoms: C_23  and  C_24
REMARK    8  A    between atoms: C_24  and  N_25
REMARK                            x       y       z     vdW  Elec       q    Type
REMARK                         _______ _______ _______ _____ _____    ______ ____
ROOT
ATOM      1  C   UNL     1       5.280   5.869  17.602  0.00  0.00    +0.000 A 
ATOM      2  N   UNL     1       4.688   4.836  18.147  0.00  0.00    +0.000 NA
ATOM      3  C   UNL     1       3.470   5.322  18.609  0.00  0.00    +0.000 A 
ATOM      4  C   UNL     1       3.347   6.690  18.360  0.00  0.00    +0.000 A 
ATOM      5  N   UNL     1       4.503   6.988  17.665  0.00  0.00    +0.000 N 
ATOM      6  H   UNL     1       4.778   7.896  17.325  0.00  0.00    +0.000 HD
ENDROOT
BRANCH   3   7
ATOM      7  C   UNL     1       2.502   4.473  19.299  0.00  0.00    +0.000 A 
ATOM      8  C   UNL     1       1.622   3.676  18.558  0.00  0.00    +0.000 A 
ATOM      9  C   UNL     1       0.709   2.834  19.205  0.00  0.00    +0.000 A 
ATOM     10  C   UNL     1       0.679   2.768  20.599  0.00  0.00    +0.000 A 
ATOM     11  C   UNL     1       1.555   3.548  21.348  0.00  0.00    +0.000 A 
ATOM     12  C   UNL     1       2.440   4.413  20.702  0.00  0.00    +0.000 A 
ENDBRANCH   3   7
BRANCH   4  13
ATOM     13  C   UNL     1       2.359   7.713  18.734  0.00  0.00    +0.000 A 
ATOM     14  C   UNL     1       1.826   8.581  17.768  0.00  0.00    +0.000 A 
ATOM     15  C   UNL     1       0.910   9.577  18.110  0.00  0.00    +0.000 A 
ATOM     16  C   UNL     1       0.470   9.688  19.424  0.00  0.00    +0.000 A 
ATOM     17  C   UNL     1       0.968   8.822  20.395  0.00  0.00    +0.000 A 
ATOM     18  C   UNL     1       1.916   7.849  20.057  0.00  0.00    +0.000 A 
ENDBRANCH   4  13
BRANCH   1  19
ATOM     19  S   UNL     1       6.844   5.967  16.875  0.00  0.00    +0.000 S 
BRANCH  19  20
ATOM     20  C   UNL     1       7.177   7.751  16.925  0.00  0.00    +0.000 C 
BRANCH  20  22
ATOM     21  O   UNL     1       8.417   7.243  18.942  0.00  0.00    +0.000 OA
ATOM     22  C   UNL     1       8.084   8.081  18.109  0.00  0.00    +0.000 C 
ATOM     23  N   UNL     1       8.514   9.396  18.173  0.00  0.00    +0.000 N 
ATOM     24  H   UNL     1       8.172  10.056  17.484  0.00  0.00    +0.000 HD
BRANCH  23  25
ATOM     25  C   UNL     1       9.359   9.897  19.251  0.00  0.00    +0.000 C 
BRANCH  25  26
ATOM     26  C   UNL     1       9.191  11.403  19.501  0.00  0.00    +0.000 C 
BRANCH  26  27
ATOM     27  N   UNL     1      10.201  12.200  18.816  0.00  0.00    +0.000 N 
ATOM     28  C   UNL     1      11.466  12.354  19.319  0.00  0.00    +0.000 C 
ATOM     29  O   UNL     1      11.882  11.847  20.359  0.00  0.00    +0.000 OA
ATOM     30  C   UNL     1      12.330  13.234  18.457  0.00  0.00    +0.000 C 
ATOM     31  S   UNL     1      11.284  13.781  17.097  0.00  0.00    +0.000 S 
ATOM     32  C   UNL     1       9.889  12.916  17.694  0.00  0.00    +0.000 C 
ATOM     33  O   UNL     1       8.793  12.992  17.161  0.00  0.00    +0.000 OA
ENDBRANCH  26  27
ENDBRANCH  25  26
ENDBRANCH  23  25
ENDBRANCH  20  22
ENDBRANCH  19  20
ENDBRANCH   1  19
TORSDOF 8
ENDMDL
MODEL 5
REMARK VINA RESULT:      -8.3      1.004      1.792
REMARK  Name = 
REMARK  8 active torsions:
REMARK  status: ('A' for Active; 'I' for Inactive)
REMARK    1  A    between atoms: C_2  and  C_3
REMARK    2  A    between atoms: C_3  and  S_4
REMARK    3  A    between atoms: S_4  and  C_5
REMARK    4  A    between atoms: C_7  and  C_8
REMARK    5  A    between atoms: C_14  and  C_15
REMARK    6  A    between atoms: N_22  and  C_23
REMARK    7  A    between atoms: C_23  and  C_24
REMARK    8  A    between atoms: C_24  and  N_25
REMARK                            x       y       z     vdW  Elec       q    Type
REMARK                         _______ _______ _______ _____ _____    ______ ____
ROOT
ATOM      1  C   UNL     1       5.420   5.857  17.499  0.00  0.00    +0.000 A 
ATOM      2  N   UNL     1       4.783   4.804  17.944  0.00  0.00    +0.000 NA
ATOM      3  C   UNL     1       3.556   5.287  18.385  0.00  0.00    +0.000 A 
ATOM      4  C   UNL     1       3.473   6.671  18.228  0.00  0.00    +0.000 A 
ATOM      5  N   UNL     1       4.665   6.988  17.606  0.00  0.00    +0.000 N 
ATOM      6  H   UNL     1       4.974   7.910  17.343  0.00  0.00    +0.000 HD
ENDROOT
BRANCH   3   7
ATOM      7  C   UNL     1       2.540   4.416  18.972  0.00  0.00    +0.000 A 
ATOM      8  C   UNL     1       2.413   4.331  20.363  0.00  0.00    +0.000 A 
ATOM      9  C   UNL     1       1.424   3.525  20.939  0.00  0.00    +0.000 A 
ATOM     10  C   UNL     1       0.541   2.809  20.130  0.00  0.00    +0.000 A 
ATOM     11  C   UNL     1       0.649   2.891  18.746  0.00  0.00    +0.000 A 
ATOM     12  C   UNL     1       1.658   3.668  18.173  0.00  0.00    +0.000 A 
ENDBRANCH   3   7
BRANCH   4  13
ATOM     13  C   UNL     1       2.491   7.689  18.629  0.00  0.00    +0.000 A 
ATOM     14  C   UNL     1       2.050   7.774  19.960  0.00  0.00    +0.000 A 
ATOM     15  C   UNL     1       1.095   8.713  20.351  0.00  0.00    +0.000 A 
ATOM     16  C   UNL     1       0.601   9.623  19.424  0.00  0.00    +0.000 A 
ATOM     17  C   UNL     1       1.042   9.573  18.104  0.00  0.00    +0.000 A 
ATOM     18  C   UNL     1       1.971   8.605  17.705  0.00  0.00    +0.000 A 
ENDBRANCH   4  13
BRANCH   1  19
ATOM     19  S   UNL     1       7.017   5.967  16.849  0.00  0.00    +0.000 S 
BRANCH  19  20
ATOM     20  C   UNL     1       7.939   6.712  18.224  0.00  0.00    +0.000 C 
BRANCH  20  22
ATOM     21  O   UNL     1       7.337   8.827  17.208  0.00  0.00    +0.000 OA
ATOM     22  C   UNL     1       7.997   8.230  18.054  0.00  0.00    +0.000 C 
ATOM     23  N   UNL     1       8.845   8.888  18.929  0.00  0.00    +0.000 N 
ATOM     24  H   UNL     1       9.399   8.341  19.577  0.00  0.00    +0.000 HD
BRANCH  23  25
ATOM     25  C   UNL     1       9.049  10.331  18.891  0.00  0.00    +0.000 C 
BRANCH  25  26
ATOM     26  C   UNL     1       9.894  10.853  20.063  0.00  0.00    +0.000 C 
BRANCH  26  27
ATOM     27  N   UNL     1       9.527  12.208  20.457  0.00  0.00    +0.000 N 
ATOM     28  C   UNL     1      10.032  13.310  19.818  0.00  0.00    +0.000 C 
ATOM     29  O   UNL     1      10.811  13.283  18.867  0.00  0.00    +0.000 OA
ATOM     30  C   UNL     1       9.532  14.601  20.407  0.00  0.00    +0.000 C 
ATOM     31  S   UNL     1       8.480  14.142  21.794  0.00  0.00    +0.000 S 
ATOM     32  C   UNL     1       8.746  12.433  21.556  0.00  0.00    +0.000 C 
ATOM     33  O   UNL     1       8.294  11.587  22.312  0.00  0.00    +0.000 OA
ENDBRANCH  26  27
ENDBRANCH  25  26
ENDBRANCH  23  25
ENDBRANCH  20  22
ENDBRANCH  19  20
ENDBRANCH   1  19
TORSDOF 8
ENDMDL
MODEL 6
REMARK VINA RESULT:      -8.3      0.680      1.100
REMARK  Name = 
REMARK  8 active torsions:
REMARK  status: ('A' for Active; 'I' for Inactive)
REMARK    1  A    between atoms: C_2  and  C_3
REMARK    2  A    between atoms: C_3  and  S_4
REMARK    3  A    between atoms: S_4  and  C_5
REMARK    4  A    between atoms: C_7  and  C_8
REMARK    5  A    between atoms: C_14  and  C_15
REMARK    6  A    between atoms: N_22  and  C_23
REMARK    7  A    between atoms: C_23  and  C_24
REMARK    8  A    between atoms: C_24  and  N_25
REMARK                            x       y       z     vdW  Elec       q    Type
REMARK                         _______ _______ _______ _____ _____    ______ ____
ROOT
ATOM      1  C   UNL     1       5.484   5.991  17.507  0.00  0.00    +0.000 A 
ATOM      2  N   UNL     1       4.866   4.928  17.954  0.00  0.00    +0.000 NA
ATOM      3  C   UNL     1       3.624   5.385  18.381  0.00  0.00    +0.000 A 
ATOM      4  C   UNL     1       3.513   6.767  18.213  0.00  0.00    +0.000 A 
ATOM      5  N   UNL     1       4.703   7.105  17.600  0.00  0.00    +0.000 N 
ATOM      6  H   UNL     1       4.994   8.033  17.333  0.00  0.00    +0.000 HD
ENDROOT
BRANCH   3   7
ATOM      7  C   UNL     1       2.623   4.496  18.964  0.00  0.00    +0.000 A 
ATOM      8  C   UNL     1       2.464   4.441  20.354  0.00  0.00    +0.000 A 
ATOM      9  C   UNL     1       1.488   3.617  20.926  0.00  0.00    +0.000 A 
ATOM     10  C   UNL     1       0.649   2.853  20.114  0.00  0.00    +0.000 A 
ATOM     11  C   UNL     1       0.789   2.905  18.731  0.00  0.00    +0.000 A 
ATOM     12  C   UNL     1       1.786   3.701  18.163  0.00  0.00    +0.000 A 
ENDBRANCH   3   7
BRANCH   4  13
ATOM     13  C   UNL     1       2.504   7.765  18.599  0.00  0.00    +0.000 A 
ATOM     14  C   UNL     1       2.046   7.846  19.923  0.00  0.00    +0.000 A 
ATOM     15  C   UNL     1       1.067   8.766  20.300  0.00  0.00    +0.000 A 
ATOM     16  C   UNL     1       0.564   9.662  19.363  0.00  0.00    +0.000 A 
ATOM     17  C   UNL     1       1.022   9.615  18.048  0.00  0.00    +0.000 A 
ATOM     18  C   UNL     1       1.975   8.665  17.664  0.00  0.00    +0.000 A 
ENDBRANCH   4  13
BRANCH   1  19
ATOM     19  S   UNL     1       7.084   6.133  16.871  0.00  0.00    +0.000 S 
BRANCH  19  20
ATOM     20  C   UNL     1       7.980   6.892  18.255  0.00  0.00    +0.000 C 
BRANCH  20  22
ATOM     21  O   UNL     1       7.350   8.998  17.239  0.00  0.00    +0.000 OA
ATOM     22  C   UNL     1       8.017   8.410  18.086  0.00  0.00    +0.000 C 
ATOM     23  N   UNL     1       8.852   9.080  18.964  0.00  0.00    +0.000 N 
ATOM     24  H   UNL     1       9.412   8.541  19.614  0.00  0.00    +0.000 HD
BRANCH  23  25
ATOM     25  C   UNL     1       9.034  10.526  18.928  0.00  0.00    +0.000 C 
BRANCH  25  26
ATOM     26  C   UNL     1      10.481  10.945  18.625  0.00  0.00    +0.000 C 
BRANCH  26  27
ATOM     27  N   UNL     1      10.743  12.338  18.967  0.00  0.00    +0.000 N 
ATOM     28  C   UNL     1      10.646  12.797  20.255  0.00  0.00    +0.000 C 
ATOM     29  O   UNL     1      10.353  12.112  21.232  0.00  0.00    +0.000 OA
ATOM     30  C   UNL     1      10.939  14.269  20.368  0.00  0.00    +0.000 C 
ATOM     31  S   UNL     1      11.254  14.846  18.692  0.00  0.00    +0.000 S 
ATOM     32  C   UNL     1      10.990  13.266  17.995  0.00  0.00    +0.000 C 
ATOM     33  O   UNL     1      11.007  13.070  16.790  0.00  0.00    +0.000 OA
ENDBRANCH  26  27
ENDBRANCH  25  26
ENDBRANCH  23  25
ENDBRANCH  20  22
ENDBRANCH  19  20
ENDBRANCH   1  19
TORSDOF 8
ENDMDL
MODEL 7
REMARK VINA RESULT:      -8.2      1.494      2.049
REMARK  Name = 
REMARK  8 active torsions:
REMARK  status: ('A' for Active; 'I' for Inactive)
REMARK    1  A    between atoms: C_2  and  C_3
REMARK    2  A    between atoms: C_3  and  S_4
REMARK    3  A    between atoms: S_4  and  C_5
REMARK    4  A    between atoms: C_7  and  C_8
REMARK    5  A    between atoms: C_14  and  C_15
REMARK    6  A    between atoms: N_22  and  C_23
REMARK    7  A    between atoms: C_23  and  C_24
REMARK    8  A    between atoms: C_24  and  N_25
REMARK                            x       y       z     vdW  Elec       q    Type
REMARK                         _______ _______ _______ _____ _____    ______ ____
ROOT
ATOM      1  C   UNL     1       4.636   6.144  16.925  0.00  0.00    +0.000 A 
ATOM      2  N   UNL     1       4.241   5.073  17.563  0.00  0.00    +0.000 NA
ATOM      3  C   UNL     1       3.199   5.502  18.377  0.00  0.00    +0.000 A 
ATOM      4  C   UNL     1       2.989   6.876  18.243  0.00  0.00    +0.000 A 
ATOM      5  N   UNL     1       3.892   7.237  17.263  0.00  0.00    +0.000 N 
ATOM      6  H   UNL     1       4.044   8.167  16.904  0.00  0.00    +0.000 HD
ENDROOT
BRANCH   3   7
ATOM      7  C   UNL     1       2.482   4.597  19.271  0.00  0.00    +0.000 A 
ATOM      8  C   UNL     1       2.850   4.511  20.619  0.00  0.00    +0.000 A 
ATOM      9  C   UNL     1       2.153   3.671  21.494  0.00  0.00    +0.000 A 
ATOM     10  C   UNL     1       1.070   2.920  21.036  0.00  0.00    +0.000 A 
ATOM     11  C   UNL     1       0.686   3.002  19.702  0.00  0.00    +0.000 A 
ATOM     12  C   UNL     1       1.405   3.814  18.821  0.00  0.00    +0.000 A 
ENDBRANCH   3   7
BRANCH   4  13
ATOM     13  C   UNL     1       2.133   7.852  18.934  0.00  0.00    +0.000 A 
ATOM     14  C   UNL     1       1.576   8.936  18.237  0.00  0.00    +0.000 A 
ATOM     15  C   UNL     1       0.788   9.889  18.884  0.00  0.00    +0.000 A 
ATOM     16  C   UNL     1       0.497   9.743  20.235  0.00  0.00    +0.000 A 
ATOM     17  C   UNL     1       1.020   8.662  20.941  0.00  0.00    +0.000 A 
ATOM     18  C   UNL     1       1.843   7.729  20.299  0.00  0.00    +0.000 A 
ENDBRANCH   4  13
BRANCH   1  19
ATOM     19  S   UNL     1       5.925   6.320  15.788  0.00  0.00    +0.000 S 
BRANCH  19  20
ATOM     20  C   UNL     1       7.369   5.817  16.766  0.00  0.00    +0.000 C 
BRANCH  20  22
ATOM     21  O   UNL     1       8.025   6.647  18.944  0.00  0.00    +0.000 OA
ATOM     22  C   UNL     1       7.716   6.902  17.783  0.00  0.00    +0.000 C 
ATOM     23  N   UNL     1       7.666   8.200  17.301  0.00  0.00    +0.000 N 
ATOM     24  H   UNL     1       7.362   8.355  16.347  0.00  0.00    +0.000 HD
BRANCH  23  25
ATOM     25  C   UNL     1       7.937   9.362  18.138  0.00  0.00    +0.000 C 
BRANCH  25  26
ATOM     26  C   UNL     1       9.101  10.221  17.622  0.00  0.00    +0.000 C 
BRANCH  26  27
ATOM     27  N   UNL     1       9.117  11.554  18.212  0.00  0.00    +0.000 N 
ATOM     28  C   UNL     1       8.314  12.562  17.747  0.00  0.00    +0.000 C 
ATOM     29  O   UNL     1       7.509  12.458  16.824  0.00  0.00    +0.000 OA
ATOM     30  C   UNL     1       8.515  13.853  18.492  0.00  0.00    +0.000 C 
ATOM     31  S   UNL     1       9.816  13.537  19.696  0.00  0.00    +0.000 S 
ATOM     32  C   UNL     1      10.019  11.879  19.187  0.00  0.00    +0.000 C 
ATOM     33  O   UNL     1      10.883  11.152  19.651  0.00  0.00    +0.000 OA
ENDBRANCH  26  27
ENDBRANCH  25  26
ENDBRANCH  23  25
ENDBRANCH  20  22
ENDBRANCH  19  20
ENDBRANCH   1  19
TORSDOF 8
ENDMDL
MODEL 8
REMARK VINA RESULT:      -8.2      1.568      3.869
REMARK  Name = 
REMARK  8 active torsions:
REMARK  status: ('A' for Active; 'I' for Inactive)
REMARK    1  A    between atoms: C_2  and  C_3
REMARK    2  A    between atoms: C_3  and  S_4
REMARK    3  A    between atoms: S_4  and  C_5
REMARK    4  A    between atoms: C_7  and  C_8
REMARK    5  A    between atoms: C_14  and  C_15
REMARK    6  A    between atoms: N_22  and  C_23
REMARK    7  A    between atoms: C_23  and  C_24
REMARK    8  A    between atoms: C_24  and  N_25
REMARK                            x       y       z     vdW  Elec       q    Type
REMARK                         _______ _______ _______ _____ _____    ______ ____
ROOT
ATOM      1  C   UNL     1       4.489   6.694  17.107  0.00  0.00    +0.000 A 
ATOM      2  N   UNL     1       3.791   7.727  17.504  0.00  0.00    +0.000 NA
ATOM      3  C   UNL     1       2.942   7.232  18.487  0.00  0.00    +0.000 A 
ATOM      4  C   UNL     1       3.117   5.857  18.657  0.00  0.00    +0.000 A 
ATOM      5  N   UNL     1       4.155   5.564  17.795  0.00  0.00    +0.000 N 
ATOM      6  H   UNL     1       4.555   4.654  17.630  0.00  0.00    +0.000 HD
ENDROOT
BRANCH   3   7
ATOM      7  C   UNL     1       1.979   8.079  19.186  0.00  0.00    +0.000 A 
ATOM      8  C   UNL     1       1.324   9.106  18.496  0.00  0.00    +0.000 A 
ATOM      9  C   UNL     1       0.376   9.906  19.145  0.00  0.00    +0.000 A 
ATOM     10  C   UNL     1       0.060   9.676  20.484  0.00  0.00    +0.000 A 
ATOM     11  C   UNL     1       0.696   8.653  21.180  0.00  0.00    +0.000 A 
ATOM     12  C   UNL     1       1.667   7.879  20.541  0.00  0.00    +0.000 A 
ENDBRANCH   3   7
BRANCH   4  13
ATOM     13  C   UNL     1       2.420   4.827  19.442  0.00  0.00    +0.000 A 
ATOM     14  C   UNL     1       1.466   3.991  18.839  0.00  0.00    +0.000 A 
ATOM     15  C   UNL     1       0.773   3.029  19.576  0.00  0.00    +0.000 A 
ATOM     16  C   UNL     1       1.062   2.852  20.924  0.00  0.00    +0.000 A 
ATOM     17  C   UNL     1       2.022   3.654  21.536  0.00  0.00    +0.000 A 
ATOM     18  C   UNL     1       2.687   4.645  20.805  0.00  0.00    +0.000 A 
ENDBRANCH   4  13
BRANCH   1  19
ATOM     19  S   UNL     1       5.697   6.605  15.874  0.00  0.00    +0.000 S 
BRANCH  19  20
ATOM     20  C   UNL     1       7.095   5.861  16.761  0.00  0.00    +0.000 C 
BRANCH  20  22
ATOM     21  O   UNL     1       7.917   6.473  18.955  0.00  0.00    +0.000 OA
ATOM     22  C   UNL     1       7.620   6.830  17.819  0.00  0.00    +0.000 C 
ATOM     23  N   UNL     1       7.746   8.145  17.402  0.00  0.00    +0.000 N 
ATOM     24  H   UNL     1       7.445   8.392  16.466  0.00  0.00    +0.000 HD
BRANCH  23  25
ATOM     25  C   UNL     1       8.203   9.211  18.286  0.00  0.00    +0.000 C 
BRANCH  25  26
ATOM     26  C   UNL     1       9.101  10.239  17.580  0.00  0.00    +0.000 C 
BRANCH  26  27
ATOM     27  N   UNL     1       9.064  11.547  18.222  0.00  0.00    +0.000 N 
ATOM     28  C   UNL     1       8.267  12.560  17.755  0.00  0.00    +0.000 C 
ATOM     29  O   UNL     1       7.512  12.480  16.789  0.00  0.00    +0.000 OA
ATOM     30  C   UNL     1       8.408  13.824  18.559  0.00  0.00    +0.000 C 
ATOM     31  S   UNL     1       9.652  13.481  19.814  0.00  0.00    +0.000 S 
ATOM     32  C   UNL     1       9.909  11.848  19.253  0.00  0.00    +0.000 C 
ATOM     33  O   UNL     1      10.762  11.116  19.731  0.00  0.00    +0.000 OA
ENDBRANCH  26  27
ENDBRANCH  25  26
ENDBRANCH  23  25
ENDBRANCH  20  22
ENDBRANCH  19  20
ENDBRANCH   1  19
TORSDOF 8
ENDMDL
MODEL 9
REMARK VINA RESULT:      -8.0      5.608      9.299
REMARK  Name = 
REMARK  8 active torsions:
REMARK  status: ('A' for Active; 'I' for Inactive)
REMARK    1  A    between atoms: C_2  and  C_3
REMARK    2  A    between atoms: C_3  and  S_4
REMARK    3  A    between atoms: S_4  and  C_5
REMARK    4  A    between atoms: C_7  and  C_8
REMARK    5  A    between atoms: C_14  and  C_15
REMARK    6  A    between atoms: N_22  and  C_23
REMARK    7  A    between atoms: C_23  and  C_24
REMARK    8  A    between atoms: C_24  and  N_25
REMARK                            x       y       z     vdW  Elec       q    Type
REMARK                         _______ _______ _______ _____ _____    ______ ____
ROOT
ATOM      1  C   UNL     1       2.550   8.409  17.897  0.00  0.00    +0.000 A 
ATOM      2  N   UNL     1       3.727   8.026  17.472  0.00  0.00    +0.000 NA
ATOM      3  C   UNL     1       3.789   6.667  17.758  0.00  0.00    +0.000 A 
ATOM      4  C   UNL     1       2.627   6.235  18.401  0.00  0.00    +0.000 A 
ATOM      5  N   UNL     1       1.839   7.369  18.419  0.00  0.00    +0.000 N 
ATOM      6  H   UNL     1       0.918   7.450  18.822  0.00  0.00    +0.000 HD
ENDROOT
BRANCH   3   7
ATOM      7  C   UNL     1       4.962   5.855  17.445  0.00  0.00    +0.000 A 
ATOM      8  C   UNL     1       5.018   5.148  16.238  0.00  0.00    +0.000 A 
ATOM      9  C   UNL     1       6.149   4.391  15.910  0.00  0.00    +0.000 A 
ATOM     10  C   UNL     1       7.241   4.346  16.777  0.00  0.00    +0.000 A 
ATOM     11  C   UNL     1       7.203   5.050  17.976  0.00  0.00    +0.000 A 
ATOM     12  C   UNL     1       6.061   5.777  18.318  0.00  0.00    +0.000 A 
ENDBRANCH   3   7
BRANCH   4  13
ATOM     13  C   UNL     1       2.214   4.970  19.026  0.00  0.00    +0.000 A 
ATOM     14  C   UNL     1       1.587   3.968  18.268  0.00  0.00    +0.000 A 
ATOM     15  C   UNL     1       1.161   2.774  18.852  0.00  0.00    +0.000 A 
ATOM     16  C   UNL     1       1.403   2.539  20.200  0.00  0.00    +0.000 A 
ATOM     17  C   UNL     1       2.045   3.510  20.966  0.00  0.00    +0.000 A 
ATOM     18  C   UNL     1       2.436   4.723  20.387  0.00  0.00    +0.000 A 
ENDBRANCH   4  13
BRANCH   1  19
ATOM     19  S   UNL     1       1.851   9.989  17.885  0.00  0.00    +0.000 S 
BRANCH  19  20
ATOM     20  C   UNL     1       1.196  10.129  19.573  0.00  0.00    +0.000 C 
BRANCH  20  22
ATOM     21  O   UNL     1      -1.011  10.030  20.565  0.00  0.00    +0.000 OA
ATOM     22  C   UNL     1      -0.331  10.111  19.545  0.00  0.00    +0.000 C 
ATOM     23  N   UNL     1      -0.899  10.201  18.285  0.00  0.00    +0.000 N 
ATOM     24  H   UNL     1      -0.290  10.221  17.475  0.00  0.00    +0.000 HD
BRANCH  23  25
ATOM     25  C   UNL     1      -2.340  10.167  18.067  0.00  0.00    +0.000 C 
BRANCH  25  26
ATOM     26  C   UNL     1      -2.948  11.559  17.832  0.00  0.00    +0.000 C 
BRANCH  26  27
ATOM     27  N   UNL     1      -3.899  11.935  18.871  0.00  0.00    +0.000 N 
ATOM     28  C   UNL     1      -3.506  12.588  20.010  0.00  0.00    +0.000 C 
ATOM     29  O   UNL     1      -2.354  12.929  20.270  0.00  0.00    +0.000 OA
ATOM     30  C   UNL     1      -4.651  12.855  20.949  0.00  0.00    +0.000 C 
ATOM     31  S   UNL     1      -6.108  12.131  20.178  0.00  0.00    +0.000 S 
ATOM     32  C   UNL     1      -5.209  11.552  18.797  0.00  0.00    +0.000 C 
ATOM     33  O   UNL     1      -5.720  10.876  17.918  0.00  0.00    +0.000 OA
ENDBRANCH  26  27
ENDBRANCH  25  26
ENDBRANCH  23  25
ENDBRANCH  20  22
ENDBRANCH  19  20
ENDBRANCH   1  19
TORSDOF 8
ENDMDL
