MODEL 1
REMARK VINA RESULT:      -8.2      0.000      0.000
REMARK  Name = 
REMARK  9 active torsions:
REMARK  status: ('A' for Active; 'I' for Inactive)
REMARK    1  A    between atoms: C_1  and  C_2
REMARK    2  A    between atoms: C_2  and  O_3
REMARK    3  A    between atoms: O_3  and  C_4
REMARK    4  A    between atoms: C_7  and  N_8
REMARK    5  A    between atoms: C_9  and  C_11
REMARK    6  A    between atoms: C_11  and  C_12
REMARK    7  A    between atoms: C_11  and  N_19
REMARK    8  A    between atoms: C_12  and  C_13
REMARK    9  A    between atoms: C_20  and  C_22
REMARK                            x       y       z     vdW  Elec       q    Type
REMARK                         _______ _______ _______ _____ _____    ______ ____
ROOT
ATOM      1  C   UNL     1       2.608   7.042  18.444  0.00  0.00    +0.000 C 
ENDROOT
BRANCH   1   3
ATOM      2  N   UNL     1       1.122   8.780  19.409  0.00  0.00    +0.000 N 
ATOM      3  C   UNL     1       1.918   8.428  18.317  0.00  0.00    +0.000 C 
ATOM      4  O   UNL     1       2.141   9.145  17.342  0.00  0.00    +0.000 OA
ATOM      5  H   UNL     1       1.047   8.119  20.171  0.00  0.00    +0.000 HD
BRANCH   2   9
ATOM      6  C   UNL     1      -0.854  12.481  20.034  0.00  0.00    +0.000 A 
ATOM      7  C   UNL     1      -1.372  11.560  19.128  0.00  0.00    +0.000 A 
ATOM      8  C   UNL     1      -0.735  10.336  18.912  0.00  0.00    +0.000 A 
ATOM      9  C   UNL     1       0.440  10.011  19.586  0.00  0.00    +0.000 A 
ATOM     10  C   UNL     1       0.973  10.951  20.480  0.00  0.00    +0.000 A 
ATOM     11  C   UNL     1       0.333  12.185  20.696  0.00  0.00    +0.000 A 
BRANCH   6  12
ATOM     12  O   UNL     1      -1.586  13.625  20.159  0.00  0.00    +0.000 OA
BRANCH  12  14
ATOM     13  C   UNL     1      -2.828  13.452  22.178  0.00  0.00    +0.000 C 
ATOM     14  C   UNL     1      -2.918  13.480  20.661  0.00  0.00    +0.000 C 
ENDBRANCH  12  14
ENDBRANCH   6  12
ENDBRANCH   2   9
ENDBRANCH   1   3
BRANCH   1  15
ATOM     15  N   UNL     1       3.975   7.104  17.903  0.00  0.00    +0.000 N 
ATOM     16  C   UNL     1       4.452   6.072  17.117  0.00  0.00    +0.000 C 
ATOM     17  O   UNL     1       3.861   5.000  17.029  0.00  0.00    +0.000 OA
ATOM     18  H   UNL     1       4.379   8.024  17.776  0.00  0.00    +0.000 HD
BRANCH  16  19
ATOM     19  C   UNL     1       5.798   6.355  16.437  0.00  0.00    +0.000 C 
ATOM     20  C   UNL     1       6.146   5.362  15.316  0.00  0.00    +0.000 C 
ATOM     21  C   UNL     1       6.735   4.045  15.829  0.00  0.00    +0.000 C 
ATOM     22  N   UNL     1       7.844   4.250  16.761  0.00  0.00    +0.000 NA
ATOM     23  C   UNL     1       7.407   5.045  17.908  0.00  0.00    +0.000 C 
ATOM     24  C   UNL     1       6.936   6.428  17.465  0.00  0.00    +0.000 C 
ATOM     25  H   UNL     1       8.610   4.729  16.288  0.00  0.00    +0.000 HD
ENDBRANCH  16  19
ENDBRANCH   1  15
BRANCH   1  26
ATOM     26  C   UNL     1       2.603   6.518  19.897  0.00  0.00    +0.000 C 
BRANCH  26  27
ATOM     27  C   UNL     1       2.111   5.096  20.090  0.00  0.00    +0.000 A 
ATOM     28  C   UNL     1       2.274   4.425  21.312  0.00  0.00    +0.000 A 
ATOM     29  C   UNL     1       1.847   3.105  21.468  0.00  0.00    +0.000 A 
ATOM     30  C   UNL     1       1.219   2.447  20.418  0.00  0.00    +0.000 A 
ATOM     31  C   UNL     1       1.015   3.109  19.210  0.00  0.00    +0.000 A 
ATOM     32  C   UNL     1       1.460   4.424  19.045  0.00  0.00    +0.000 A 
ENDBRANCH  26  27
ENDBRANCH   1  26
TORSDOF 8
ENDMDL
MODEL 2
REMARK VINA RESULT:      -8.1      0.346      1.307
REMARK  Name = 
REMARK  9 active torsions:
REMARK  status: ('A' for Active; 'I' for Inactive)
REMARK    1  A    between atoms: C_1  and  C_2
REMARK    2  A    between atoms: C_2  and  O_3
REMARK    3  A    between atoms: O_3  and  C_4
REMARK    4  A    between atoms: C_7  and  N_8
REMARK    5  A    between atoms: C_9  and  C_11
REMARK    6  A    between atoms: C_11  and  C_12
REMARK    7  A    between atoms: C_11  and  N_19
REMARK    8  A    between atoms: C_12  and  C_13
REMARK    9  A    between atoms: C_20  and  C_22
REMARK                            x       y       z     vdW  Elec       q    Type
REMARK                         _______ _______ _______ _____ _____    ______ ____
ROOT
ATOM      1  C   UNL     1       2.617   7.120  18.368  0.00  0.00    +0.000 C 
ENDROOT
BRANCH   1   3
ATOM      2  N   UNL     1       1.131   8.874  19.303  0.00  0.00    +0.000 N 
ATOM      3  C   UNL     1       1.952   8.518  18.231  0.00  0.00    +0.000 C 
ATOM      4  O   UNL     1       2.215   9.238  17.269  0.00  0.00    +0.000 OA
ATOM      5  H   UNL     1       1.024   8.209  20.057  0.00  0.00    +0.000 HD
BRANCH   2   9
ATOM      6  C   UNL     1      -0.932  12.558  19.707  0.00  0.00    +0.000 A 
ATOM      7  C   UNL     1       0.268  12.356  20.382  0.00  0.00    +0.000 A 
ATOM      8  C   UNL     1       0.961  11.150  20.259  0.00  0.00    +0.000 A 
ATOM      9  C   UNL     1       0.464  10.114  19.469  0.00  0.00    +0.000 A 
ATOM     10  C   UNL     1      -0.758  10.312  18.810  0.00  0.00    +0.000 A 
ATOM     11  C   UNL     1      -1.458  11.526  18.936  0.00  0.00    +0.000 A 
BRANCH   6  12
ATOM     12  O   UNL     1      -1.491  13.786  19.904  0.00  0.00    +0.000 OA
BRANCH  12  14
ATOM     13  C   UNL     1      -2.975  13.657  21.757  0.00  0.00    +0.000 C 
ATOM     14  C   UNL     1      -1.647  14.208  21.262  0.00  0.00    +0.000 C 
ENDBRANCH  12  14
ENDBRANCH   6  12
ENDBRANCH   2   9
ENDBRANCH   1   3
BRANCH   1  15
ATOM     15  N   UNL     1       3.996   7.161  17.855  0.00  0.00    +0.000 N 
ATOM     16  C   UNL     1       4.477   6.116  17.090  0.00  0.00    +0.000 C 
ATOM     17  O   UNL     1       3.876   5.050  16.999  0.00  0.00    +0.000 OA
ATOM     18  H   UNL     1       4.413   8.075  17.728  0.00  0.00    +0.000 HD
BRANCH  16  19
ATOM     19  C   UNL     1       5.840   6.377  16.436  0.00  0.00    +0.000 C 
ATOM     20  C   UNL     1       6.186   5.389  15.310  0.00  0.00    +0.000 C 
ATOM     21  C   UNL     1       6.737   4.054  15.817  0.00  0.00    +0.000 C 
ATOM     22  N   UNL     1       7.835   4.224  16.770  0.00  0.00    +0.000 NA
ATOM     23  C   UNL     1       7.395   5.016  17.919  0.00  0.00    +0.000 C 
ATOM     24  C   UNL     1       6.962   6.414  17.483  0.00  0.00    +0.000 C 
ATOM     25  H   UNL     1       8.618   4.691  16.316  0.00  0.00    +0.000 HD
ENDBRANCH  16  19
ENDBRANCH   1  15
BRANCH   1  26
ATOM     26  C   UNL     1       2.573   6.591  19.818  0.00  0.00    +0.000 C 
BRANCH  26  27
ATOM     27  C   UNL     1       2.092   5.163  19.992  0.00  0.00    +0.000 A 
ATOM     28  C   UNL     1       1.522   4.448  18.928  0.00  0.00    +0.000 A 
ATOM     29  C   UNL     1       1.053   3.145  19.108  0.00  0.00    +0.000 A 
ATOM     30  C   UNL     1       1.181   2.523  20.344  0.00  0.00    +0.000 A 
ATOM     31  C   UNL     1       1.779   3.204  21.402  0.00  0.00    +0.000 A 
ATOM     32  C   UNL     1       2.230   4.515  21.229  0.00  0.00    +0.000 A 
ENDBRANCH  26  27
ENDBRANCH   1  26
TORSDOF 8
ENDMDL
MODEL 3
REMARK VINA RESULT:      -8.1      0.743      1.184
REMARK  Name = 
REMARK  9 active torsions:
REMARK  status: ('A' for Active; 'I' for Inactive)
REMARK    1  A    between atoms: C_1  and  C_2
REMARK    2  A    between atoms: C_2  and  O_3
REMARK    3  A    between atoms: O_3  and  C_4
REMARK    4  A    between atoms: C_7  and  N_8
REMARK    5  A    between atoms: C_9  and  C_11
REMARK    6  A    between atoms: C_11  and  C_12
REMARK    7  A    between atoms: C_11  and  N_19
REMARK    8  A    between atoms: C_12  and  C_13
REMARK    9  A    between atoms: C_20  and  C_22
REMARK                            x       y       z     vdW  Elec       q    Type
REMARK                         _______ _______ _______ _____ _____    ______ ____
ROOT
ATOM      1  C   UNL     1       2.622   7.084  18.419  0.00  0.00    +0.000 C 
ENDROOT
BRANCH   1   3
ATOM      2  N   UNL     1       1.141   8.846  19.347  0.00  0.00    +0.000 N 
ATOM      3  C   UNL     1       1.952   8.478  18.271  0.00  0.00    +0.000 C 
ATOM      4  O   UNL     1       2.203   9.186  17.297  0.00  0.00    +0.000 OA
ATOM      5  H   UNL     1       1.044   8.190  20.111  0.00  0.00    +0.000 HD
BRANCH   2   9
ATOM      6  C   UNL     1      -0.809  12.569  19.920  0.00  0.00    +0.000 A 
ATOM      7  C   UNL     1      -1.235  11.709  18.912  0.00  0.00    +0.000 A 
ATOM      8  C   UNL     1      -0.605  10.479  18.711  0.00  0.00    +0.000 A 
ATOM      9  C   UNL     1       0.472  10.086  19.504  0.00  0.00    +0.000 A 
ATOM     10  C   UNL     1       0.914  10.965  20.503  0.00  0.00    +0.000 A 
ATOM     11  C   UNL     1       0.282  12.206  20.704  0.00  0.00    +0.000 A 
BRANCH   6  12
ATOM     12  O   UNL     1      -1.524  13.726  20.015  0.00  0.00    +0.000 OA
BRANCH  12  14
ATOM     13  C   UNL     1      -0.951  15.737  21.147  0.00  0.00    +0.000 C 
ATOM     14  C   UNL     1      -0.791  14.945  19.859  0.00  0.00    +0.000 C 
ENDBRANCH  12  14
ENDBRANCH   6  12
ENDBRANCH   2   9
ENDBRANCH   1   3
BRANCH   1  15
ATOM     15  N   UNL     1       4.005   7.129  17.917  0.00  0.00    +0.000 N 
ATOM     16  C   UNL     1       4.482   6.107  17.119  0.00  0.00    +0.000 C 
ATOM     17  O   UNL     1       3.871   5.050  16.987  0.00  0.00    +0.000 OA
ATOM     18  H   UNL     1       4.432   8.043  17.825  0.00  0.00    +0.000 HD
BRANCH  16  19
ATOM     19  C   UNL     1       5.852   6.377  16.484  0.00  0.00    +0.000 C 
ATOM     20  C   UNL     1       6.232   5.374  15.382  0.00  0.00    +0.000 C 
ATOM     21  C   UNL     1       6.795   4.057  15.924  0.00  0.00    +0.000 C 
ATOM     22  N   UNL     1       7.873   4.262  16.892  0.00  0.00    +0.000 NA
ATOM     23  C   UNL     1       7.402   5.068  18.018  0.00  0.00    +0.000 C 
ATOM     24  C   UNL     1       6.955   6.451  17.549  0.00  0.00    +0.000 C 
ATOM     25  H   UNL     1       8.657   4.733  16.443  0.00  0.00    +0.000 HD
ENDBRANCH  16  19
ENDBRANCH   1  15
BRANCH   1  26
ATOM     26  C   UNL     1       2.569   6.561  19.872  0.00  0.00    +0.000 C 
BRANCH  26  27
ATOM     27  C   UNL     1       2.096   5.130  20.048  0.00  0.00    +0.000 A 
ATOM     28  C   UNL     1       1.491   4.425  18.997  0.00  0.00    +0.000 A 
ATOM     29  C   UNL     1       1.030   3.120  19.180  0.00  0.00    +0.000 A 
ATOM     30  C   UNL     1       1.199   2.487  20.405  0.00  0.00    +0.000 A 
ATOM     31  C   UNL     1       1.832   3.158  21.448  0.00  0.00    +0.000 A 
ATOM     32  C   UNL     1       2.276   4.472  21.274  0.00  0.00    +0.000 A 
ENDBRANCH  26  27
ENDBRANCH   1  26
TORSDOF 8
ENDMDL
MODEL 4
REMARK VINA RESULT:      -8.1      1.010      1.346
REMARK  Name = 
REMARK  9 active torsions:
REMARK  status: ('A' for Active; 'I' for Inactive)
REMARK    1  A    between atoms: C_1  and  C_2
REMARK    2  A    between atoms: C_2  and  O_3
REMARK    3  A    between atoms: O_3  and  C_4
REMARK    4  A    between atoms: C_7  and  N_8
REMARK    5  A    between atoms: C_9  and  C_11
REMARK    6  A    between atoms: C_11  and  C_12
REMARK    7  A    between atoms: C_11  and  N_19
REMARK    8  A    between atoms: C_12  and  C_13
REMARK    9  A    between atoms: C_20  and  C_22
REMARK                            x       y       z     vdW  Elec       q    Type
REMARK                         _______ _______ _______ _____ _____    ______ ____
ROOT
ATOM      1  C   UNL     1       2.650   7.124  18.348  0.00  0.00    +0.000 C 
ENDROOT
BRANCH   1   3
ATOM      2  N   UNL     1       1.341   9.003  19.301  0.00  0.00    +0.000 N 
ATOM      3  C   UNL     1       1.987   8.517  18.164  0.00  0.00    +0.000 C 
ATOM      4  O   UNL     1       2.109   9.125  17.101  0.00  0.00    +0.000 OA
ATOM      5  H   UNL     1       1.341   8.424  20.130  0.00  0.00    +0.000 HD
BRANCH   2   9
ATOM      6  C   UNL     1      -0.624  12.742  19.693  0.00  0.00    +0.000 A 
ATOM      7  C   UNL     1       0.710  12.696  19.301  0.00  0.00    +0.000 A 
ATOM      8  C   UNL     1       1.371  11.474  19.166  0.00  0.00    +0.000 A 
ATOM      9  C   UNL     1       0.718  10.272  19.431  0.00  0.00    +0.000 A 
ATOM     10  C   UNL     1      -0.619  10.322  19.849  0.00  0.00    +0.000 A 
ATOM     11  C   UNL     1      -1.285  11.554  19.989  0.00  0.00    +0.000 A 
BRANCH   6  12
ATOM     12  O   UNL     1      -1.149  13.999  19.768  0.00  0.00    +0.000 OA
BRANCH  12  14
ATOM     13  C   UNL     1      -0.563  16.180  19.026  0.00  0.00    +0.000 C 
ATOM     14  C   UNL     1      -0.224  15.065  20.002  0.00  0.00    +0.000 C 
ENDBRANCH  12  14
ENDBRANCH   6  12
ENDBRANCH   2   9
ENDBRANCH   1   3
BRANCH   1  15
ATOM     15  N   UNL     1       4.050   7.163  17.893  0.00  0.00    +0.000 N 
ATOM     16  C   UNL     1       4.555   6.128  17.131  0.00  0.00    +0.000 C 
ATOM     17  O   UNL     1       3.951   5.067  16.998  0.00  0.00    +0.000 OA
ATOM     18  H   UNL     1       4.477   8.076  17.799  0.00  0.00    +0.000 HD
BRANCH  16  19
ATOM     19  C   UNL     1       5.946   6.389  16.538  0.00  0.00    +0.000 C 
ATOM     20  C   UNL     1       6.335   5.412  15.417  0.00  0.00    +0.000 C 
ATOM     21  C   UNL     1       6.859   4.069  15.932  0.00  0.00    +0.000 C 
ATOM     22  N   UNL     1       7.916   4.224  16.932  0.00  0.00    +0.000 NA
ATOM     23  C   UNL     1       7.431   5.005  18.070  0.00  0.00    +0.000 C 
ATOM     24  C   UNL     1       7.022   6.410  17.632  0.00  0.00    +0.000 C 
ATOM     25  H   UNL     1       8.719   4.693  16.517  0.00  0.00    +0.000 HD
ENDBRANCH  16  19
ENDBRANCH   1  15
BRANCH   1  26
ATOM     26  C   UNL     1       2.547   6.615  19.803  0.00  0.00    +0.000 C 
BRANCH  26  27
ATOM     27  C   UNL     1       2.067   5.187  19.977  0.00  0.00    +0.000 A 
ATOM     28  C   UNL     1       2.163   4.528  21.212  0.00  0.00    +0.000 A 
ATOM     29  C   UNL     1       1.749   3.202  21.353  0.00  0.00    +0.000 A 
ATOM     30  C   UNL     1       1.198   2.526  20.271  0.00  0.00    +0.000 A 
ATOM     31  C   UNL     1       1.060   3.176  19.047  0.00  0.00    +0.000 A 
ATOM     32  C   UNL     1       1.493   4.497  18.899  0.00  0.00    +0.000 A 
ENDBRANCH  26  27
ENDBRANCH   1  26
TORSDOF 8
ENDMDL
MODEL 5
REMARK VINA RESULT:      -8.0      1.571      4.077
REMARK  Name = 
REMARK  9 active torsions:
REMARK  status: ('A' for Active; 'I' for Inactive)
REMARK    1  A    between atoms: C_1  and  C_2
REMARK    2  A    between atoms: C_2  and  O_3
REMARK    3  A    between atoms: O_3  and  C_4
REMARK    4  A    between atoms: C_7  and  N_8
REMARK    5  A    between atoms: C_9  and  C_11
REMARK    6  A    between atoms: C_11  and  C_12
REMARK    7  A    between atoms: C_11  and  N_19
REMARK    8  A    between atoms: C_12  and  C_13
REMARK    9  A    between atoms: C_20  and  C_22
REMARK                            x       y       z     vdW  Elec       q    Type
REMARK                         _______ _______ _______ _____ _____    ______ ____
ROOT
ATOM      1  C   UNL     1       3.120   7.477  18.171  0.00  0.00    +0.000 C 
ENDROOT
BRANCH   1   3
ATOM      2  N   UNL     1       1.429   8.855  19.355  0.00  0.00    +0.000 N 
ATOM      3  C   UNL     1       2.167   8.705  18.179  0.00  0.00    +0.000 C 
ATOM      4  O   UNL     1       2.153   9.484  17.227  0.00  0.00    +0.000 OA
ATOM      5  H   UNL     1       1.556   8.166  20.084  0.00  0.00    +0.000 HD
BRANCH   2   9
ATOM      6  C   UNL     1      -1.170  12.053  20.361  0.00  0.00    +0.000 A 
ATOM      7  C   UNL     1      -1.441  11.261  19.249  0.00  0.00    +0.000 A 
ATOM      8  C   UNL     1      -0.597  10.203  18.905  0.00  0.00    +0.000 A 
ATOM      9  C   UNL     1       0.544   9.922  19.655  0.00  0.00    +0.000 A 
ATOM     10  C   UNL     1       0.827  10.737  20.761  0.00  0.00    +0.000 A 
ATOM     11  C   UNL     1      -0.021  11.805  21.106  0.00  0.00    +0.000 A 
BRANCH   6  12
ATOM     12  O   UNL     1      -2.085  13.038  20.590  0.00  0.00    +0.000 OA
BRANCH  12  14
ATOM     13  C   UNL     1      -4.067  12.747  21.870  0.00  0.00    +0.000 C 
ATOM     14  C   UNL     1      -3.463  12.670  20.477  0.00  0.00    +0.000 C 
ENDBRANCH  12  14
ENDBRANCH   6  12
ENDBRANCH   2   9
ENDBRANCH   1   3
BRANCH   1  15
ATOM     15  N   UNL     1       2.344   6.231  18.275  0.00  0.00    +0.000 N 
ATOM     16  C   UNL     1       2.602   5.344  19.302  0.00  0.00    +0.000 C 
ATOM     17  O   UNL     1       3.601   5.444  20.008  0.00  0.00    +0.000 OA
ATOM     18  H   UNL     1       1.417   6.230  17.868  0.00  0.00    +0.000 HD
BRANCH  16  19
ATOM     19  C   UNL     1       1.587   4.201  19.431  0.00  0.00    +0.000 C 
ATOM     20  C   UNL     1       1.994   3.123  20.449  0.00  0.00    +0.000 C 
ATOM     21  C   UNL     1       2.996   2.107  19.895  0.00  0.00    +0.000 C 
ATOM     22  N   UNL     1       2.571   1.538  18.616  0.00  0.00    +0.000 NA
ATOM     23  C   UNL     1       2.380   2.596  17.624  0.00  0.00    +0.000 C 
ATOM     24  C   UNL     1       1.287   3.566  18.066  0.00  0.00    +0.000 C 
ATOM     25  H   UNL     1       1.698   1.026  18.737  0.00  0.00    +0.000 HD
ENDBRANCH  16  19
ENDBRANCH   1  15
BRANCH   1  26
ATOM     26  C   UNL     1       4.042   7.462  16.931  0.00  0.00    +0.000 C 
BRANCH  26  27
ATOM     27  C   UNL     1       5.167   6.445  16.951  0.00  0.00    +0.000 A 
ATOM     28  C   UNL     1       6.358   6.684  17.653  0.00  0.00    +0.000 A 
ATOM     29  C   UNL     1       7.400   5.755  17.637  0.00  0.00    +0.000 A 
ATOM     30  C   UNL     1       7.254   4.557  16.949  0.00  0.00    +0.000 A 
ATOM     31  C   UNL     1       6.065   4.285  16.278  0.00  0.00    +0.000 A 
ATOM     32  C   UNL     1       5.028   5.223  16.275  0.00  0.00    +0.000 A 
ENDBRANCH  26  27
ENDBRANCH   1  26
TORSDOF 8
ENDMDL
MODEL 6
REMARK VINA RESULT:      -7.8      1.640      4.270
REMARK  Name = 
REMARK  9 active torsions:
REMARK  status: ('A' for Active; 'I' for Inactive)
REMARK    1  A    between atoms: C_1  and  C_2
REMARK    2  A    between atoms: C_2  and  O_3
REMARK    3  A    between atoms: O_3  and  C_4
REMARK    4  A    between atoms: C_7  and  N_8
REMARK    5  A    between atoms: C_9  and  C_11
REMARK    6  A    between atoms: C_11  and  C_12
REMARK    7  A    between atoms: C_11  and  N_19
REMARK    8  A    between atoms: C_12  and  C_13
REMARK    9  A    between atoms: C_20  and  C_22
REMARK                            x       y       z     vdW  Elec       q    Type
REMARK                         _______ _______ _______ _____ _____    ______ ____
ROOT
ATOM      1  C   UNL     1       3.165   7.402  18.160  0.00  0.00    +0.000 C 
ENDROOT
BRANCH   1   3
ATOM      2  N   UNL     1       1.519   8.669  19.517  0.00  0.00    +0.000 N 
ATOM      3  C   UNL     1       2.157   8.579  18.278  0.00  0.00    +0.000 C 
ATOM      4  O   UNL     1       2.021   9.374  17.350  0.00  0.00    +0.000 OA
ATOM      5  H   UNL     1       1.743   7.975  20.216  0.00  0.00    +0.000 HD
BRANCH   2   9
ATOM      6  C   UNL     1      -1.224  11.718  20.603  0.00  0.00    +0.000 A 
ATOM      7  C   UNL     1      -0.266  11.287  21.516  0.00  0.00    +0.000 A 
ATOM      8  C   UNL     1       0.646  10.286  21.174  0.00  0.00    +0.000 A 
ATOM      9  C   UNL     1       0.612   9.684  19.918  0.00  0.00    +0.000 A 
ATOM     10  C   UNL     1      -0.370  10.103  19.008  0.00  0.00    +0.000 A 
ATOM     11  C   UNL     1      -1.291  11.109  19.354  0.00  0.00    +0.000 A 
BRANCH   6  12
ATOM     12  O   UNL     1      -2.037  12.712  21.063  0.00  0.00    +0.000 OA
BRANCH  12  14
ATOM     13  C   UNL     1      -3.278  12.513  23.080  0.00  0.00    +0.000 C 
ATOM     14  C   UNL     1      -1.974  12.993  22.464  0.00  0.00    +0.000 C 
ENDBRANCH  12  14
ENDBRANCH   6  12
ENDBRANCH   2   9
ENDBRANCH   1   3
BRANCH   1  15
ATOM     15  N   UNL     1       2.468   6.117  18.332  0.00  0.00    +0.000 N 
ATOM     16  C   UNL     1       2.860   5.251  19.335  0.00  0.00    +0.000 C 
ATOM     17  O   UNL     1       3.909   5.408  19.953  0.00  0.00    +0.000 OA
ATOM     18  H   UNL     1       1.511   6.065  18.006  0.00  0.00    +0.000 HD
BRANCH  16  19
ATOM     19  C   UNL     1       1.922   4.057  19.552  0.00  0.00    +0.000 C 
ATOM     20  C   UNL     1       2.534   2.935  20.406  0.00  0.00    +0.000 C 
ATOM     21  C   UNL     1       3.460   2.004  19.617  0.00  0.00    +0.000 C 
ATOM     22  N   UNL     1       2.841   1.500  18.391  0.00  0.00    +0.000 NA
ATOM     23  C   UNL     1       2.446   2.611  17.525  0.00  0.00    +0.000 C 
ATOM     24  C   UNL     1       1.412   3.499  18.215  0.00  0.00    +0.000 C 
ATOM     25  H   UNL     1       2.020   0.942  18.622  0.00  0.00    +0.000 HD
ENDBRANCH  16  19
ENDBRANCH   1  15
BRANCH   1  26
ATOM     26  C   UNL     1       3.952   7.439  16.831  0.00  0.00    +0.000 C 
BRANCH  26  27
ATOM     27  C   UNL     1       5.119   6.476  16.721  0.00  0.00    +0.000 A 
ATOM     28  C   UNL     1       5.113   5.423  15.793  0.00  0.00    +0.000 A 
ATOM     29  C   UNL     1       6.177   4.523  15.723  0.00  0.00    +0.000 A 
ATOM     30  C   UNL     1       7.280   4.681  16.553  0.00  0.00    +0.000 A 
ATOM     31  C   UNL     1       7.320   5.742  17.454  0.00  0.00    +0.000 A 
ATOM     32  C   UNL     1       6.246   6.633  17.540  0.00  0.00    +0.000 A 
ENDBRANCH  26  27
ENDBRANCH   1  26
TORSDOF 8
ENDMDL
MODEL 7
REMARK VINA RESULT:      -7.8      2.275      5.847
REMARK  Name = 
REMARK  9 active torsions:
REMARK  status: ('A' for Active; 'I' for Inactive)
REMARK    1  A    between atoms: C_1  and  C_2
REMARK    2  A    between atoms: C_2  and  O_3
REMARK    3  A    between atoms: O_3  and  C_4
REMARK    4  A    between atoms: C_7  and  N_8
REMARK    5  A    between atoms: C_9  and  C_11
REMARK    6  A    between atoms: C_11  and  C_12
REMARK    7  A    between atoms: C_11  and  N_19
REMARK    8  A    between atoms: C_12  and  C_13
REMARK    9  A    between atoms: C_20  and  C_22
REMARK                            x       y       z     vdW  Elec       q    Type
REMARK                         _______ _______ _______ _____ _____    ______ ____
ROOT
ATOM      1  C   UNL     1       4.724   4.309  16.885  0.00  0.00    +0.000 C 
ENDROOT
BRANCH   1   3
ATOM      2  N   UNL     1       3.032   5.864  17.820  0.00  0.00    +0.000 N 
ATOM      3  C   UNL     1       4.371   5.709  17.458  0.00  0.00    +0.000 C 
ATOM      4  O   UNL     1       5.252   6.553  17.618  0.00  0.00    +0.000 OA
ATOM      5  H   UNL     1       2.409   5.081  17.673  0.00  0.00    +0.000 HD
BRANCH   2   9
ATOM      6  C   UNL     1       1.341   9.348  19.551  0.00  0.00    +0.000 A 
ATOM      7  C   UNL     1       1.625   8.243  20.348  0.00  0.00    +0.000 A 
ATOM      8  C   UNL     1       2.183   7.089  19.795  0.00  0.00    +0.000 A 
ATOM      9  C   UNL     1       2.458   7.008  18.431  0.00  0.00    +0.000 A 
ATOM     10  C   UNL     1       2.148   8.114  17.626  0.00  0.00    +0.000 A 
ATOM     11  C   UNL     1       1.583   9.276  18.183  0.00  0.00    +0.000 A 
BRANCH   6  12
ATOM     12  O   UNL     1       0.815  10.411  20.225  0.00  0.00    +0.000 OA
BRANCH  12  14
ATOM     13  C   UNL     1      -0.611  12.073  19.301  0.00  0.00    +0.000 C 
ATOM     14  C   UNL     1      -0.561  10.710  19.973  0.00  0.00    +0.000 C 
ENDBRANCH  12  14
ENDBRANCH   6  12
ENDBRANCH   2   9
ENDBRANCH   1   3
BRANCH   1  15
ATOM     15  N   UNL     1       4.055   3.257  17.666  0.00  0.00    +0.000 N 
ATOM     16  C   UNL     1       4.311   3.135  19.019  0.00  0.00    +0.000 C 
ATOM     17  O   UNL     1       5.241   3.729  19.557  0.00  0.00    +0.000 OA
ATOM     18  H   UNL     1       3.165   2.921  17.319  0.00  0.00    +0.000 HD
BRANCH  16  19
ATOM     19  C   UNL     1       3.393   2.154  19.759  0.00  0.00    +0.000 C 
ATOM     20  C   UNL     1       2.056   1.898  19.044  0.00  0.00    +0.000 C 
ATOM     21  C   UNL     1       1.012   2.990  19.294  0.00  0.00    +0.000 C 
ATOM     22  N   UNL     1       0.839   3.289  20.716  0.00  0.00    +0.000 NA
ATOM     23  C   UNL     1       2.109   3.712  21.306  0.00  0.00    +0.000 C 
ATOM     24  C   UNL     1       3.153   2.601  21.207  0.00  0.00    +0.000 C 
ATOM     25  H   UNL     1       0.497   2.462  21.204  0.00  0.00    +0.000 HD
ENDBRANCH  16  19
ENDBRANCH   1  15
BRANCH   1  26
ATOM     26  C   UNL     1       4.388   4.191  15.381  0.00  0.00    +0.000 C 
BRANCH  26  27
ATOM     27  C   UNL     1       5.554   4.346  14.424  0.00  0.00    +0.000 A 
ATOM     28  C   UNL     1       6.690   5.094  14.769  0.00  0.00    +0.000 A 
ATOM     29  C   UNL     1       7.743   5.257  13.867  0.00  0.00    +0.000 A 
ATOM     30  C   UNL     1       7.694   4.645  12.621  0.00  0.00    +0.000 A 
ATOM     31  C   UNL     1       6.592   3.867  12.275  0.00  0.00    +0.000 A 
ATOM     32  C   UNL     1       5.527   3.719  13.169  0.00  0.00    +0.000 A 
ENDBRANCH  26  27
ENDBRANCH   1  26
TORSDOF 8
ENDMDL
MODEL 8
REMARK VINA RESULT:      -7.8      2.314      5.905
REMARK  Name = 
REMARK  9 active torsions:
REMARK  status: ('A' for Active; 'I' for Inactive)
REMARK    1  A    between atoms: C_1  and  C_2
REMARK    2  A    between atoms: C_2  and  O_3
REMARK    3  A    between atoms: O_3  and  C_4
REMARK    4  A    between atoms: C_7  and  N_8
REMARK    5  A    between atoms: C_9  and  C_11
REMARK    6  A    between atoms: C_11  and  C_12
REMARK    7  A    between atoms: C_11  and  N_19
REMARK    8  A    between atoms: C_12  and  C_13
REMARK    9  A    between atoms: C_20  and  C_22
REMARK                            x       y       z     vdW  Elec       q    Type
REMARK                         _______ _______ _______ _____ _____    ______ ____
ROOT
ATOM      1  C   UNL     1       4.702   4.296  16.882  0.00  0.00    +0.000 C 
ENDROOT
BRANCH   1   3
ATOM      2  N   UNL     1       3.029   5.845  17.861  0.00  0.00    +0.000 N 
ATOM      3  C   UNL     1       4.354   5.701  17.446  0.00  0.00    +0.000 C 
ATOM      4  O   UNL     1       5.230   6.559  17.555  0.00  0.00    +0.000 OA
ATOM      5  H   UNL     1       2.411   5.052  17.754  0.00  0.00    +0.000 HD
BRANCH   2   9
ATOM      6  C   UNL     1       1.370   9.338  19.606  0.00  0.00    +0.000 A 
ATOM      7  C   UNL     1       1.645   8.228  20.399  0.00  0.00    +0.000 A 
ATOM      8  C   UNL     1       2.193   7.071  19.841  0.00  0.00    +0.000 A 
ATOM      9  C   UNL     1       2.465   6.992  18.477  0.00  0.00    +0.000 A 
ATOM     10  C   UNL     1       2.165   8.104  17.676  0.00  0.00    +0.000 A 
ATOM     11  C   UNL     1       1.610   9.268  18.236  0.00  0.00    +0.000 A 
BRANCH   6  12
ATOM     12  O   UNL     1       0.854  10.403  20.283  0.00  0.00    +0.000 OA
BRANCH  12  14
ATOM     13  C   UNL     1      -0.414  10.445  22.293  0.00  0.00    +0.000 C 
ATOM     14  C   UNL     1      -0.478  10.257  20.786  0.00  0.00    +0.000 C 
ENDBRANCH  12  14
ENDBRANCH   6  12
ENDBRANCH   2   9
ENDBRANCH   1   3
BRANCH   1  15
ATOM     15  N   UNL     1       4.044   3.250  17.683  0.00  0.00    +0.000 N 
ATOM     16  C   UNL     1       4.277   3.176  19.042  0.00  0.00    +0.000 C 
ATOM     17  O   UNL     1       5.181   3.810  19.580  0.00  0.00    +0.000 OA
ATOM     18  H   UNL     1       3.171   2.881  17.329  0.00  0.00    +0.000 HD
BRANCH  16  19
ATOM     19  C   UNL     1       3.370   2.194  19.794  0.00  0.00    +0.000 C 
ATOM     20  C   UNL     1       2.063   1.867  19.053  0.00  0.00    +0.000 C 
ATOM     21  C   UNL     1       0.977   2.933  19.231  0.00  0.00    +0.000 C 
ATOM     22  N   UNL     1       0.754   3.279  20.635  0.00  0.00    +0.000 NA
ATOM     23  C   UNL     1       1.992   3.766  21.244  0.00  0.00    +0.000 C 
ATOM     24  C   UNL     1       3.073   2.687  21.217  0.00  0.00    +0.000 C 
ATOM     25  H   UNL     1       0.424   2.461  21.146  0.00  0.00    +0.000 HD
ENDBRANCH  16  19
ENDBRANCH   1  15
BRANCH   1  26
ATOM     26  C   UNL     1       4.348   4.163  15.385  0.00  0.00    +0.000 C 
BRANCH  26  27
ATOM     27  C   UNL     1       5.499   4.324  14.410  0.00  0.00    +0.000 A 
ATOM     28  C   UNL     1       5.492   3.693  13.158  0.00  0.00    +0.000 A 
ATOM     29  C   UNL     1       6.572   3.822  12.282  0.00  0.00    +0.000 A 
ATOM     30  C   UNL     1       7.659   4.614  12.630  0.00  0.00    +0.000 A 
ATOM     31  C   UNL     1       7.667   5.279  13.853  0.00  0.00    +0.000 A 
ATOM     32  C   UNL     1       6.596   5.135  14.740  0.00  0.00    +0.000 A 
ENDBRANCH  26  27
ENDBRANCH   1  26
TORSDOF 8
ENDMDL
MODEL 9
REMARK VINA RESULT:      -7.8      2.040      4.458
REMARK  Name = 
REMARK  9 active torsions:
REMARK  status: ('A' for Active; 'I' for Inactive)
REMARK    1  A    between atoms: C_1  and  C_2
REMARK    2  A    between atoms: C_2  and  O_3
REMARK    3  A    between atoms: O_3  and  C_4
REMARK    4  A    between atoms: C_7  and  N_8
REMARK    5  A    between atoms: C_9  and  C_11
REMARK    6  A    between atoms: C_11  and  C_12
REMARK    7  A    between atoms: C_11  and  N_19
REMARK    8  A    between atoms: C_12  and  C_13
REMARK    9  A    between atoms: C_20  and  C_22
REMARK                            x       y       z     vdW  Elec       q    Type
REMARK                         _______ _______ _______ _____ _____    ______ ____
ROOT
ATOM      1  C   UNL     1       2.954   7.137  18.966  0.00  0.00    +0.000 C 
ENDROOT
BRANCH   1   3
ATOM      2  N   UNL     1       1.725   8.423  20.697  0.00  0.00    +0.000 N 
ATOM      3  C   UNL     1       1.945   8.262  19.327  0.00  0.00    +0.000 C 
ATOM      4  O   UNL     1       1.460   8.966  18.443  0.00  0.00    +0.000 OA
ATOM      5  H   UNL     1       2.214   7.804  21.330  0.00  0.00    +0.000 HD
BRANCH   2   9
ATOM      6  C   UNL     1      -0.761  11.308  22.564  0.00  0.00    +0.000 A 
ATOM      7  C   UNL     1       0.026  11.669  21.475  0.00  0.00    +0.000 A 
ATOM      8  C   UNL     1       0.849  10.732  20.847  0.00  0.00    +0.000 A 
ATOM      9  C   UNL     1       0.913   9.416  21.302  0.00  0.00    +0.000 A 
ATOM     10  C   UNL     1       0.137   9.061  22.415  0.00  0.00    +0.000 A 
ATOM     11  C   UNL     1      -0.690  10.006  23.050  0.00  0.00    +0.000 A 
BRANCH   6  12
ATOM     12  O   UNL     1      -1.528  12.318  23.067  0.00  0.00    +0.000 OA
BRANCH  12  14
ATOM     13  C   UNL     1      -3.806  12.962  22.851  0.00  0.00    +0.000 C 
ATOM     14  C   UNL     1      -2.850  11.968  23.489  0.00  0.00    +0.000 C 
ENDBRANCH  12  14
ENDBRANCH   6  12
ENDBRANCH   2   9
ENDBRANCH   1   3
BRANCH   1  15
ATOM     15  N   UNL     1       2.407   5.824  19.342  0.00  0.00    +0.000 N 
ATOM     16  C   UNL     1       3.208   4.904  19.991  0.00  0.00    +0.000 C 
ATOM     17  O   UNL     1       4.424   5.050  20.075  0.00  0.00    +0.000 OA
ATOM     18  H   UNL     1       1.406   5.765  19.483  0.00  0.00    +0.000 HD
BRANCH  16  19
ATOM     19  C   UNL     1       2.466   3.671  20.522  0.00  0.00    +0.000 C 
ATOM     20  C   UNL     1       3.254   2.359  20.367  0.00  0.00    +0.000 C 
ATOM     21  C   UNL     1       3.160   1.753  18.964  0.00  0.00    +0.000 C 
ATOM     22  N   UNL     1       1.779   1.637  18.493  0.00  0.00    +0.000 NA
ATOM     23  C   UNL     1       1.132   2.949  18.480  0.00  0.00    +0.000 C 
ATOM     24  C   UNL     1       1.075   3.542  19.887  0.00  0.00    +0.000 C 
ATOM     25  H   UNL     1       1.257   1.008  19.101  0.00  0.00    +0.000 HD
ENDBRANCH  16  19
ENDBRANCH   1  15
BRANCH   1  26
ATOM     26  C   UNL     1       3.359   7.171  17.476  0.00  0.00    +0.000 C 
BRANCH  26  27
ATOM     27  C   UNL     1       4.621   6.413  17.110  0.00  0.00    +0.000 A 
ATOM     28  C   UNL     1       4.567   5.126  16.554  0.00  0.00    +0.000 A 
ATOM     29  C   UNL     1       5.735   4.425  16.252  0.00  0.00    +0.000 A 
ATOM     30  C   UNL     1       6.976   5.013  16.467  0.00  0.00    +0.000 A 
ATOM     31  C   UNL     1       7.049   6.304  16.982  0.00  0.00    +0.000 A 
ATOM     32  C   UNL     1       5.880   7.000  17.305  0.00  0.00    +0.000 A 
ENDBRANCH  26  27
ENDBRANCH   1  26
TORSDOF 8
ENDMDL
