MODEL 1
REMARK VINA RESULT:      -9.1      0.000      0.000
REMARK  Name = 
REMARK  2 active torsions:
REMARK  status: ('A' for Active; 'I' for Inactive)
REMARK    1  A    between atoms: C_9  and  C_10
REMARK    2  A    between atoms: N_17  and  C_18
REMARK                            x       y       z     vdW  Elec       q    Type
REMARK                         _______ _______ _______ _____ _____    ______ ____
ROOT
ATOM      1  F   UNL     1       0.819   2.517  20.526  0.00  0.00    +0.000 F 
ATOM      2  C   UNL     1       1.648   3.195  19.722  0.00  0.00    +0.000 A 
ATOM      3  C   UNL     1       2.575   2.512  18.961  0.00  0.00    +0.000 A 
ATOM      4  F   UNL     1       2.644   1.176  19.028  0.00  0.00    +0.000 F 
ATOM      5  C   UNL     1       3.456   3.204  18.142  0.00  0.00    +0.000 A 
ATOM      6  F   UNL     1       4.403   2.504  17.509  0.00  0.00    +0.000 F 
ATOM      7  C   UNL     1       3.358   4.604  18.042  0.00  0.00    +0.000 A 
ATOM      8  C   UNL     1       2.452   5.318  18.835  0.00  0.00    +0.000 A 
ATOM      9  C   UNL     1       2.716   6.699  18.559  0.00  0.00    +0.000 A 
ATOM     10  N   UNL     1       3.760   6.818  17.720  0.00  0.00    +0.000 NA
ATOM     11  N   UNL     1       4.069   5.555  17.322  0.00  0.00    +0.000 N 
ATOM     12  C   UNL     1       1.598   4.586  19.686  0.00  0.00    +0.000 A 
ATOM     13  F   UNL     1       0.745   5.203  20.517  0.00  0.00    +0.000 F 
ENDROOT
BRANCH   9  14
ATOM     14  C   UNL     1       2.040   7.885  19.117  0.00  0.00    +0.000 A 
ATOM     15  C   UNL     1       1.753   7.974  20.490  0.00  0.00    +0.000 A 
ATOM     16  C   UNL     1       1.063   9.077  21.011  0.00  0.00    +0.000 A 
ATOM     17  C   UNL     1       0.645  10.107  20.169  0.00  0.00    +0.000 A 
ATOM     18  C   UNL     1       0.945  10.049  18.815  0.00  0.00    +0.000 A 
ATOM     19  C   UNL     1       1.656   8.959  18.300  0.00  0.00    +0.000 A 
ENDBRANCH   9  14
BRANCH  11  20
ATOM     20  C   UNL     1       5.075   5.322  16.337  0.00  0.00    +0.000 A 
ATOM     21  C   UNL     1       6.414   5.621  16.614  0.00  0.00    +0.000 A 
ATOM     22  C   UNL     1       7.415   5.192  15.734  0.00  0.00    +0.000 A 
ATOM     23  C   UNL     1       7.085   4.497  14.568  0.00  0.00    +0.000 A 
ATOM     24  C   UNL     1       5.749   4.288  14.244  0.00  0.00    +0.000 A 
ATOM     25  C   UNL     1       4.750   4.724  15.112  0.00  0.00    +0.000 A 
ENDBRANCH  11  20
TORSDOF 2
ENDMDL
MODEL 2
REMARK VINA RESULT:      -9.0      0.294      1.009
REMARK  Name = 
REMARK  2 active torsions:
REMARK  status: ('A' for Active; 'I' for Inactive)
REMARK    1  A    between atoms: C_9  and  C_10
REMARK    2  A    between atoms: N_17  and  C_18
REMARK                            x       y       z     vdW  Elec       q    Type
REMARK                         _______ _______ _______ _____ _____    ______ ____
ROOT
ATOM      1  F   UNL     1       0.691   2.723  20.861  0.00  0.00    +0.000 F 
ATOM      2  C   UNL     1       1.551   3.306  20.015  0.00  0.00    +0.000 A 
ATOM      3  C   UNL     1       2.476   2.538  19.339  0.00  0.00    +0.000 A 
ATOM      4  F   UNL     1       2.513   1.212  19.529  0.00  0.00    +0.000 F 
ATOM      5  C   UNL     1       3.388   3.133  18.478  0.00  0.00    +0.000 A 
ATOM      6  F   UNL     1       4.331   2.358  17.932  0.00  0.00    +0.000 F 
ATOM      7  C   UNL     1       3.323   4.520  18.249  0.00  0.00    +0.000 A 
ATOM      8  C   UNL     1       2.419   5.323  18.955  0.00  0.00    +0.000 A 
ATOM      9  C   UNL     1       2.719   6.666  18.560  0.00  0.00    +0.000 A 
ATOM     10  N   UNL     1       3.782   6.687  17.735  0.00  0.00    +0.000 NA
ATOM     11  N   UNL     1       4.069   5.386  17.461  0.00  0.00    +0.000 N 
ATOM     12  C   UNL     1       1.533   4.689  19.851  0.00  0.00    +0.000 A 
ATOM     13  F   UNL     1       0.679   5.397  20.605  0.00  0.00    +0.000 F 
ENDROOT
BRANCH   9  14
ATOM     14  C   UNL     1       2.061   7.913  18.993  0.00  0.00    +0.000 A 
ATOM     15  C   UNL     1       1.723   8.120  20.341  0.00  0.00    +0.000 A 
ATOM     16  C   UNL     1       1.048   9.281  20.743  0.00  0.00    +0.000 A 
ATOM     17  C   UNL     1       0.697  10.251  19.806  0.00  0.00    +0.000 A 
ATOM     18  C   UNL     1       1.048  10.075  18.475  0.00  0.00    +0.000 A 
ATOM     19  C   UNL     1       1.743   8.928  18.078  0.00  0.00    +0.000 A 
ENDBRANCH   9  14
BRANCH  11  20
ATOM     20  C   UNL     1       5.088   5.042  16.522  0.00  0.00    +0.000 A 
ATOM     21  C   UNL     1       4.749   4.442  15.304  0.00  0.00    +0.000 A 
ATOM     22  C   UNL     1       5.720   4.307  14.305  0.00  0.00    +0.000 A 
ATOM     23  C   UNL     1       7.031   4.737  14.527  0.00  0.00    +0.000 A 
ATOM     24  C   UNL     1       7.390   5.241  15.771  0.00  0.00    +0.000 A 
ATOM     25  C   UNL     1       6.429   5.367  16.772  0.00  0.00    +0.000 A 
ENDBRANCH  11  20
TORSDOF 2
ENDMDL
MODEL 3
REMARK VINA RESULT:      -8.9      0.485      1.076
REMARK  Name = 
REMARK  2 active torsions:
REMARK  status: ('A' for Active; 'I' for Inactive)
REMARK    1  A    between atoms: C_9  and  C_10
REMARK    2  A    between atoms: N_17  and  C_18
REMARK                            x       y       z     vdW  Elec       q    Type
REMARK                         _______ _______ _______ _____ _____    ______ ____
ROOT
ATOM      1  F   UNL     1       0.711   2.729  20.909  0.00  0.00    +0.000 F 
ATOM      2  C   UNL     1       1.572   3.384  20.120  0.00  0.00    +0.000 A 
ATOM      3  C   UNL     1       2.554   2.684  19.450  0.00  0.00    +0.000 A 
ATOM      4  F   UNL     1       2.645   1.355  19.589  0.00  0.00    +0.000 F 
ATOM      5  C   UNL     1       3.469   3.354  18.647  0.00  0.00    +0.000 A 
ATOM      6  F   UNL     1       4.464   2.644  18.107  0.00  0.00    +0.000 F 
ATOM      7  C   UNL     1       3.349   4.744  18.469  0.00  0.00    +0.000 A 
ATOM      8  C   UNL     1       2.385   5.477  19.171  0.00  0.00    +0.000 A 
ATOM      9  C   UNL     1       2.637   6.847  18.839  0.00  0.00    +0.000 A 
ATOM     10  N   UNL     1       3.726   6.948  18.056  0.00  0.00    +0.000 NA
ATOM     11  N   UNL     1       4.082   5.673  17.743  0.00  0.00    +0.000 N 
ATOM     12  C   UNL     1       1.497   4.770  20.008  0.00  0.00    +0.000 A 
ATOM     13  F   UNL     1       0.586   5.409  20.757  0.00  0.00    +0.000 F 
ENDROOT
BRANCH   9  14
ATOM     14  C   UNL     1       1.907   8.045  19.295  0.00  0.00    +0.000 A 
ATOM     15  C   UNL     1       1.547   9.059  18.393  0.00  0.00    +0.000 A 
ATOM     16  C   UNL     1       0.901  10.222  18.837  0.00  0.00    +0.000 A 
ATOM     17  C   UNL     1       0.609  10.391  20.189  0.00  0.00    +0.000 A 
ATOM     18  C   UNL     1       0.934   9.387  21.091  0.00  0.00    +0.000 A 
ATOM     19  C   UNL     1       1.555   8.216  20.643  0.00  0.00    +0.000 A 
ENDBRANCH   9  14
BRANCH  11  20
ATOM     20  C   UNL     1       5.148   5.413  16.830  0.00  0.00    +0.000 A 
ATOM     21  C   UNL     1       6.450   5.220  17.306  0.00  0.00    +0.000 A 
ATOM     22  C   UNL     1       7.443   4.755  16.435  0.00  0.00    +0.000 A 
ATOM     23  C   UNL     1       7.151   4.512  15.091  0.00  0.00    +0.000 A 
ATOM     24  C   UNL     1       5.883   4.798  14.597  0.00  0.00    +0.000 A 
ATOM     25  C   UNL     1       4.896   5.273  15.458  0.00  0.00    +0.000 A 
ENDBRANCH  11  20
TORSDOF 2
ENDMDL
MODEL 4
REMARK VINA RESULT:      -8.8      0.975      1.666
REMARK  Name = 
REMARK  2 active torsions:
REMARK  status: ('A' for Active; 'I' for Inactive)
REMARK    1  A    between atoms: C_9  and  C_10
REMARK    2  A    between atoms: N_17  and  C_18
REMARK                            x       y       z     vdW  Elec       q    Type
REMARK                         _______ _______ _______ _____ _____    ______ ____
ROOT
ATOM      1  F   UNL     1       1.426   3.378  21.944  0.00  0.00    +0.000 F 
ATOM      2  C   UNL     1       2.138   3.873  20.923  0.00  0.00    +0.000 A 
ATOM      3  C   UNL     1       3.132   3.109  20.347  0.00  0.00    +0.000 A 
ATOM      4  F   UNL     1       3.384   1.877  20.808  0.00  0.00    +0.000 F 
ATOM      5  C   UNL     1       3.893   3.620  19.303  0.00  0.00    +0.000 A 
ATOM      6  F   UNL     1       4.912   2.882  18.853  0.00  0.00    +0.000 F 
ATOM      7  C   UNL     1       3.602   4.899  18.793  0.00  0.00    +0.000 A 
ATOM      8  C   UNL     1       2.625   5.704  19.389  0.00  0.00    +0.000 A 
ATOM      9  C   UNL     1       2.692   6.955  18.695  0.00  0.00    +0.000 A 
ATOM     10  N   UNL     1       3.692   6.940  17.795  0.00  0.00    +0.000 NA
ATOM     11  N   UNL     1       4.162   5.663  17.778  0.00  0.00    +0.000 N 
ATOM     12  C   UNL     1       1.898   5.169  20.473  0.00  0.00    +0.000 A 
ATOM     13  F   UNL     1       0.988   5.901  21.132  0.00  0.00    +0.000 F 
ENDROOT
BRANCH   9  14
ATOM     14  C   UNL     1       1.874   8.163  18.912  0.00  0.00    +0.000 A 
ATOM     15  C   UNL     1       1.434   8.942  17.829  0.00  0.00    +0.000 A 
ATOM     16  C   UNL     1       0.703  10.120  18.039  0.00  0.00    +0.000 A 
ATOM     17  C   UNL     1       0.403  10.539  19.333  0.00  0.00    +0.000 A 
ATOM     18  C   UNL     1       0.805   9.767  20.414  0.00  0.00    +0.000 A 
ATOM     19  C   UNL     1       1.514   8.579  20.202  0.00  0.00    +0.000 A 
ENDBRANCH   9  14
BRANCH  11  20
ATOM     20  C   UNL     1       5.168   5.265  16.848  0.00  0.00    +0.000 A 
ATOM     21  C   UNL     1       4.846   4.413  15.785  0.00  0.00    +0.000 A 
ATOM     22  C   UNL     1       5.777   4.202  14.761  0.00  0.00    +0.000 A 
ATOM     23  C   UNL     1       7.035   4.808  14.810  0.00  0.00    +0.000 A 
ATOM     24  C   UNL     1       7.390   5.573  15.915  0.00  0.00    +0.000 A 
ATOM     25  C   UNL     1       6.470   5.777  16.941  0.00  0.00    +0.000 A 
ENDBRANCH  11  20
TORSDOF 2
ENDMDL
MODEL 5
REMARK VINA RESULT:      -8.8      0.463      5.874
REMARK  Name = 
REMARK  2 active torsions:
REMARK  status: ('A' for Active; 'I' for Inactive)
REMARK    1  A    between atoms: C_9  and  C_10
REMARK    2  A    between atoms: N_17  and  C_18
REMARK                            x       y       z     vdW  Elec       q    Type
REMARK                         _______ _______ _______ _____ _____    ______ ____
ROOT
ATOM      1  F   UNL     1       2.428   1.084  19.249  0.00  0.00    +0.000 F 
ATOM      2  C   UNL     1       2.444   2.420  19.164  0.00  0.00    +0.000 A 
ATOM      3  C   UNL     1       1.569   3.166  19.927  0.00  0.00    +0.000 A 
ATOM      4  F   UNL     1       0.707   2.554  20.749  0.00  0.00    +0.000 F 
ATOM      5  C   UNL     1       1.559   4.551  19.829  0.00  0.00    +0.000 A 
ATOM      6  F   UNL     1       0.620   5.219  20.508  0.00  0.00    +0.000 F 
ATOM      7  C   UNL     1       2.491   5.195  18.995  0.00  0.00    +0.000 A 
ATOM      8  C   UNL     1       3.359   4.456  18.184  0.00  0.00    +0.000 A 
ATOM      9  C   UNL     1       4.060   5.428  17.398  0.00  0.00    +0.000 A 
ATOM     10  N   UNL     1       3.594   6.663  17.655  0.00  0.00    +0.000 NA
ATOM     11  N   UNL     1       2.732   6.530  18.698  0.00  0.00    +0.000 N 
ATOM     12  C   UNL     1       3.316   3.049  18.279  0.00  0.00    +0.000 A 
ATOM     13  F   UNL     1       4.076   2.274  17.492  0.00  0.00    +0.000 F 
ENDROOT
BRANCH   9  14
ATOM     14  C   UNL     1       5.104   5.197  16.382  0.00  0.00    +0.000 A 
ATOM     15  C   UNL     1       4.810   4.529  15.182  0.00  0.00    +0.000 A 
ATOM     16  C   UNL     1       5.815   4.262  14.242  0.00  0.00    +0.000 A 
ATOM     17  C   UNL     1       7.129   4.654  14.487  0.00  0.00    +0.000 A 
ATOM     18  C   UNL     1       7.433   5.340  15.655  0.00  0.00    +0.000 A 
ATOM     19  C   UNL     1       6.425   5.628  16.582  0.00  0.00    +0.000 A 
ENDBRANCH   9  14
BRANCH  11  20
ATOM     20  C   UNL     1       2.129   7.674  19.301  0.00  0.00    +0.000 A 
ATOM     21  C   UNL     1       1.687   8.738  18.507  0.00  0.00    +0.000 A 
ATOM     22  C   UNL     1       0.908   9.752  19.078  0.00  0.00    +0.000 A 
ATOM     23  C   UNL     1       0.597   9.725  20.439  0.00  0.00    +0.000 A 
ATOM     24  C   UNL     1       1.119   8.722  21.247  0.00  0.00    +0.000 A 
ATOM     25  C   UNL     1       1.904   7.718  20.684  0.00  0.00    +0.000 A 
ENDBRANCH  11  20
TORSDOF 2
ENDMDL
MODEL 6
REMARK VINA RESULT:      -8.3      0.917      5.811
REMARK  Name = 
REMARK  2 active torsions:
REMARK  status: ('A' for Active; 'I' for Inactive)
REMARK    1  A    between atoms: C_9  and  C_10
REMARK    2  A    between atoms: N_17  and  C_18
REMARK                            x       y       z     vdW  Elec       q    Type
REMARK                         _______ _______ _______ _____ _____    ______ ____
ROOT
ATOM      1  F   UNL     1       3.006   1.749  20.646  0.00  0.00    +0.000 F 
ATOM      2  C   UNL     1       2.850   3.016  20.241  0.00  0.00    +0.000 A 
ATOM      3  C   UNL     1       1.891   3.811  20.833  0.00  0.00    +0.000 A 
ATOM      4  F   UNL     1       1.118   3.317  21.809  0.00  0.00    +0.000 F 
ATOM      5  C   UNL     1       1.703   5.119  20.406  0.00  0.00    +0.000 A 
ATOM      6  F   UNL     1       0.690   5.812  20.937  0.00  0.00    +0.000 F 
ATOM      7  C   UNL     1       2.542   5.651  19.409  0.00  0.00    +0.000 A 
ATOM      8  C   UNL     1       3.494   4.850  18.769  0.00  0.00    +0.000 A 
ATOM      9  C   UNL     1       4.061   5.679  17.748  0.00  0.00    +0.000 A 
ATOM     10  N   UNL     1       3.443   6.873  17.717  0.00  0.00    +0.000 NA
ATOM     11  N   UNL     1       2.609   6.893  18.791  0.00  0.00    +0.000 N 
ATOM     12  C   UNL     1       3.631   3.513  19.201  0.00  0.00    +0.000 A 
ATOM     13  F   UNL     1       4.480   2.669  18.597  0.00  0.00    +0.000 F 
ENDROOT
BRANCH   9  14
ATOM     14  C   UNL     1       5.122   5.338  16.782  0.00  0.00    +0.000 A 
ATOM     15  C   UNL     1       6.387   5.943  16.855  0.00  0.00    +0.000 A 
ATOM     16  C   UNL     1       7.377   5.659  15.903  0.00  0.00    +0.000 A 
ATOM     17  C   UNL     1       7.116   4.770  14.862  0.00  0.00    +0.000 A 
ATOM     18  C   UNL     1       5.881   4.142  14.791  0.00  0.00    +0.000 A 
ATOM     19  C   UNL     1       4.902   4.407  15.755  0.00  0.00    +0.000 A 
ENDBRANCH   9  14
BRANCH  11  20
ATOM     20  C   UNL     1       1.868   8.067  19.123  0.00  0.00    +0.000 A 
ATOM     21  C   UNL     1       1.570   8.357  20.459  0.00  0.00    +0.000 A 
ATOM     22  C   UNL     1       1.038   9.607  20.794  0.00  0.00    +0.000 A 
ATOM     23  C   UNL     1       0.772  10.554  19.802  0.00  0.00    +0.000 A 
ATOM     24  C   UNL     1       0.974  10.229  18.465  0.00  0.00    +0.000 A 
ATOM     25  C   UNL     1       1.494   8.980  18.128  0.00  0.00    +0.000 A 
ENDBRANCH  11  20
TORSDOF 2
ENDMDL
MODEL 7
REMARK VINA RESULT:      -7.5      4.923      9.663
REMARK  Name = 
REMARK  2 active torsions:
REMARK  status: ('A' for Active; 'I' for Inactive)
REMARK    1  A    between atoms: C_9  and  C_10
REMARK    2  A    between atoms: N_17  and  C_18
REMARK                            x       y       z     vdW  Elec       q    Type
REMARK                         _______ _______ _______ _____ _____    ______ ____
ROOT
ATOM      1  F   UNL     1      -3.661  10.320  16.249  0.00  0.00    +0.000 F 
ATOM      2  C   UNL     1      -3.069  10.699  17.389  0.00  0.00    +0.000 A 
ATOM      3  C   UNL     1      -3.645  11.683  18.166  0.00  0.00    +0.000 A 
ATOM      4  F   UNL     1      -4.793  12.256  17.780  0.00  0.00    +0.000 F 
ATOM      5  C   UNL     1      -3.029  12.102  19.337  0.00  0.00    +0.000 A 
ATOM      6  F   UNL     1      -3.572  13.131  19.996  0.00  0.00    +0.000 F 
ATOM      7  C   UNL     1      -1.845  11.472  19.763  0.00  0.00    +0.000 A 
ATOM      8  C   UNL     1      -1.224  10.500  18.970  0.00  0.00    +0.000 A 
ATOM      9  C   UNL     1      -0.004  10.182  19.650  0.00  0.00    +0.000 A 
ATOM     10  N   UNL     1       0.145  10.961  20.736  0.00  0.00    +0.000 NA
ATOM     11  N   UNL     1      -1.018  11.654  20.863  0.00  0.00    +0.000 N 
ATOM     12  C   UNL     1      -1.857  10.126  17.766  0.00  0.00    +0.000 A 
ATOM     13  F   UNL     1      -1.293   9.246  16.926  0.00  0.00    +0.000 F 
ENDROOT
BRANCH   9  14
ATOM     14  C   UNL     1       1.031   9.207  19.256  0.00  0.00    +0.000 A 
ATOM     15  C   UNL     1       1.672   9.298  18.010  0.00  0.00    +0.000 A 
ATOM     16  C   UNL     1       2.617   8.340  17.615  0.00  0.00    +0.000 A 
ATOM     17  C   UNL     1       2.932   7.275  18.456  0.00  0.00    +0.000 A 
ATOM     18  C   UNL     1       2.329   7.185  19.702  0.00  0.00    +0.000 A 
ATOM     19  C   UNL     1       1.405   8.155  20.106  0.00  0.00    +0.000 A 
ENDBRANCH   9  14
BRANCH  11  20
ATOM     20  C   UNL     1      -1.244  12.507  21.985  0.00  0.00    +0.000 A 
ATOM     21  C   UNL     1      -0.479  13.668  22.151  0.00  0.00    +0.000 A 
ATOM     22  C   UNL     1      -0.847  14.605  23.124  0.00  0.00    +0.000 A 
ATOM     23  C   UNL     1      -1.950  14.376  23.949  0.00  0.00    +0.000 A 
ATOM     24  C   UNL     1      -2.648  13.177  23.851  0.00  0.00    +0.000 A 
ATOM     25  C   UNL     1      -2.278  12.237  22.891  0.00  0.00    +0.000 A 
ENDBRANCH  11  20
TORSDOF 2
ENDMDL
MODEL 8
REMARK VINA RESULT:      -7.4      4.789      7.720
REMARK  Name = 
REMARK  2 active torsions:
REMARK  status: ('A' for Active; 'I' for Inactive)
REMARK    1  A    between atoms: C_9  and  C_10
REMARK    2  A    between atoms: N_17  and  C_18
REMARK                            x       y       z     vdW  Elec       q    Type
REMARK                         _______ _______ _______ _____ _____    ______ ____
ROOT
ATOM      1  F   UNL     1      -4.578  12.027  17.242  0.00  0.00    +0.000 F 
ATOM      2  C   UNL     1      -3.447  11.533  17.765  0.00  0.00    +0.000 A 
ATOM      3  C   UNL     1      -2.737  10.572  17.076  0.00  0.00    +0.000 A 
ATOM      4  F   UNL     1      -3.178  10.133  15.890  0.00  0.00    +0.000 F 
ATOM      5  C   UNL     1      -1.577  10.035  17.618  0.00  0.00    +0.000 A 
ATOM      6  F   UNL     1      -0.986   9.031  16.961  0.00  0.00    +0.000 F 
ATOM      7  C   UNL     1      -1.092  10.524  18.845  0.00  0.00    +0.000 A 
ATOM      8  C   UNL     1      -1.819  11.470  19.578  0.00  0.00    +0.000 A 
ATOM      9  C   UNL     1      -1.097  11.633  20.804  0.00  0.00    +0.000 A 
ATOM     10  N   UNL     1      -0.051  10.788  20.849  0.00  0.00    +0.000 NA
ATOM     11  N   UNL     1       0.014  10.205  19.621  0.00  0.00    +0.000 N 
ATOM     12  C   UNL     1      -3.014  11.965  19.016  0.00  0.00    +0.000 A 
ATOM     13  F   UNL     1      -3.793  12.829  19.684  0.00  0.00    +0.000 F 
ENDROOT
BRANCH   9  14
ATOM     14  C   UNL     1      -1.415  12.521  21.938  0.00  0.00    +0.000 A 
ATOM     15  C   UNL     1      -2.555  12.303  22.728  0.00  0.00    +0.000 A 
ATOM     16  C   UNL     1      -2.886  13.179  23.772  0.00  0.00    +0.000 A 
ATOM     17  C   UNL     1      -2.085  14.288  24.039  0.00  0.00    +0.000 A 
ATOM     18  C   UNL     1      -0.940  14.503  23.286  0.00  0.00    +0.000 A 
ATOM     19  C   UNL     1      -0.597  13.615  22.261  0.00  0.00    +0.000 A 
ENDBRANCH   9  14
BRANCH  11  20
ATOM     20  C   UNL     1       1.083   9.321  19.285  0.00  0.00    +0.000 A 
ATOM     21  C   UNL     1       1.390   8.240  20.118  0.00  0.00    +0.000 A 
ATOM     22  C   UNL     1       2.288   7.260  19.678  0.00  0.00    +0.000 A 
ATOM     23  C   UNL     1       2.902   7.371  18.428  0.00  0.00    +0.000 A 
ATOM     24  C   UNL     1       2.673   8.496  17.644  0.00  0.00    +0.000 A 
ATOM     25  C   UNL     1       1.788   9.479  18.084  0.00  0.00    +0.000 A 
ENDBRANCH  11  20
TORSDOF 2
ENDMDL
MODEL 9
REMARK VINA RESULT:      -7.3      1.391      1.803
REMARK  Name = 
REMARK  2 active torsions:
REMARK  status: ('A' for Active; 'I' for Inactive)
REMARK    1  A    between atoms: C_9  and  C_10
REMARK    2  A    between atoms: N_17  and  C_18
REMARK                            x       y       z     vdW  Elec       q    Type
REMARK                         _______ _______ _______ _____ _____    ______ ____
ROOT
ATOM      1  F   UNL     1       1.677   4.215  21.690  0.00  0.00    +0.000 F 
ATOM      2  C   UNL     1       2.361   4.561  20.592  0.00  0.00    +0.000 A 
ATOM      3  C   UNL     1       3.314   3.704  20.080  0.00  0.00    +0.000 A 
ATOM      4  F   UNL     1       3.554   2.531  20.681  0.00  0.00    +0.000 F 
ATOM      5  C   UNL     1       4.047   4.062  18.956  0.00  0.00    +0.000 A 
ATOM      6  F   UNL     1       5.031   3.245  18.566  0.00  0.00    +0.000 F 
ATOM      7  C   UNL     1       3.768   5.276  18.302  0.00  0.00    +0.000 A 
ATOM      8  C   UNL     1       2.833   6.176  18.828  0.00  0.00    +0.000 A 
ATOM      9  C   UNL     1       2.904   7.330  17.982  0.00  0.00    +0.000 A 
ATOM     10  N   UNL     1       3.868   7.176  17.058  0.00  0.00    +0.000 NA
ATOM     11  N   UNL     1       4.307   5.894  17.182  0.00  0.00    +0.000 N 
ATOM     12  C   UNL     1       2.135   5.798  19.994  0.00  0.00    +0.000 A 
ATOM     13  F   UNL     1       1.268   6.631  20.588  0.00  0.00    +0.000 F 
ENDROOT
BRANCH   9  14
ATOM     14  C   UNL     1       2.123   8.578  18.076  0.00  0.00    +0.000 A 
ATOM     15  C   UNL     1       2.762   9.828  18.127  0.00  0.00    +0.000 A 
ATOM     16  C   UNL     1       2.021  11.009  18.271  0.00  0.00    +0.000 A 
ATOM     17  C   UNL     1       0.632  10.961  18.371  0.00  0.00    +0.000 A 
ATOM     18  C   UNL     1      -0.017   9.737  18.295  0.00  0.00    +0.000 A 
ATOM     19  C   UNL     1       0.721   8.560  18.126  0.00  0.00    +0.000 A 
ENDBRANCH   9  14
BRANCH  11  20
ATOM     20  C   UNL     1       5.268   5.357  16.274  0.00  0.00    +0.000 A 
ATOM     21  C   UNL     1       4.855   4.542  15.213  0.00  0.00    +0.000 A 
ATOM     22  C   UNL     1       5.767   4.199  14.209  0.00  0.00    +0.000 A 
ATOM     23  C   UNL     1       7.093   4.636  14.275  0.00  0.00    +0.000 A 
ATOM     24  C   UNL     1       7.526   5.360  15.379  0.00  0.00    +0.000 A 
ATOM     25  C   UNL     1       6.623   5.695  16.386  0.00  0.00    +0.000 A 
ENDBRANCH  11  20
TORSDOF 2
ENDMDL
