MODEL 1
REMARK VINA RESULT:      -8.0      0.000      0.000
REMARK  Name = 
REMARK  3 active torsions:
REMARK  status: ('A' for Active; 'I' for Inactive)
REMARK    1  A    between atoms: N_3  and  C_4
REMARK    2  A    between atoms: C_14  and  N_15
REMARK    3  A    between atoms: C_16  and  O_17
REMARK                            x       y       z     vdW  Elec       q    Type
REMARK                         _______ _______ _______ _____ _____    ______ ____
ROOT
ATOM      1  O   UNL     1      -0.459   9.352  21.246  0.00  0.00    +0.000 OA
ATOM      2  C   UNL     1      -0.032   9.628  20.127  0.00  0.00    +0.000 C 
ATOM      3  N   UNL     1      -0.597  10.569  19.298  0.00  0.00    +0.000 N 
ATOM      4  N   UNL     1       1.088   8.983  19.610  0.00  0.00    +0.000 N 
ATOM      5  C   UNL     1       1.750   9.299  18.352  0.00  0.00    +0.000 C 
ATOM      6  C   UNL     1       2.476   8.111  17.793  0.00  0.00    +0.000 C 
ATOM      7  C   UNL     1       2.613   6.912  18.402  0.00  0.00    +0.000 C 
ATOM      8  C   UNL     1       2.062   6.749  19.804  0.00  0.00    +0.000 C 
ATOM      9  C   UNL     1       1.828   8.089  20.497  0.00  0.00    +0.000 C 
ATOM     10  H   UNL     1      -0.348  10.536  18.326  0.00  0.00    +0.000 HD
ENDROOT
BRANCH   7  11
ATOM     11  N   UNL     1       3.245   5.802  17.790  0.00  0.00    +0.000 N 
ATOM     12  C   UNL     1       2.684   4.550  17.512  0.00  0.00    +0.000 A 
ATOM     13  N   UNL     1       3.526   3.712  16.968  0.00  0.00    +0.000 NA
ATOM     14  C   UNL     1       4.696   4.404  16.861  0.00  0.00    +0.000 A 
ATOM     15  C   UNL     1       5.927   3.964  16.353  0.00  0.00    +0.000 A 
ATOM     16  C   UNL     1       7.029   4.823  16.388  0.00  0.00    +0.000 A 
ATOM     17  C   UNL     1       6.908   6.102  16.922  0.00  0.00    +0.000 A 
ATOM     18  C   UNL     1       5.683   6.564  17.416  0.00  0.00    +0.000 A 
ATOM     19  C   UNL     1       4.572   5.702  17.357  0.00  0.00    +0.000 A 
BRANCH  12  20
ATOM     20  O   UNL     1       1.409   4.214  17.676  0.00  0.00    +0.000 OA
ATOM     21  H   UNL     1       0.890   5.028  17.749  0.00  0.00    +0.000 HD
ENDBRANCH  12  20
ENDBRANCH   7  11
BRANCH   3  22
ATOM     22  C   UNL     1      -1.684  11.422  19.583  0.00  0.00    +0.000 A 
ATOM     23  C   UNL     1      -1.699  12.326  20.649  0.00  0.00    +0.000 A 
ATOM     24  C   UNL     1      -2.833  13.102  20.899  0.00  0.00    +0.000 A 
ATOM     25  C   UNL     1      -3.949  12.990  20.075  0.00  0.00    +0.000 A 
ATOM     26  C   UNL     1      -3.914  12.119  18.995  0.00  0.00    +0.000 A 
ATOM     27  F   UNL     1      -4.979  12.016  18.191  0.00  0.00    +0.000 F 
ATOM     28  C   UNL     1      -2.791  11.342  18.738  0.00  0.00    +0.000 A 
ENDBRANCH   3  22
TORSDOF 3
ENDMDL
MODEL 2
REMARK VINA RESULT:      -8.0      1.505      2.376
REMARK  Name = 
REMARK  3 active torsions:
REMARK  status: ('A' for Active; 'I' for Inactive)
REMARK    1  A    between atoms: N_3  and  C_4
REMARK    2  A    between atoms: C_14  and  N_15
REMARK    3  A    between atoms: C_16  and  O_17
REMARK                            x       y       z     vdW  Elec       q    Type
REMARK                         _______ _______ _______ _____ _____    ______ ____
ROOT
ATOM      1  O   UNL     1      -0.664   9.900  21.187  0.00  0.00    +0.000 OA
ATOM      2  C   UNL     1      -0.346  10.013  20.005  0.00  0.00    +0.000 C 
ATOM      3  N   UNL     1      -1.069  10.726  19.077  0.00  0.00    +0.000 N 
ATOM      4  N   UNL     1       0.806   9.404  19.514  0.00  0.00    +0.000 N 
ATOM      5  C   UNL     1       1.343   9.555  18.169  0.00  0.00    +0.000 C 
ATOM      6  C   UNL     1       2.164   8.367  17.763  0.00  0.00    +0.000 C 
ATOM      7  C   UNL     1       2.479   7.318  18.555  0.00  0.00    +0.000 C 
ATOM      8  C   UNL     1       2.044   7.354  20.006  0.00  0.00    +0.000 C 
ATOM      9  C   UNL     1       1.701   8.765  20.475  0.00  0.00    +0.000 C 
ATOM     10  H   UNL     1      -0.882  10.543  18.109  0.00  0.00    +0.000 HD
ENDROOT
BRANCH   7  11
ATOM     11  N   UNL     1       3.196   6.187  18.092  0.00  0.00    +0.000 N 
ATOM     12  C   UNL     1       4.453   6.170  17.476  0.00  0.00    +0.000 A 
ATOM     13  N   UNL     1       4.845   4.973  17.129  0.00  0.00    +0.000 NA
ATOM     14  C   UNL     1       3.839   4.141  17.521  0.00  0.00    +0.000 A 
ATOM     15  C   UNL     1       3.749   2.750  17.374  0.00  0.00    +0.000 A 
ATOM     16  C   UNL     1       2.591   2.089  17.798  0.00  0.00    +0.000 A 
ATOM     17  C   UNL     1       1.539   2.804  18.359  0.00  0.00    +0.000 A 
ATOM     18  C   UNL     1       1.619   4.191  18.530  0.00  0.00    +0.000 A 
ATOM     19  C   UNL     1       2.795   4.847  18.122  0.00  0.00    +0.000 A 
BRANCH  12  20
ATOM     20  O   UNL     1       5.255   7.217  17.313  0.00  0.00    +0.000 OA
ATOM     21  H   UNL     1       5.742   7.354  18.138  0.00  0.00    +0.000 HD
ENDBRANCH  12  20
ENDBRANCH   7  11
BRANCH   3  22
ATOM     22  C   UNL     1      -2.227  11.499  19.303  0.00  0.00    +0.000 A 
ATOM     23  C   UNL     1      -2.321  12.482  20.291  0.00  0.00    +0.000 A 
ATOM     24  C   UNL     1      -3.519  13.173  20.488  0.00  0.00    +0.000 A 
ATOM     25  C   UNL     1      -4.623  12.894  19.687  0.00  0.00    +0.000 A 
ATOM     26  C   UNL     1      -4.513  11.944  18.682  0.00  0.00    +0.000 A 
ATOM     27  F   UNL     1      -5.567  11.681  17.900  0.00  0.00    +0.000 F 
ATOM     28  C   UNL     1      -3.325  11.251  18.478  0.00  0.00    +0.000 A 
ENDBRANCH   3  22
TORSDOF 3
ENDMDL
MODEL 3
REMARK VINA RESULT:      -7.9      6.234      8.419
REMARK  Name = 
REMARK  3 active torsions:
REMARK  status: ('A' for Active; 'I' for Inactive)
REMARK    1  A    between atoms: N_3  and  C_4
REMARK    2  A    between atoms: C_14  and  N_15
REMARK    3  A    between atoms: C_16  and  O_17
REMARK                            x       y       z     vdW  Elec       q    Type
REMARK                         _______ _______ _______ _____ _____    ______ ____
ROOT
ATOM      1  O   UNL     1       9.086   8.728  19.434  0.00  0.00    +0.000 OA
ATOM      2  C   UNL     1       8.377   8.732  18.431  0.00  0.00    +0.000 C 
ATOM      3  N   UNL     1       8.181   9.832  17.629  0.00  0.00    +0.000 N 
ATOM      4  N   UNL     1       7.701   7.582  18.029  0.00  0.00    +0.000 N 
ATOM      5  C   UNL     1       6.925   7.432  16.806  0.00  0.00    +0.000 C 
ATOM      6  C   UNL     1       5.865   6.380  16.948  0.00  0.00    +0.000 C 
ATOM      7  C   UNL     1       5.690   5.575  18.020  0.00  0.00    +0.000 C 
ATOM      8  C   UNL     1       6.683   5.669  19.161  0.00  0.00    +0.000 C 
ATOM      9  C   UNL     1       7.988   6.340  18.742  0.00  0.00    +0.000 C 
ATOM     10  H   UNL     1       7.396   9.813  17.004  0.00  0.00    +0.000 HD
ENDROOT
BRANCH   7  11
ATOM     11  N   UNL     1       4.622   4.650  18.127  0.00  0.00    +0.000 N 
ATOM     12  C   UNL     1       4.427   3.485  17.375  0.00  0.00    +0.000 A 
ATOM     13  N   UNL     1       3.328   2.848  17.680  0.00  0.00    +0.000 NA
ATOM     14  C   UNL     1       2.753   3.586  18.672  0.00  0.00    +0.000 A 
ATOM     15  C   UNL     1       1.548   3.350  19.350  0.00  0.00    +0.000 A 
ATOM     16  C   UNL     1       1.107   4.271  20.304  0.00  0.00    +0.000 A 
ATOM     17  C   UNL     1       1.854   5.412  20.579  0.00  0.00    +0.000 A 
ATOM     18  C   UNL     1       3.067   5.654  19.926  0.00  0.00    +0.000 A 
ATOM     19  C   UNL     1       3.517   4.712  18.983  0.00  0.00    +0.000 A 
BRANCH  12  20
ATOM     20  O   UNL     1       5.279   2.977  16.491  0.00  0.00    +0.000 OA
ATOM     21  H   UNL     1       5.657   3.709  15.982  0.00  0.00    +0.000 HD
ENDBRANCH  12  20
ENDBRANCH   7  11
BRANCH   3  22
ATOM     22  C   UNL     1       8.790  11.099  17.748  0.00  0.00    +0.000 A 
ATOM     23  C   UNL     1       8.076  12.300  17.785  0.00  0.00    +0.000 A 
ATOM     24  C   UNL     1       8.752  13.520  17.854  0.00  0.00    +0.000 A 
ATOM     25  C   UNL     1      10.143  13.544  17.902  0.00  0.00    +0.000 A 
ATOM     26  C   UNL     1      10.845  12.347  17.904  0.00  0.00    +0.000 A 
ATOM     27  F   UNL     1      12.182  12.363  17.963  0.00  0.00    +0.000 F 
ATOM     28  C   UNL     1      10.182  11.127  17.836  0.00  0.00    +0.000 A 
ENDBRANCH   3  22
TORSDOF 3
ENDMDL
MODEL 4
REMARK VINA RESULT:      -7.9      5.803      8.011
REMARK  Name = 
REMARK  3 active torsions:
REMARK  status: ('A' for Active; 'I' for Inactive)
REMARK    1  A    between atoms: N_3  and  C_4
REMARK    2  A    between atoms: C_14  and  N_15
REMARK    3  A    between atoms: C_16  and  O_17
REMARK                            x       y       z     vdW  Elec       q    Type
REMARK                         _______ _______ _______ _____ _____    ______ ____
ROOT
ATOM      1  O   UNL     1       9.068   8.452  19.290  0.00  0.00    +0.000 OA
ATOM      2  C   UNL     1       8.266   8.521  18.362  0.00  0.00    +0.000 C 
ATOM      3  N   UNL     1       8.015   9.666  17.643  0.00  0.00    +0.000 N 
ATOM      4  N   UNL     1       7.535   7.404  17.966  0.00  0.00    +0.000 N 
ATOM      5  C   UNL     1       6.642   7.332  16.817  0.00  0.00    +0.000 C 
ATOM      6  C   UNL     1       5.582   6.287  17.003  0.00  0.00    +0.000 C 
ATOM      7  C   UNL     1       5.496   5.427  18.042  0.00  0.00    +0.000 C 
ATOM      8  C   UNL     1       6.595   5.445  19.085  0.00  0.00    +0.000 C 
ATOM      9  C   UNL     1       7.866   6.120  18.579  0.00  0.00    +0.000 C 
ATOM     10  H   UNL     1       7.173   9.692  17.097  0.00  0.00    +0.000 HD
ENDROOT
BRANCH   7  11
ATOM     11  N   UNL     1       4.426   4.511  18.201  0.00  0.00    +0.000 N 
ATOM     12  C   UNL     1       4.221   3.313  17.507  0.00  0.00    +0.000 A 
ATOM     13  N   UNL     1       3.124   2.694  17.851  0.00  0.00    +0.000 NA
ATOM     14  C   UNL     1       2.559   3.479  18.812  0.00  0.00    +0.000 A 
ATOM     15  C   UNL     1       1.359   3.279  19.509  0.00  0.00    +0.000 A 
ATOM     16  C   UNL     1       0.928   4.246  20.422  0.00  0.00    +0.000 A 
ATOM     17  C   UNL     1       1.680   5.396  20.637  0.00  0.00    +0.000 A 
ATOM     18  C   UNL     1       2.888   5.604  19.963  0.00  0.00    +0.000 A 
ATOM     19  C   UNL     1       3.329   4.617  19.062  0.00  0.00    +0.000 A 
BRANCH  12  20
ATOM     20  O   UNL     1       5.064   2.761  16.640  0.00  0.00    +0.000 OA
ATOM     21  H   UNL     1       5.055   1.803  16.779  0.00  0.00    +0.000 HD
ENDBRANCH  12  20
ENDBRANCH   7  11
BRANCH   3  22
ATOM     22  C   UNL     1       8.655  10.917  17.771  0.00  0.00    +0.000 A 
ATOM     23  C   UNL     1      10.006  11.065  18.096  0.00  0.00    +0.000 A 
ATOM     24  C   UNL     1      10.558  12.338  18.255  0.00  0.00    +0.000 A 
ATOM     25  C   UNL     1       9.765  13.468  18.076  0.00  0.00    +0.000 A 
ATOM     26  C   UNL     1       8.433  13.316  17.716  0.00  0.00    +0.000 A 
ATOM     27  F   UNL     1       7.669  14.398  17.528  0.00  0.00    +0.000 F 
ATOM     28  C   UNL     1       7.875  12.053  17.555  0.00  0.00    +0.000 A 
ENDBRANCH   3  22
TORSDOF 3
ENDMDL
MODEL 5
REMARK VINA RESULT:      -7.8      1.004      1.375
REMARK  Name = 
REMARK  3 active torsions:
REMARK  status: ('A' for Active; 'I' for Inactive)
REMARK    1  A    between atoms: N_3  and  C_4
REMARK    2  A    between atoms: C_14  and  N_15
REMARK    3  A    between atoms: C_16  and  O_17
REMARK                            x       y       z     vdW  Elec       q    Type
REMARK                         _______ _______ _______ _____ _____    ______ ____
ROOT
ATOM      1  O   UNL     1      -0.440   9.362  21.284  0.00  0.00    +0.000 OA
ATOM      2  C   UNL     1      -0.030   9.637  20.159  0.00  0.00    +0.000 C 
ATOM      3  N   UNL     1      -0.608  10.575  19.335  0.00  0.00    +0.000 N 
ATOM      4  N   UNL     1       1.086   8.995  19.627  0.00  0.00    +0.000 N 
ATOM      5  C   UNL     1       1.729   9.310  18.359  0.00  0.00    +0.000 C 
ATOM      6  C   UNL     1       2.450   8.123  17.793  0.00  0.00    +0.000 C 
ATOM      7  C   UNL     1       2.599   6.926  18.402  0.00  0.00    +0.000 C 
ATOM      8  C   UNL     1       2.069   6.764  19.813  0.00  0.00    +0.000 C 
ATOM      9  C   UNL     1       1.841   8.105  20.505  0.00  0.00    +0.000 C 
ATOM     10  H   UNL     1      -0.373  10.540  18.361  0.00  0.00    +0.000 HD
ENDROOT
BRANCH   7  11
ATOM     11  N   UNL     1       3.227   5.816  17.784  0.00  0.00    +0.000 N 
ATOM     12  C   UNL     1       2.660   4.569  17.497  0.00  0.00    +0.000 A 
ATOM     13  N   UNL     1       3.498   3.731  16.949  0.00  0.00    +0.000 NA
ATOM     14  C   UNL     1       4.672   4.417  16.847  0.00  0.00    +0.000 A 
ATOM     15  C   UNL     1       5.901   3.974  16.338  0.00  0.00    +0.000 A 
ATOM     16  C   UNL     1       7.007   4.828  16.380  0.00  0.00    +0.000 A 
ATOM     17  C   UNL     1       6.892   6.103  16.921  0.00  0.00    +0.000 A 
ATOM     18  C   UNL     1       5.669   6.568  17.417  0.00  0.00    +0.000 A 
ATOM     19  C   UNL     1       4.553   5.713  17.352  0.00  0.00    +0.000 A 
BRANCH  12  20
ATOM     20  O   UNL     1       1.382   4.239  17.657  0.00  0.00    +0.000 OA
ATOM     21  H   UNL     1       1.142   4.403  18.581  0.00  0.00    +0.000 HD
ENDBRANCH  12  20
ENDBRANCH   7  11
BRANCH   3  22
ATOM     22  C   UNL     1      -1.694  11.425  19.634  0.00  0.00    +0.000 A 
ATOM     23  C   UNL     1      -2.898  11.422  18.925  0.00  0.00    +0.000 A 
ATOM     24  C   UNL     1      -3.910  12.328  19.248  0.00  0.00    +0.000 A 
ATOM     25  C   UNL     1      -3.728  13.232  20.291  0.00  0.00    +0.000 A 
ATOM     26  C   UNL     1      -2.546  13.205  21.017  0.00  0.00    +0.000 A 
ATOM     27  F   UNL     1      -2.370  14.062  22.031  0.00  0.00    +0.000 F 
ATOM     28  C   UNL     1      -1.533  12.306  20.704  0.00  0.00    +0.000 A 
ENDBRANCH   3  22
TORSDOF 3
ENDMDL
MODEL 6
REMARK VINA RESULT:      -7.7      3.659      9.289
REMARK  Name = 
REMARK  3 active torsions:
REMARK  status: ('A' for Active; 'I' for Inactive)
REMARK    1  A    between atoms: N_3  and  C_4
REMARK    2  A    between atoms: C_14  and  N_15
REMARK    3  A    between atoms: C_16  and  O_17
REMARK                            x       y       z     vdW  Elec       q    Type
REMARK                         _______ _______ _______ _____ _____    ______ ____
ROOT
ATOM      1  O   UNL     1       3.224   6.253  17.323  0.00  0.00    +0.000 OA
ATOM      2  C   UNL     1       2.731   6.323  18.446  0.00  0.00    +0.000 C 
ATOM      3  N   UNL     1       2.590   5.249  19.295  0.00  0.00    +0.000 N 
ATOM      4  N   UNL     1       2.268   7.536  18.949  0.00  0.00    +0.000 N 
ATOM      5  C   UNL     1       1.768   7.766  20.298  0.00  0.00    +0.000 C 
ATOM      6  C   UNL     1       0.812   8.921  20.345  0.00  0.00    +0.000 C 
ATOM      7  C   UNL     1       0.509   9.737  19.312  0.00  0.00    +0.000 C 
ATOM      8  C   UNL     1       1.241   9.541  17.999  0.00  0.00    +0.000 C 
ATOM      9  C   UNL     1       2.530   8.742  18.167  0.00  0.00    +0.000 C 
ATOM     10  H   UNL     1       1.951   5.349  20.061  0.00  0.00    +0.000 HD
ENDROOT
BRANCH   7  11
ATOM     11  N   UNL     1      -0.462  10.766  19.398  0.00  0.00    +0.000 N 
ATOM     12  C   UNL     1      -0.378  11.955  20.134  0.00  0.00    +0.000 A 
ATOM     13  N   UNL     1      -1.449  12.698  20.042  0.00  0.00    +0.000 NA
ATOM     14  C   UNL     1      -2.290  12.011  19.218  0.00  0.00    +0.000 A 
ATOM     15  C   UNL     1      -3.581  12.362  18.799  0.00  0.00    +0.000 A 
ATOM     16  C   UNL     1      -4.302  11.479  17.990  0.00  0.00    +0.000 A 
ATOM     17  C   UNL     1      -3.746  10.264  17.605  0.00  0.00    +0.000 A 
ATOM     18  C   UNL     1      -2.452   9.905  17.999  0.00  0.00    +0.000 A 
ATOM     19  C   UNL     1      -1.723  10.808  18.794  0.00  0.00    +0.000 A 
BRANCH  12  20
ATOM     20  O   UNL     1       0.686  12.384  20.803  0.00  0.00    +0.000 OA
ATOM     21  H   UNL     1       1.060  11.634  21.287  0.00  0.00    +0.000 HD
ENDBRANCH  12  20
ENDBRANCH   7  11
BRANCH   3  22
ATOM     22  C   UNL     1       3.034   3.927  19.085  0.00  0.00    +0.000 A 
ATOM     23  C   UNL     1       2.683   3.161  17.969  0.00  0.00    +0.000 A 
ATOM     24  C   UNL     1       3.121   1.839  17.855  0.00  0.00    +0.000 A 
ATOM     25  C   UNL     1       3.923   1.284  18.848  0.00  0.00    +0.000 A 
ATOM     26  C   UNL     1       4.299   2.060  19.934  0.00  0.00    +0.000 A 
ATOM     27  F   UNL     1       5.082   1.536  20.886  0.00  0.00    +0.000 F 
ATOM     28  C   UNL     1       3.870   3.377  20.057  0.00  0.00    +0.000 A 
ENDBRANCH   3  22
TORSDOF 3
ENDMDL
MODEL 7
REMARK VINA RESULT:      -7.6      3.081      9.345
REMARK  Name = 
REMARK  3 active torsions:
REMARK  status: ('A' for Active; 'I' for Inactive)
REMARK    1  A    between atoms: N_3  and  C_4
REMARK    2  A    between atoms: C_14  and  N_15
REMARK    3  A    between atoms: C_16  and  O_17
REMARK                            x       y       z     vdW  Elec       q    Type
REMARK                         _______ _______ _______ _____ _____    ______ ____
ROOT
ATOM      1  O   UNL     1       2.670   8.454  17.384  0.00  0.00    +0.000 OA
ATOM      2  C   UNL     1       2.154   8.247  18.480  0.00  0.00    +0.000 C 
ATOM      3  N   UNL     1       2.245   7.056  19.162  0.00  0.00    +0.000 N 
ATOM      4  N   UNL     1       1.418   9.240  19.122  0.00  0.00    +0.000 N 
ATOM      5  C   UNL     1       0.855   9.152  20.463  0.00  0.00    +0.000 C 
ATOM      6  C   UNL     1      -0.339  10.046  20.622  0.00  0.00    +0.000 C 
ATOM      7  C   UNL     1      -0.801  10.918  19.699  0.00  0.00    +0.000 C 
ATOM      8  C   UNL     1      -0.020  11.084  18.411  0.00  0.00    +0.000 C 
ATOM      9  C   UNL     1       1.414  10.575  18.530  0.00  0.00    +0.000 C 
ATOM     10  H   UNL     1       1.586   6.898  19.902  0.00  0.00    +0.000 HD
ENDROOT
BRANCH   7  11
ATOM     11  N   UNL     1      -1.981  11.682  19.878  0.00  0.00    +0.000 N 
ATOM     12  C   UNL     1      -2.255  12.596  20.903  0.00  0.00    +0.000 A 
ATOM     13  N   UNL     1      -3.446  13.126  20.821  0.00  0.00    +0.000 NA
ATOM     14  C   UNL     1      -4.007  12.571  19.709  0.00  0.00    +0.000 A 
ATOM     15  C   UNL     1      -5.284  12.789  19.173  0.00  0.00    +0.000 A 
ATOM     16  C   UNL     1      -5.687  12.067  18.046  0.00  0.00    +0.000 A 
ATOM     17  C   UNL     1      -4.830  11.141  17.460  0.00  0.00    +0.000 A 
ATOM     18  C   UNL     1      -3.545  10.924  17.970  0.00  0.00    +0.000 A 
ATOM     19  C   UNL     1      -3.137  11.670  19.092  0.00  0.00    +0.000 A 
BRANCH  12  20
ATOM     20  O   UNL     1      -1.402  12.994  21.840  0.00  0.00    +0.000 OA
ATOM     21  H   UNL     1      -1.832  12.895  22.702  0.00  0.00    +0.000 HD
ENDBRANCH  12  20
ENDBRANCH   7  11
BRANCH   3  22
ATOM     22  C   UNL     1       2.980   5.910  18.792  0.00  0.00    +0.000 A 
ATOM     23  C   UNL     1       4.285   5.656  19.223  0.00  0.00    +0.000 A 
ATOM     24  C   UNL     1       4.968   4.524  18.774  0.00  0.00    +0.000 A 
ATOM     25  C   UNL     1       4.344   3.633  17.905  0.00  0.00    +0.000 A 
ATOM     26  C   UNL     1       3.035   3.871  17.510  0.00  0.00    +0.000 A 
ATOM     27  F   UNL     1       2.425   3.011  16.685  0.00  0.00    +0.000 F 
ATOM     28  C   UNL     1       2.346   4.994  17.952  0.00  0.00    +0.000 A 
ENDBRANCH   3  22
TORSDOF 3
ENDMDL
MODEL 8
REMARK VINA RESULT:      -7.6      1.734      2.689
REMARK  Name = 
REMARK  3 active torsions:
REMARK  status: ('A' for Active; 'I' for Inactive)
REMARK    1  A    between atoms: N_3  and  C_4
REMARK    2  A    between atoms: C_14  and  N_15
REMARK    3  A    between atoms: C_16  and  O_17
REMARK                            x       y       z     vdW  Elec       q    Type
REMARK                         _______ _______ _______ _____ _____    ______ ____
ROOT
ATOM      1  O   UNL     1      -0.702   9.912  21.200  0.00  0.00    +0.000 OA
ATOM      2  C   UNL     1      -0.396  10.021  20.015  0.00  0.00    +0.000 C 
ATOM      3  N   UNL     1      -1.134  10.721  19.089  0.00  0.00    +0.000 N 
ATOM      4  N   UNL     1       0.758   9.420  19.517  0.00  0.00    +0.000 N 
ATOM      5  C   UNL     1       1.281   9.568  18.165  0.00  0.00    +0.000 C 
ATOM      6  C   UNL     1       2.110   8.386  17.760  0.00  0.00    +0.000 C 
ATOM      7  C   UNL     1       2.443   7.345  18.555  0.00  0.00    +0.000 C 
ATOM      8  C   UNL     1       2.021   7.386  20.010  0.00  0.00    +0.000 C 
ATOM      9  C   UNL     1       1.668   8.797  20.473  0.00  0.00    +0.000 C 
ATOM     10  H   UNL     1      -0.954  10.534  18.120  0.00  0.00    +0.000 HD
ENDROOT
BRANCH   7  11
ATOM     11  N   UNL     1       3.167   6.218  18.092  0.00  0.00    +0.000 N 
ATOM     12  C   UNL     1       4.422   6.209  17.471  0.00  0.00    +0.000 A 
ATOM     13  N   UNL     1       4.822   5.014  17.126  0.00  0.00    +0.000 NA
ATOM     14  C   UNL     1       3.822   4.176  17.523  0.00  0.00    +0.000 A 
ATOM     15  C   UNL     1       3.742   2.783  17.380  0.00  0.00    +0.000 A 
ATOM     16  C   UNL     1       2.591   2.116  17.809  0.00  0.00    +0.000 A 
ATOM     17  C   UNL     1       1.536   2.824  18.372  0.00  0.00    +0.000 A 
ATOM     18  C   UNL     1       1.606   4.211  18.539  0.00  0.00    +0.000 A 
ATOM     19  C   UNL     1       2.776   4.876  18.126  0.00  0.00    +0.000 A 
BRANCH  12  20
ATOM     20  O   UNL     1       5.216   7.261  17.304  0.00  0.00    +0.000 OA
ATOM     21  H   UNL     1       5.644   7.181  16.439  0.00  0.00    +0.000 HD
ENDBRANCH  12  20
ENDBRANCH   7  11
BRANCH   3  22
ATOM     22  C   UNL     1      -2.298  11.484  19.321  0.00  0.00    +0.000 A 
ATOM     23  C   UNL     1      -3.485  11.322  18.602  0.00  0.00    +0.000 A 
ATOM     24  C   UNL     1      -4.581  12.150  18.855  0.00  0.00    +0.000 A 
ATOM     25  C   UNL     1      -4.499  13.133  19.837  0.00  0.00    +0.000 A 
ATOM     26  C   UNL     1      -3.331  13.265  20.574  0.00  0.00    +0.000 A 
ATOM     27  F   UNL     1      -3.250  14.199  21.529  0.00  0.00    +0.000 F 
ATOM     28  C   UNL     1      -2.234  12.445  20.330  0.00  0.00    +0.000 A 
ENDBRANCH   3  22
TORSDOF 3
ENDMDL
MODEL 9
REMARK VINA RESULT:      -7.5      3.347      9.494
REMARK  Name = 
REMARK  3 active torsions:
REMARK  status: ('A' for Active; 'I' for Inactive)
REMARK    1  A    between atoms: N_3  and  C_4
REMARK    2  A    between atoms: C_14  and  N_15
REMARK    3  A    between atoms: C_16  and  O_17
REMARK                            x       y       z     vdW  Elec       q    Type
REMARK                         _______ _______ _______ _____ _____    ______ ____
ROOT
ATOM      1  O   UNL     1       2.563   8.376  17.239  0.00  0.00    +0.000 OA
ATOM      2  C   UNL     1       2.118   8.132  18.358  0.00  0.00    +0.000 C 
ATOM      3  N   UNL     1       2.159   6.891  18.950  0.00  0.00    +0.000 N 
ATOM      4  N   UNL     1       1.522   9.130  19.124  0.00  0.00    +0.000 N 
ATOM      5  C   UNL     1       1.060   8.991  20.498  0.00  0.00    +0.000 C 
ATOM      6  C   UNL     1      -0.037   9.963  20.815  0.00  0.00    +0.000 C 
ATOM      7  C   UNL     1      -0.493  10.934  19.993  0.00  0.00    +0.000 C 
ATOM      8  C   UNL     1       0.197  11.131  18.658  0.00  0.00    +0.000 C 
ATOM      9  C   UNL     1       1.586  10.501  18.624  0.00  0.00    +0.000 C 
ATOM     10  H   UNL     1       1.549   6.732  19.730  0.00  0.00    +0.000 HD
ENDROOT
BRANCH   7  11
ATOM     11  N   UNL     1      -1.586  11.775  20.321  0.00  0.00    +0.000 N 
ATOM     12  C   UNL     1      -2.746  11.995  19.568  0.00  0.00    +0.000 A 
ATOM     13  N   UNL     1      -3.565  12.852  20.115  0.00  0.00    +0.000 NA
ATOM     14  C   UNL     1      -2.962  13.229  21.278  0.00  0.00    +0.000 A 
ATOM     15  C   UNL     1      -3.414  14.143  22.240  0.00  0.00    +0.000 A 
ATOM     16  C   UNL     1      -2.606  14.432  23.344  0.00  0.00    +0.000 A 
ATOM     17  C   UNL     1      -1.365  13.821  23.487  0.00  0.00    +0.000 A 
ATOM     18  C   UNL     1      -0.905  12.893  22.546  0.00  0.00    +0.000 A 
ATOM     19  C   UNL     1      -1.733  12.589  21.449  0.00  0.00    +0.000 A 
BRANCH  12  20
ATOM     20  O   UNL     1      -3.080  11.361  18.449  0.00  0.00    +0.000 OA
ATOM     21  H   UNL     1      -2.416  11.568  17.775  0.00  0.00    +0.000 HD
ENDBRANCH  12  20
ENDBRANCH   7  11
BRANCH   3  22
ATOM     22  C   UNL     1       2.763   5.720  18.445  0.00  0.00    +0.000 A 
ATOM     23  C   UNL     1       2.061   4.714  17.775  0.00  0.00    +0.000 A 
ATOM     24  C   UNL     1       2.720   3.559  17.348  0.00  0.00    +0.000 A 
ATOM     25  C   UNL     1       4.085   3.411  17.576  0.00  0.00    +0.000 A 
ATOM     26  C   UNL     1       4.784   4.430  18.208  0.00  0.00    +0.000 A 
ATOM     27  F   UNL     1       6.100   4.299  18.418  0.00  0.00    +0.000 F 
ATOM     28  C   UNL     1       4.139   5.583  18.636  0.00  0.00    +0.000 A 
ENDBRANCH   3  22
TORSDOF 3
ENDMDL
