MODEL 1
REMARK VINA RESULT:      -7.7      0.000      0.000
REMARK  Name = 
REMARK  6 active torsions:
REMARK  status: ('A' for Active; 'I' for Inactive)
REMARK    1  A    between atoms: C_2  and  C_20
REMARK    2  A    between atoms: N_3  and  C_4
REMARK    3  A    between atoms: C_4  and  C_5
REMARK    4  A    between atoms: C_5  and  C_6
REMARK    5  A    between atoms: C_9  and  S_10
REMARK    6  A    between atoms: S_10  and  N_13
REMARK                            x       y       z     vdW  Elec       q    Type
REMARK                         _______ _______ _______ _____ _____    ______ ____
ROOT
ATOM      1  C   UNL     1       5.351   5.962  18.130  0.00  0.00    +0.000 A 
ATOM      2  C   UNL     1       5.700   4.943  19.030  0.00  0.00    +0.000 A 
ATOM      3  C   UNL     1       4.934   3.779  19.142  0.00  0.00    +0.000 A 
ATOM      4  C   UNL     1       3.766   3.634  18.391  0.00  0.00    +0.000 A 
ATOM      5  C   UNL     1       3.353   4.690  17.559  0.00  0.00    +0.000 A 
ATOM      6  C   UNL     1       4.151   5.825  17.407  0.00  0.00    +0.000 A 
ENDROOT
BRANCH   4   7
ATOM      7  S   UNL     1       2.844   2.104  18.425  0.00  0.00    +0.000 S 
ATOM      8  O   UNL     1       1.991   2.108  17.249  0.00  0.00    +0.000 OA
ATOM      9  O   UNL     1       3.790   1.035  18.645  0.00  0.00    +0.000 OA
BRANCH   7  10
ATOM     10  N   UNL     1       1.823   2.200  19.787  0.00  0.00    +0.000 NA
ATOM     11  C   UNL     1       0.706   3.161  19.794  0.00  0.00    +0.000 C 
ATOM     12  C   UNL     1       1.193   4.330  20.627  0.00  0.00    +0.000 C 
ATOM     13  C   UNL     1       2.018   3.667  21.716  0.00  0.00    +0.000 C 
ATOM     14  C   UNL     1       2.501   2.341  21.112  0.00  0.00    +0.000 C 
ENDBRANCH   7  10
ENDBRANCH   4   7
BRANCH   1  15
ATOM     15  C   UNL     1       6.176   7.213  17.942  0.00  0.00    +0.000 C 
BRANCH  15  16
ATOM     16  C   UNL     1       7.464   7.004  17.140  0.00  0.00    +0.000 C 
BRANCH  16  19
ATOM     17  O   UNL     1       7.840   4.299  16.521  0.00  0.00    +0.000 OA
ATOM     18  C   UNL     1       7.428   5.052  15.634  0.00  0.00    +0.000 C 
ATOM     19  N   UNL     1       7.232   6.395  15.856  0.00  0.00    +0.000 N 
ATOM     20  H   UNL     1       6.846   6.955  15.103  0.00  0.00    +0.000 HD
BRANCH  18  21
ATOM     21  C   UNL     1       7.098   4.585  14.295  0.00  0.00    +0.000 A 
ATOM     22  C   UNL     1       6.108   3.684  13.953  0.00  0.00    +0.000 A 
ATOM     23  C   UNL     1       6.046   3.450  12.549  0.00  0.00    +0.000 A 
ATOM     24  C   UNL     1       7.007   4.161  11.867  0.00  0.00    +0.000 A 
ATOM     25  S   UNL     1       7.956   5.121  12.909  0.00  0.00    +0.000 S 
ENDBRANCH  18  21
ENDBRANCH  16  19
ENDBRANCH  15  16
ENDBRANCH   1  15
TORSDOF 6
ENDMDL
MODEL 2
REMARK VINA RESULT:      -7.5      4.489      6.198
REMARK  Name = 
REMARK  6 active torsions:
REMARK  status: ('A' for Active; 'I' for Inactive)
REMARK    1  A    between atoms: C_2  and  C_20
REMARK    2  A    between atoms: N_3  and  C_4
REMARK    3  A    between atoms: C_4  and  C_5
REMARK    4  A    between atoms: C_5  and  C_6
REMARK    5  A    between atoms: C_9  and  S_10
REMARK    6  A    between atoms: S_10  and  N_13
REMARK                            x       y       z     vdW  Elec       q    Type
REMARK                         _______ _______ _______ _____ _____    ______ ____
ROOT
ATOM      1  C   UNL     1       7.113   7.143  17.702  0.00  0.00    +0.000 A 
ATOM      2  C   UNL     1       5.762   7.163  17.322  0.00  0.00    +0.000 A 
ATOM      3  C   UNL     1       4.916   6.083  17.588  0.00  0.00    +0.000 A 
ATOM      4  C   UNL     1       5.420   4.932  18.194  0.00  0.00    +0.000 A 
ATOM      5  C   UNL     1       6.793   4.860  18.491  0.00  0.00    +0.000 A 
ATOM      6  C   UNL     1       7.622   5.963  18.277  0.00  0.00    +0.000 A 
ENDROOT
BRANCH   4   7
ATOM      7  S   UNL     1       4.330   3.593  18.657  0.00  0.00    +0.000 S 
ATOM      8  O   UNL     1       4.033   2.861  17.439  0.00  0.00    +0.000 OA
ATOM      9  O   UNL     1       4.925   2.926  19.792  0.00  0.00    +0.000 OA
BRANCH   7  10
ATOM     10  N   UNL     1       2.878   4.324  19.170  0.00  0.00    +0.000 NA
ATOM     11  C   UNL     1       2.660   4.584  20.604  0.00  0.00    +0.000 C 
ATOM     12  C   UNL     1       1.748   3.469  21.075  0.00  0.00    +0.000 C 
ATOM     13  C   UNL     1       0.822   3.247  19.893  0.00  0.00    +0.000 C 
ATOM     14  C   UNL     1       1.614   3.708  18.662  0.00  0.00    +0.000 C 
ENDBRANCH   7  10
ENDBRANCH   4   7
BRANCH   1  15
ATOM     15  C   UNL     1       8.050   8.307  17.478  0.00  0.00    +0.000 C 
BRANCH  15  16
ATOM     16  C   UNL     1       8.550   8.970  18.766  0.00  0.00    +0.000 C 
BRANCH  16  19
ATOM     17  O   UNL     1       9.353  10.815  20.712  0.00  0.00    +0.000 OA
ATOM     18  C   UNL     1       9.657  11.033  19.537  0.00  0.00    +0.000 C 
ATOM     19  N   UNL     1       9.288  10.182  18.522  0.00  0.00    +0.000 N 
ATOM     20  H   UNL     1       9.608  10.388  17.582  0.00  0.00    +0.000 HD
BRANCH  18  21
ATOM     21  C   UNL     1      10.444  12.188  19.129  0.00  0.00    +0.000 A 
ATOM     22  C   UNL     1      11.541  12.715  19.781  0.00  0.00    +0.000 A 
ATOM     23  C   UNL     1      12.084  13.847  19.108  0.00  0.00    +0.000 A 
ATOM     24  C   UNL     1      11.368  14.163  17.976  0.00  0.00    +0.000 A 
ATOM     25  S   UNL     1      10.071  13.088  17.716  0.00  0.00    +0.000 S 
ENDBRANCH  18  21
ENDBRANCH  16  19
ENDBRANCH  15  16
ENDBRANCH   1  15
TORSDOF 6
ENDMDL
MODEL 3
REMARK VINA RESULT:      -7.5      5.807      7.607
REMARK  Name = 
REMARK  6 active torsions:
REMARK  status: ('A' for Active; 'I' for Inactive)
REMARK    1  A    between atoms: C_2  and  C_20
REMARK    2  A    between atoms: N_3  and  C_4
REMARK    3  A    between atoms: C_4  and  C_5
REMARK    4  A    between atoms: C_5  and  C_6
REMARK    5  A    between atoms: C_9  and  S_10
REMARK    6  A    between atoms: S_10  and  N_13
REMARK                            x       y       z     vdW  Elec       q    Type
REMARK                         _______ _______ _______ _____ _____    ______ ____
ROOT
ATOM      1  C   UNL     1       2.183   7.776  19.122  0.00  0.00    +0.000 A 
ATOM      2  C   UNL     1       2.938   7.713  17.940  0.00  0.00    +0.000 A 
ATOM      3  C   UNL     1       3.765   6.620  17.664  0.00  0.00    +0.000 A 
ATOM      4  C   UNL     1       3.897   5.589  18.595  0.00  0.00    +0.000 A 
ATOM      5  C   UNL     1       3.223   5.687  19.825  0.00  0.00    +0.000 A 
ATOM      6  C   UNL     1       2.353   6.751  20.072  0.00  0.00    +0.000 A 
ENDROOT
BRANCH   4   7
ATOM      7  S   UNL     1       4.848   4.126  18.207  0.00  0.00    +0.000 S 
ATOM      8  O   UNL     1       5.574   4.417  16.983  0.00  0.00    +0.000 OA
ATOM      9  O   UNL     1       5.551   3.739  19.407  0.00  0.00    +0.000 OA
BRANCH   7  10
ATOM     10  N   UNL     1       3.711   2.910  17.839  0.00  0.00    +0.000 NA
ATOM     11  C   UNL     1       2.450   3.271  17.168  0.00  0.00    +0.000 C 
ATOM     12  C   UNL     1       1.408   3.295  18.269  0.00  0.00    +0.000 C 
ATOM     13  C   UNL     1       1.828   2.153  19.177  0.00  0.00    +0.000 C 
ATOM     14  C   UNL     1       3.339   1.993  18.961  0.00  0.00    +0.000 C 
ENDBRANCH   7  10
ENDBRANCH   4   7
BRANCH   1  15
ATOM     15  C   UNL     1       1.241   8.913  19.438  0.00  0.00    +0.000 C 
BRANCH  15  16
ATOM     16  C   UNL     1       1.192  10.007  18.367  0.00  0.00    +0.000 C 
BRANCH  16  19
ATOM     17  O   UNL     1      -0.939  11.544  19.335  0.00  0.00    +0.000 OA
ATOM     18  C   UNL     1      -1.097  10.920  18.283  0.00  0.00    +0.000 C 
ATOM     19  N   UNL     1      -0.104  10.132  17.750  0.00  0.00    +0.000 N 
ATOM     20  H   UNL     1      -0.275   9.681  16.858  0.00  0.00    +0.000 HD
BRANCH  18  21
ATOM     21  C   UNL     1      -2.330  10.978  17.511  0.00  0.00    +0.000 A 
ATOM     22  C   UNL     1      -2.497  10.614  16.189  0.00  0.00    +0.000 A 
ATOM     23  C   UNL     1      -3.837  10.788  15.740  0.00  0.00    +0.000 A 
ATOM     24  C   UNL     1      -4.646  11.304  16.728  0.00  0.00    +0.000 A 
ATOM     25  S   UNL     1      -3.800  11.548  18.187  0.00  0.00    +0.000 S 
ENDBRANCH  18  21
ENDBRANCH  16  19
ENDBRANCH  15  16
ENDBRANCH   1  15
TORSDOF 6
ENDMDL
MODEL 4
REMARK VINA RESULT:      -7.4      4.232      5.907
REMARK  Name = 
REMARK  6 active torsions:
REMARK  status: ('A' for Active; 'I' for Inactive)
REMARK    1  A    between atoms: C_2  and  C_20
REMARK    2  A    between atoms: N_3  and  C_4
REMARK    3  A    between atoms: C_4  and  C_5
REMARK    4  A    between atoms: C_5  and  C_6
REMARK    5  A    between atoms: C_9  and  S_10
REMARK    6  A    between atoms: S_10  and  N_13
REMARK                            x       y       z     vdW  Elec       q    Type
REMARK                         _______ _______ _______ _____ _____    ______ ____
ROOT
ATOM      1  C   UNL     1       6.868   6.833  17.713  0.00  0.00    +0.000 A 
ATOM      2  C   UNL     1       5.718   6.439  17.010  0.00  0.00    +0.000 A 
ATOM      3  C   UNL     1       4.945   5.354  17.432  0.00  0.00    +0.000 A 
ATOM      4  C   UNL     1       5.339   4.602  18.540  0.00  0.00    +0.000 A 
ATOM      5  C   UNL     1       6.541   4.926  19.194  0.00  0.00    +0.000 A 
ATOM      6  C   UNL     1       7.278   6.046  18.805  0.00  0.00    +0.000 A 
ENDROOT
BRANCH   4   7
ATOM      7  S   UNL     1       4.299   3.292  19.170  0.00  0.00    +0.000 S 
ATOM      8  O   UNL     1       3.540   2.786  18.039  0.00  0.00    +0.000 OA
ATOM      9  O   UNL     1       5.138   2.412  19.948  0.00  0.00    +0.000 OA
BRANCH   7  10
ATOM     10  N   UNL     1       3.188   4.040  20.225  0.00  0.00    +0.000 NA
ATOM     11  C   UNL     1       2.637   3.279  21.361  0.00  0.00    +0.000 C 
ATOM     12  C   UNL     1       1.252   2.851  20.917  0.00  0.00    +0.000 C 
ATOM     13  C   UNL     1       0.759   4.036  20.106  0.00  0.00    +0.000 C 
ATOM     14  C   UNL     1       2.026   4.727  19.582  0.00  0.00    +0.000 C 
ENDBRANCH   7  10
ENDBRANCH   4   7
BRANCH   1  15
ATOM     15  C   UNL     1       7.703   8.029  17.321  0.00  0.00    +0.000 C 
BRANCH  15  16
ATOM     16  C   UNL     1       8.462   8.676  18.484  0.00  0.00    +0.000 C 
BRANCH  16  19
ATOM     17  O   UNL     1       9.329  10.549  20.375  0.00  0.00    +0.000 OA
ATOM     18  C   UNL     1       9.302  10.884  19.188  0.00  0.00    +0.000 C 
ATOM     19  N   UNL     1       8.875  10.026  18.202  0.00  0.00    +0.000 N 
ATOM     20  H   UNL     1       8.920  10.341  17.239  0.00  0.00    +0.000 HD
BRANCH  18  21
ATOM     21  C   UNL     1       9.733  12.197  18.731  0.00  0.00    +0.000 A 
ATOM     22  C   UNL     1       9.266  13.421  19.168  0.00  0.00    +0.000 A 
ATOM     23  C   UNL     1       9.907  14.514  18.517  0.00  0.00    +0.000 A 
ATOM     24  C   UNL     1      10.826  14.088  17.585  0.00  0.00    +0.000 A 
ATOM     25  S   UNL     1      10.932  12.388  17.518  0.00  0.00    +0.000 S 
ENDBRANCH  18  21
ENDBRANCH  16  19
ENDBRANCH  15  16
ENDBRANCH   1  15
TORSDOF 6
ENDMDL
MODEL 5
REMARK VINA RESULT:      -7.4      4.100      5.646
REMARK  Name = 
REMARK  6 active torsions:
REMARK  status: ('A' for Active; 'I' for Inactive)
REMARK    1  A    between atoms: C_2  and  C_20
REMARK    2  A    between atoms: N_3  and  C_4
REMARK    3  A    between atoms: C_4  and  C_5
REMARK    4  A    between atoms: C_5  and  C_6
REMARK    5  A    between atoms: C_9  and  S_10
REMARK    6  A    between atoms: S_10  and  N_13
REMARK                            x       y       z     vdW  Elec       q    Type
REMARK                         _______ _______ _______ _____ _____    ______ ____
ROOT
ATOM      1  C   UNL     1       6.835   6.441  17.474  0.00  0.00    +0.000 A 
ATOM      2  C   UNL     1       6.030   5.760  16.547  0.00  0.00    +0.000 A 
ATOM      3  C   UNL     1       5.215   4.694  16.936  0.00  0.00    +0.000 A 
ATOM      4  C   UNL     1       5.228   4.249  18.259  0.00  0.00    +0.000 A 
ATOM      5  C   UNL     1       6.102   4.858  19.177  0.00  0.00    +0.000 A 
ATOM      6  C   UNL     1       6.872   5.960  18.797  0.00  0.00    +0.000 A 
ENDROOT
BRANCH   4   7
ATOM      7  S   UNL     1       4.102   2.973  18.803  0.00  0.00    +0.000 S 
ATOM      8  O   UNL     1       3.810   2.153  17.640  0.00  0.00    +0.000 OA
ATOM      9  O   UNL     1       4.661   2.385  19.998  0.00  0.00    +0.000 OA
BRANCH   7  10
ATOM     10  N   UNL     1       2.657   3.772  19.229  0.00  0.00    +0.000 NA
ATOM     11  C   UNL     1       1.859   4.440  18.185  0.00  0.00    +0.000 C 
ATOM     12  C   UNL     1       2.193   5.913  18.314  0.00  0.00    +0.000 C 
ATOM     13  C   UNL     1       2.344   6.112  19.811  0.00  0.00    +0.000 C 
ATOM     14  C   UNL     1       2.748   4.739  20.366  0.00  0.00    +0.000 C 
ENDBRANCH   7  10
ENDBRANCH   4   7
BRANCH   1  15
ATOM     15  C   UNL     1       7.693   7.628  17.106  0.00  0.00    +0.000 C 
BRANCH  15  16
ATOM     16  C   UNL     1       8.115   8.494  18.298  0.00  0.00    +0.000 C 
BRANCH  16  19
ATOM     17  O   UNL     1       9.365  10.319  20.013  0.00  0.00    +0.000 OA
ATOM     18  C   UNL     1       9.351  10.566  18.804  0.00  0.00    +0.000 C 
ATOM     19  N   UNL     1       8.744   9.726  17.900  0.00  0.00    +0.000 N 
ATOM     20  H   UNL     1       8.806   9.957  16.914  0.00  0.00    +0.000 HD
BRANCH  18  21
ATOM     21  C   UNL     1       9.986  11.745  18.234  0.00  0.00    +0.000 A 
ATOM     22  C   UNL     1      11.292  11.853  17.797  0.00  0.00    +0.000 A 
ATOM     23  C   UNL     1      11.590  13.148  17.285  0.00  0.00    +0.000 A 
ATOM     24  C   UNL     1      10.508  13.996  17.369  0.00  0.00    +0.000 A 
ATOM     25  S   UNL     1       9.141  13.226  18.035  0.00  0.00    +0.000 S 
ENDBRANCH  18  21
ENDBRANCH  16  19
ENDBRANCH  15  16
ENDBRANCH   1  15
TORSDOF 6
ENDMDL
MODEL 6
REMARK VINA RESULT:      -7.4      4.361      5.920
REMARK  Name = 
REMARK  6 active torsions:
REMARK  status: ('A' for Active; 'I' for Inactive)
REMARK    1  A    between atoms: C_2  and  C_20
REMARK    2  A    between atoms: N_3  and  C_4
REMARK    3  A    between atoms: C_4  and  C_5
REMARK    4  A    between atoms: C_5  and  C_6
REMARK    5  A    between atoms: C_9  and  S_10
REMARK    6  A    between atoms: S_10  and  N_13
REMARK                            x       y       z     vdW  Elec       q    Type
REMARK                         _______ _______ _______ _____ _____    ______ ____
ROOT
ATOM      1  C   UNL     1       6.986   6.784  17.528  0.00  0.00    +0.000 A 
ATOM      2  C   UNL     1       5.998   6.375  16.619  0.00  0.00    +0.000 A 
ATOM      3  C   UNL     1       5.123   5.328  16.919  0.00  0.00    +0.000 A 
ATOM      4  C   UNL     1       5.255   4.627  18.119  0.00  0.00    +0.000 A 
ATOM      5  C   UNL     1       6.302   4.963  18.996  0.00  0.00    +0.000 A 
ATOM      6  C   UNL     1       7.137   6.047  18.718  0.00  0.00    +0.000 A 
ENDROOT
BRANCH   4   7
ATOM      7  S   UNL     1       4.069   3.371  18.577  0.00  0.00    +0.000 S 
ATOM      8  O   UNL     1       3.976   2.459  17.451  0.00  0.00    +0.000 OA
ATOM      9  O   UNL     1       4.436   2.890  19.888  0.00  0.00    +0.000 OA
BRANCH   7  10
ATOM     10  N   UNL     1       2.566   4.167  18.703  0.00  0.00    +0.000 NA
ATOM     11  C   UNL     1       2.476   5.442  19.436  0.00  0.00    +0.000 C 
ATOM     12  C   UNL     1       1.899   5.081  20.790  0.00  0.00    +0.000 C 
ATOM     13  C   UNL     1       0.905   3.980  20.469  0.00  0.00    +0.000 C 
ATOM     14  C   UNL     1       1.416   3.334  19.174  0.00  0.00    +0.000 C 
ENDBRANCH   7  10
ENDBRANCH   4   7
BRANCH   1  15
ATOM     15  C   UNL     1       7.920   7.942  17.265  0.00  0.00    +0.000 C 
BRANCH  15  16
ATOM     16  C   UNL     1       8.308   8.736  18.517  0.00  0.00    +0.000 C 
BRANCH  16  19
ATOM     17  O   UNL     1       9.402  10.517  20.379  0.00  0.00    +0.000 OA
ATOM     18  C   UNL     1       9.445  10.819  19.183  0.00  0.00    +0.000 C 
ATOM     19  N   UNL     1       8.917  10.004  18.210  0.00  0.00    +0.000 N 
ATOM     20  H   UNL     1       9.024  10.282  17.240  0.00  0.00    +0.000 HD
BRANCH  18  21
ATOM     21  C   UNL     1      10.070  12.043  18.702  0.00  0.00    +0.000 A 
ATOM     22  C   UNL     1      10.658  12.242  17.468  0.00  0.00    +0.000 A 
ATOM     23  C   UNL     1      11.170  13.563  17.315  0.00  0.00    +0.000 A 
ATOM     24  C   UNL     1      10.979  14.322  18.447  0.00  0.00    +0.000 A 
ATOM     25  S   UNL     1      10.166  13.456  19.670  0.00  0.00    +0.000 S 
ENDBRANCH  18  21
ENDBRANCH  16  19
ENDBRANCH  15  16
ENDBRANCH   1  15
TORSDOF 6
ENDMDL
MODEL 7
REMARK VINA RESULT:      -7.2      4.488      6.019
REMARK  Name = 
REMARK  6 active torsions:
REMARK  status: ('A' for Active; 'I' for Inactive)
REMARK    1  A    between atoms: C_2  and  C_20
REMARK    2  A    between atoms: N_3  and  C_4
REMARK    3  A    between atoms: C_4  and  C_5
REMARK    4  A    between atoms: C_5  and  C_6
REMARK    5  A    between atoms: C_9  and  S_10
REMARK    6  A    between atoms: S_10  and  N_13
REMARK                            x       y       z     vdW  Elec       q    Type
REMARK                         _______ _______ _______ _____ _____    ______ ____
ROOT
ATOM      1  C   UNL     1       7.143   7.156  17.745  0.00  0.00    +0.000 A 
ATOM      2  C   UNL     1       7.557   6.127  18.604  0.00  0.00    +0.000 A 
ATOM      3  C   UNL     1       6.712   5.059  18.921  0.00  0.00    +0.000 A 
ATOM      4  C   UNL     1       5.408   5.028  18.425  0.00  0.00    +0.000 A 
ATOM      5  C   UNL     1       4.948   6.102  17.642  0.00  0.00    +0.000 A 
ATOM      6  C   UNL     1       5.814   7.136  17.281  0.00  0.00    +0.000 A 
ENDROOT
BRANCH   4   7
ATOM      7  S   UNL     1       4.356   3.613  18.713  0.00  0.00    +0.000 S 
ATOM      8  O   UNL     1       4.157   2.975  17.424  0.00  0.00    +0.000 OA
ATOM      9  O   UNL     1       4.918   2.877  19.821  0.00  0.00    +0.000 OA
BRANCH   7  10
ATOM     10  N   UNL     1       2.847   4.239  19.201  0.00  0.00    +0.000 NA
ATOM     11  C   UNL     1       2.542   4.370  20.637  0.00  0.00    +0.000 C 
ATOM     12  C   UNL     1       1.658   3.184  20.964  0.00  0.00    +0.000 C 
ATOM     13  C   UNL     1       0.806   3.023  19.718  0.00  0.00    +0.000 C 
ATOM     14  C   UNL     1       1.640   3.617  18.574  0.00  0.00    +0.000 C 
ENDBRANCH   7  10
ENDBRANCH   4   7
BRANCH   1  15
ATOM     15  C   UNL     1       8.040   8.301  17.337  0.00  0.00    +0.000 C 
BRANCH  15  16
ATOM     16  C   UNL     1       8.633   9.085  18.512  0.00  0.00    +0.000 C 
BRANCH  16  19
ATOM     17  O   UNL     1      10.589  10.939  19.274  0.00  0.00    +0.000 OA
ATOM     18  C   UNL     1       9.568  11.357  18.720  0.00  0.00    +0.000 C 
ATOM     19  N   UNL     1       8.557  10.512  18.330  0.00  0.00    +0.000 N 
ATOM     20  H   UNL     1       7.764  10.907  17.837  0.00  0.00    +0.000 HD
BRANCH  18  21
ATOM     21  C   UNL     1       9.357  12.765  18.418  0.00  0.00    +0.000 A 
ATOM     22  C   UNL     1       8.200  13.344  17.934  0.00  0.00    +0.000 A 
ATOM     23  C   UNL     1       8.328  14.751  17.755  0.00  0.00    +0.000 A 
ATOM     24  C   UNL     1       9.588  15.198  18.084  0.00  0.00    +0.000 A 
ATOM     25  S   UNL     1      10.594  13.936  18.630  0.00  0.00    +0.000 S 
ENDBRANCH  18  21
ENDBRANCH  16  19
ENDBRANCH  15  16
ENDBRANCH   1  15
TORSDOF 6
ENDMDL
MODEL 8
REMARK VINA RESULT:      -7.2      1.242      1.391
REMARK  Name = 
REMARK  6 active torsions:
REMARK  status: ('A' for Active; 'I' for Inactive)
REMARK    1  A    between atoms: C_2  and  C_20
REMARK    2  A    between atoms: N_3  and  C_4
REMARK    3  A    between atoms: C_4  and  C_5
REMARK    4  A    between atoms: C_5  and  C_6
REMARK    5  A    between atoms: C_9  and  S_10
REMARK    6  A    between atoms: S_10  and  N_13
REMARK                            x       y       z     vdW  Elec       q    Type
REMARK                         _______ _______ _______ _____ _____    ______ ____
ROOT
ATOM      1  C   UNL     1       5.805   5.489  18.379  0.00  0.00    +0.000 A 
ATOM      2  C   UNL     1       5.672   4.117  18.645  0.00  0.00    +0.000 A 
ATOM      3  C   UNL     1       4.433   3.477  18.560  0.00  0.00    +0.000 A 
ATOM      4  C   UNL     1       3.284   4.211  18.260  0.00  0.00    +0.000 A 
ATOM      5  C   UNL     1       3.388   5.603  18.088  0.00  0.00    +0.000 A 
ATOM      6  C   UNL     1       4.636   6.229  18.116  0.00  0.00    +0.000 A 
ENDROOT
BRANCH   4   7
ATOM      7  S   UNL     1       1.714   3.392  18.022  0.00  0.00    +0.000 S 
ATOM      8  O   UNL     1       0.882   4.305  17.258  0.00  0.00    +0.000 OA
ATOM      9  O   UNL     1       1.991   2.063  17.533  0.00  0.00    +0.000 OA
BRANCH   7  10
ATOM     10  N   UNL     1       1.016   3.255  19.572  0.00  0.00    +0.000 NA
ATOM     11  C   UNL     1       0.980   4.429  20.462  0.00  0.00    +0.000 C 
ATOM     12  C   UNL     1       2.119   4.220  21.440  0.00  0.00    +0.000 C 
ATOM     13  C   UNL     1       2.111   2.720  21.676  0.00  0.00    +0.000 C 
ATOM     14  C   UNL     1       1.491   2.111  20.411  0.00  0.00    +0.000 C 
ENDBRANCH   7  10
ENDBRANCH   4   7
BRANCH   1  15
ATOM     15  C   UNL     1       7.132   6.210  18.411  0.00  0.00    +0.000 C 
BRANCH  15  16
ATOM     16  C   UNL     1       7.531   6.854  17.080  0.00  0.00    +0.000 C 
BRANCH  16  19
ATOM     17  O   UNL     1       5.485   6.756  15.171  0.00  0.00    +0.000 OA
ATOM     18  C   UNL     1       6.425   5.963  15.066  0.00  0.00    +0.000 C 
ATOM     19  N   UNL     1       7.459   5.939  15.970  0.00  0.00    +0.000 N 
ATOM     20  H   UNL     1       8.228   5.298  15.805  0.00  0.00    +0.000 HD
BRANCH  18  21
ATOM     21  C   UNL     1       6.528   5.006  13.973  0.00  0.00    +0.000 A 
ATOM     22  C   UNL     1       5.699   3.927  13.736  0.00  0.00    +0.000 A 
ATOM     23  C   UNL     1       6.075   3.195  12.574  0.00  0.00    +0.000 A 
ATOM     24  C   UNL     1       7.195   3.724  11.974  0.00  0.00    +0.000 A 
ATOM     25  S   UNL     1       7.768   5.106  12.792  0.00  0.00    +0.000 S 
ENDBRANCH  18  21
ENDBRANCH  16  19
ENDBRANCH  15  16
ENDBRANCH   1  15
TORSDOF 6
ENDMDL
MODEL 9
REMARK VINA RESULT:      -7.2      4.435      6.126
REMARK  Name = 
REMARK  6 active torsions:
REMARK  status: ('A' for Active; 'I' for Inactive)
REMARK    1  A    between atoms: C_2  and  C_20
REMARK    2  A    between atoms: N_3  and  C_4
REMARK    3  A    between atoms: C_4  and  C_5
REMARK    4  A    between atoms: C_5  and  C_6
REMARK    5  A    between atoms: C_9  and  S_10
REMARK    6  A    between atoms: S_10  and  N_13
REMARK                            x       y       z     vdW  Elec       q    Type
REMARK                         _______ _______ _______ _____ _____    ______ ____
ROOT
ATOM      1  C   UNL     1       7.215   7.099  17.602  0.00  0.00    +0.000 A 
ATOM      2  C   UNL     1       5.834   7.246  17.393  0.00  0.00    +0.000 A 
ATOM      3  C   UNL     1       4.944   6.202  17.658  0.00  0.00    +0.000 A 
ATOM      4  C   UNL     1       5.424   4.964  18.086  0.00  0.00    +0.000 A 
ATOM      5  C   UNL     1       6.812   4.772  18.205  0.00  0.00    +0.000 A 
ATOM      6  C   UNL     1       7.693   5.835  17.996  0.00  0.00    +0.000 A 
ENDROOT
BRANCH   4   7
ATOM      7  S   UNL     1       4.295   3.658  18.551  0.00  0.00    +0.000 S 
ATOM      8  O   UNL     1       3.987   2.926  17.335  0.00  0.00    +0.000 OA
ATOM      9  O   UNL     1       4.864   2.984  19.694  0.00  0.00    +0.000 OA
BRANCH   7  10
ATOM     10  N   UNL     1       2.860   4.432  19.048  0.00  0.00    +0.000 NA
ATOM     11  C   UNL     1       2.614   4.658  20.484  0.00  0.00    +0.000 C 
ATOM     12  C   UNL     1       1.646   3.567  20.896  0.00  0.00    +0.000 C 
ATOM     13  C   UNL     1       0.743   3.418  19.684  0.00  0.00    +0.000 C 
ATOM     14  C   UNL     1       1.586   3.884  18.489  0.00  0.00    +0.000 C 
ENDBRANCH   7  10
ENDBRANCH   4   7
BRANCH   1  15
ATOM     15  C   UNL     1       8.206   8.216  17.376  0.00  0.00    +0.000 C 
BRANCH  15  16
ATOM     16  C   UNL     1       7.882   9.508  18.132  0.00  0.00    +0.000 C 
BRANCH  16  19
ATOM     17  O   UNL     1       8.103  12.191  17.361  0.00  0.00    +0.000 OA
ATOM     18  C   UNL     1       9.062  11.664  17.932  0.00  0.00    +0.000 C 
ATOM     19  N   UNL     1       9.036  10.347  18.328  0.00  0.00    +0.000 N 
ATOM     20  H   UNL     1       9.835   9.983  18.835  0.00  0.00    +0.000 HD
BRANCH  18  21
ATOM     21  C   UNL     1      10.284  12.388  18.249  0.00  0.00    +0.000 A 
ATOM     22  C   UNL     1      10.892  12.485  19.485  0.00  0.00    +0.000 A 
ATOM     23  C   UNL     1      12.083  13.265  19.447  0.00  0.00    +0.000 A 
ATOM     24  C   UNL     1      12.333  13.760  18.187  0.00  0.00    +0.000 A 
ATOM     25  S   UNL     1      11.157  13.264  17.058  0.00  0.00    +0.000 S 
ENDBRANCH  18  21
ENDBRANCH  16  19
ENDBRANCH  15  16
ENDBRANCH   1  15
TORSDOF 6
ENDMDL
