MODEL 1
REMARK VINA RESULT:      -7.7      0.000      0.000
REMARK  Name = 
REMARK  3 active torsions:
REMARK  status: ('A' for Active; 'I' for Inactive)
REMARK    1  A    between atoms: C_1  and  C_2
REMARK    2  A    between atoms: N_6  and  C_7
REMARK    3  A    between atoms: C_11  and  C_13
REMARK                            x       y       z     vdW  Elec       q    Type
REMARK                         _______ _______ _______ _____ _____    ______ ____
ROOT
ATOM      1  C   UNL     1       1.539   6.588  20.182  0.00  0.00    +0.000 C 
ATOM      2  C   UNL     1       1.527   5.093  20.547  0.00  0.00    +0.000 C 
ATOM      3  C   UNL     1       2.905   4.468  20.716  0.00  0.00    +0.000 C 
ATOM      4  N   UNL     1       3.772   4.818  19.595  0.00  0.00    +0.000 N 
ATOM      5  C   UNL     1       4.496   3.795  18.968  0.00  0.00    +0.000 C 
ATOM      6  O   UNL     1       4.476   2.636  19.382  0.00  0.00    +0.000 OA
ATOM      7  C   UNL     1       3.981   6.255  19.454  0.00  0.00    +0.000 C 
ATOM      8  C   UNL     1       2.657   6.969  19.197  0.00  0.00    +0.000 C 
ENDROOT
BRANCH   1  14
ATOM      9  C   UNL     1      -1.479  12.181  21.105  0.00  0.00    +0.000 C 
ATOM     10  C   UNL     1      -0.680  10.920  21.239  0.00  0.00    +0.000 A 
ATOM     11  C   UNL     1      -0.042  10.577  22.424  0.00  0.00    +0.000 A 
ATOM     12  C   UNL     1       0.717   9.409  22.465  0.00  0.00    +0.000 A 
ATOM     13  C   UNL     1       0.828   8.614  21.329  0.00  0.00    +0.000 A 
ATOM     14  N   UNL     1       1.566   7.413  21.404  0.00  0.00    +0.000 N 
ATOM     15  N   UNL     1       0.190   8.990  20.202  0.00  0.00    +0.000 NA
ATOM     16  N   UNL     1      -0.558  10.148  20.146  0.00  0.00    +0.000 NA
ATOM     17  H   UNL     1       2.493   7.591  21.772  0.00  0.00    +0.000 HD
ENDBRANCH   1  14
BRANCH   5  18
ATOM     18  C   UNL     1       5.260   4.055  17.719  0.00  0.00    +0.000 A 
ATOM     19  C   UNL     1       6.603   4.450  17.751  0.00  0.00    +0.000 A 
ATOM     20  C   UNL     1       7.291   4.724  16.563  0.00  0.00    +0.000 A 
ATOM     21  C   UNL     1       6.621   4.666  15.342  0.00  0.00    +0.000 A 
ATOM     22 CL   UNL     1       7.467   5.021  13.888  0.00  0.00    +0.000 Cl
ATOM     23  C   UNL     1       5.270   4.339  15.298  0.00  0.00    +0.000 A 
ATOM     24  C   UNL     1       4.599   4.030  16.482  0.00  0.00    +0.000 A 
ATOM     25  F   UNL     1       3.302   3.698  16.392  0.00  0.00    +0.000 F 
ENDBRANCH   5  18
TORSDOF 2
ENDMDL
MODEL 2
REMARK VINA RESULT:      -7.7      1.106      1.483
REMARK  Name = 
REMARK  3 active torsions:
REMARK  status: ('A' for Active; 'I' for Inactive)
REMARK    1  A    between atoms: C_1  and  C_2
REMARK    2  A    between atoms: N_6  and  C_7
REMARK    3  A    between atoms: C_11  and  C_13
REMARK                            x       y       z     vdW  Elec       q    Type
REMARK                         _______ _______ _______ _____ _____    ______ ____
ROOT
ATOM      1  C   UNL     1       1.807   6.650  19.740  0.00  0.00    +0.000 C 
ATOM      2  C   UNL     1       1.754   5.130  19.973  0.00  0.00    +0.000 C 
ATOM      3  C   UNL     1       3.114   4.448  20.040  0.00  0.00    +0.000 C 
ATOM      4  N   UNL     1       3.957   4.868  18.926  0.00  0.00    +0.000 N 
ATOM      5  C   UNL     1       4.624   3.881  18.186  0.00  0.00    +0.000 C 
ATOM      6  O   UNL     1       4.576   2.692  18.497  0.00  0.00    +0.000 OA
ATOM      7  C   UNL     1       4.212   6.304  18.904  0.00  0.00    +0.000 C 
ATOM      8  C   UNL     1       2.907   7.080  18.755  0.00  0.00    +0.000 C 
ENDROOT
BRANCH   1  14
ATOM      9  C   UNL     1      -1.438  11.918  21.462  0.00  0.00    +0.000 C 
ATOM     10  C   UNL     1      -0.556  10.708  21.402  0.00  0.00    +0.000 A 
ATOM     11  C   UNL     1       0.212  10.304  22.486  0.00  0.00    +0.000 A 
ATOM     12  C   UNL     1       1.040   9.192  22.348  0.00  0.00    +0.000 A 
ATOM     13  C   UNL     1       1.090   8.512  21.135  0.00  0.00    +0.000 A 
ATOM     14  N   UNL     1       1.902   7.362  21.029  0.00  0.00    +0.000 N 
ATOM     15  N   UNL     1       0.325   8.943  20.111  0.00  0.00    +0.000 NA
ATOM     16  N   UNL     1      -0.492  10.047  20.234  0.00  0.00    +0.000 NA
ATOM     17  H   UNL     1       2.848   7.569  21.327  0.00  0.00    +0.000 HD
ENDBRANCH   1  14
BRANCH   5  18
ATOM     18  C   UNL     1       5.357   4.226  16.939  0.00  0.00    +0.000 A 
ATOM     19  C   UNL     1       4.760   4.097  15.679  0.00  0.00    +0.000 A 
ATOM     20  C   UNL     1       5.481   4.394  14.517  0.00  0.00    +0.000 A 
ATOM     21  C   UNL     1       6.823   4.760  14.607  0.00  0.00    +0.000 A 
ATOM     22 CL   UNL     1       7.709   5.107  13.175  0.00  0.00    +0.000 Cl
ATOM     23  C   UNL     1       7.450   4.831  15.846  0.00  0.00    +0.000 A 
ATOM     24  C   UNL     1       6.715   4.571  17.004  0.00  0.00    +0.000 A 
ATOM     25  F   UNL     1       7.353   4.672  18.180  0.00  0.00    +0.000 F 
ENDBRANCH   5  18
TORSDOF 2
ENDMDL
MODEL 3
REMARK VINA RESULT:      -7.0      1.670      2.066
REMARK  Name = 
REMARK  3 active torsions:
REMARK  status: ('A' for Active; 'I' for Inactive)
REMARK    1  A    between atoms: C_1  and  C_2
REMARK    2  A    between atoms: N_6  and  C_7
REMARK    3  A    between atoms: C_11  and  C_13
REMARK                            x       y       z     vdW  Elec       q    Type
REMARK                         _______ _______ _______ _____ _____    ______ ____
ROOT
ATOM      1  C   UNL     1       1.897   7.464  18.926  0.00  0.00    +0.000 C 
ATOM      2  C   UNL     1       2.094   6.106  19.620  0.00  0.00    +0.000 C 
ATOM      3  C   UNL     1       3.544   5.654  19.737  0.00  0.00    +0.000 C 
ATOM      4  N   UNL     1       4.232   5.794  18.458  0.00  0.00    +0.000 N 
ATOM      5  C   UNL     1       4.990   4.712  17.987  0.00  0.00    +0.000 C 
ATOM      6  O   UNL     1       5.146   3.689  18.653  0.00  0.00    +0.000 OA
ATOM      7  C   UNL     1       4.262   7.167  17.966  0.00  0.00    +0.000 C 
ATOM      8  C   UNL     1       2.846   7.687  17.737  0.00  0.00    +0.000 C 
ENDROOT
BRANCH   1  14
ATOM      9  C   UNL     1      -2.231  12.342  19.566  0.00  0.00    +0.000 C 
ATOM     10  C   UNL     1      -1.113  11.354  19.711  0.00  0.00    +0.000 A 
ATOM     11  C   UNL     1      -0.162  11.464  20.715  0.00  0.00    +0.000 A 
ATOM     12  C   UNL     1       0.874  10.532  20.767  0.00  0.00    +0.000 A 
ATOM     13  C   UNL     1       0.940   9.518  19.817  0.00  0.00    +0.000 A 
ATOM     14  N   UNL     1       1.971   8.558  19.913  0.00  0.00    +0.000 N 
ATOM     15  N   UNL     1      -0.009   9.453  18.861  0.00  0.00    +0.000 NA
ATOM     16  N   UNL     1      -1.033  10.375  18.795  0.00  0.00    +0.000 NA
ATOM     17  H   UNL     1       2.874   9.015  19.969  0.00  0.00    +0.000 HD
ENDBRANCH   1  14
BRANCH   5  18
ATOM     18  C   UNL     1       5.572   4.726  16.619  0.00  0.00    +0.000 A 
ATOM     19  C   UNL     1       4.867   4.224  15.518  0.00  0.00    +0.000 A 
ATOM     20  C   UNL     1       5.449   4.215  14.246  0.00  0.00    +0.000 A 
ATOM     21  C   UNL     1       6.764   4.649  14.080  0.00  0.00    +0.000 A 
ATOM     22 CL   UNL     1       7.480   4.620  12.517  0.00  0.00    +0.000 Cl
ATOM     23  C   UNL     1       7.501   5.091  15.173  0.00  0.00    +0.000 A 
ATOM     24  C   UNL     1       6.901   5.133  16.433  0.00  0.00    +0.000 A 
ATOM     25  F   UNL     1       7.640   5.586  17.457  0.00  0.00    +0.000 F 
ENDBRANCH   5  18
TORSDOF 2
ENDMDL
MODEL 4
REMARK VINA RESULT:      -6.9      4.731      8.577
REMARK  Name = 
REMARK  3 active torsions:
REMARK  status: ('A' for Active; 'I' for Inactive)
REMARK    1  A    between atoms: C_1  and  C_2
REMARK    2  A    between atoms: N_6  and  C_7
REMARK    3  A    between atoms: C_11  and  C_13
REMARK                            x       y       z     vdW  Elec       q    Type
REMARK                         _______ _______ _______ _____ _____    ______ ____
ROOT
ATOM      1  C   UNL     1       2.411   7.657  18.641  0.00  0.00    +0.000 C 
ATOM      2  C   UNL     1       2.113   7.751  20.148  0.00  0.00    +0.000 C 
ATOM      3  C   UNL     1       0.929   8.638  20.509  0.00  0.00    +0.000 C 
ATOM      4  N   UNL     1       1.019   9.923  19.822  0.00  0.00    +0.000 N 
ATOM      5  C   UNL     1       0.832  11.094  20.570  0.00  0.00    +0.000 C 
ATOM      6  O   UNL     1       0.525  11.062  21.761  0.00  0.00    +0.000 OA
ATOM      7  C   UNL     1       1.019   9.800  18.368  0.00  0.00    +0.000 C 
ATOM      8  C   UNL     1       2.222   8.989  17.896  0.00  0.00    +0.000 C 
ENDROOT
BRANCH   1  14
ATOM      9  C   UNL     1       3.944   1.421  18.598  0.00  0.00    +0.000 C 
ATOM     10  C   UNL     1       3.282   2.757  18.445  0.00  0.00    +0.000 A 
ATOM     11  C   UNL     1       2.043   2.897  17.836  0.00  0.00    +0.000 A 
ATOM     12  C   UNL     1       1.505   4.175  17.691  0.00  0.00    +0.000 A 
ATOM     13  C   UNL     1       2.213   5.281  18.149  0.00  0.00    +0.000 A 
ATOM     14  N   UNL     1       1.632   6.562  18.033  0.00  0.00    +0.000 N 
ATOM     15  N   UNL     1       3.414   5.093  18.734  0.00  0.00    +0.000 NA
ATOM     16  N   UNL     1       3.960   3.834  18.875  0.00  0.00    +0.000 NA
ATOM     17  H   UNL     1       1.341   6.732  17.077  0.00  0.00    +0.000 HD
ENDBRANCH   1  14
BRANCH   5  18
ATOM     18  C   UNL     1       1.079  12.431  19.969  0.00  0.00    +0.000 A 
ATOM     19  C   UNL     1       2.312  13.081  20.110  0.00  0.00    +0.000 A 
ATOM     20  C   UNL     1       2.510  14.354  19.565  0.00  0.00    +0.000 A 
ATOM     21  C   UNL     1       1.455  15.011  18.933  0.00  0.00    +0.000 A 
ATOM     22 CL   UNL     1       1.699  16.584  18.282  0.00  0.00    +0.000 Cl
ATOM     23  C   UNL     1       0.206  14.408  18.840  0.00  0.00    +0.000 A 
ATOM     24  C   UNL     1       0.026  13.122  19.352  0.00  0.00    +0.000 A 
ATOM     25  F   UNL     1      -1.189  12.567  19.222  0.00  0.00    +0.000 F 
ENDBRANCH   5  18
TORSDOF 2
ENDMDL
MODEL 5
REMARK VINA RESULT:      -6.8      1.402      1.566
REMARK  Name = 
REMARK  3 active torsions:
REMARK  status: ('A' for Active; 'I' for Inactive)
REMARK    1  A    between atoms: C_1  and  C_2
REMARK    2  A    between atoms: N_6  and  C_7
REMARK    3  A    between atoms: C_11  and  C_13
REMARK                            x       y       z     vdW  Elec       q    Type
REMARK                         _______ _______ _______ _____ _____    ______ ____
ROOT
ATOM      1  C   UNL     1       1.925   7.164  19.037  0.00  0.00    +0.000 C 
ATOM      2  C   UNL     1       2.185   5.842  19.780  0.00  0.00    +0.000 C 
ATOM      3  C   UNL     1       3.655   5.474  19.930  0.00  0.00    +0.000 C 
ATOM      4  N   UNL     1       4.354   5.608  18.656  0.00  0.00    +0.000 N 
ATOM      5  C   UNL     1       5.175   4.554  18.232  0.00  0.00    +0.000 C 
ATOM      6  O   UNL     1       5.376   3.564  18.934  0.00  0.00    +0.000 OA
ATOM      7  C   UNL     1       4.316   6.964  18.118  0.00  0.00    +0.000 C 
ATOM      8  C   UNL     1       2.878   7.399  17.853  0.00  0.00    +0.000 C 
ENDROOT
BRANCH   1  14
ATOM      9  C   UNL     1      -1.642  12.491  18.672  0.00  0.00    +0.000 C 
ATOM     10  C   UNL     1      -0.702  11.395  19.073  0.00  0.00    +0.000 A 
ATOM     11  C   UNL     1       0.033  11.452  20.249  0.00  0.00    +0.000 A 
ATOM     12  C   UNL     1       0.919  10.416  20.540  0.00  0.00    +0.000 A 
ATOM     13  C   UNL     1       1.056   9.353  19.654  0.00  0.00    +0.000 A 
ATOM     14  N   UNL     1       1.926   8.293  19.987  0.00  0.00    +0.000 N 
ATOM     15  N   UNL     1       0.320   9.343  18.523  0.00  0.00    +0.000 NA
ATOM     16  N   UNL     1      -0.554  10.367  18.221  0.00  0.00    +0.000 NA
ATOM     17  H   UNL     1       2.846   8.649  20.217  0.00  0.00    +0.000 HD
ENDBRANCH   1  14
BRANCH   5  18
ATOM     18  C   UNL     1       5.775   4.555  16.871  0.00  0.00    +0.000 A 
ATOM     19  C   UNL     1       7.074   5.028  16.644  0.00  0.00    +0.000 A 
ATOM     20  C   UNL     1       7.605   5.051  15.350  0.00  0.00    +0.000 A 
ATOM     21  C   UNL     1       6.817   4.661  14.268  0.00  0.00    +0.000 A 
ATOM     22 CL   UNL     1       7.469   4.709  12.678  0.00  0.00    +0.000 Cl
ATOM     23  C   UNL     1       5.504   4.249  14.468  0.00  0.00    +0.000 A 
ATOM     24  C   UNL     1       4.993   4.192  15.766  0.00  0.00    +0.000 A 
ATOM     25  F   UNL     1       3.729   3.769  15.916  0.00  0.00    +0.000 F 
ENDBRANCH   5  18
TORSDOF 2
ENDMDL
MODEL 6
REMARK VINA RESULT:      -6.6      5.007      6.972
REMARK  Name = 
REMARK  3 active torsions:
REMARK  status: ('A' for Active; 'I' for Inactive)
REMARK    1  A    between atoms: C_1  and  C_2
REMARK    2  A    between atoms: N_6  and  C_7
REMARK    3  A    between atoms: C_11  and  C_13
REMARK                            x       y       z     vdW  Elec       q    Type
REMARK                         _______ _______ _______ _____ _____    ______ ____
ROOT
ATOM      1  C   UNL     1       7.338   6.741  17.494  0.00  0.00    +0.000 C 
ATOM      2  C   UNL     1       7.119   5.746  16.341  0.00  0.00    +0.000 C 
ATOM      3  C   UNL     1       5.659   5.494  15.986  0.00  0.00    +0.000 C 
ATOM      4  N   UNL     1       4.876   5.223  17.187  0.00  0.00    +0.000 N 
ATOM      5  C   UNL     1       4.018   4.114  17.187  0.00  0.00    +0.000 C 
ATOM      6  O   UNL     1       3.857   3.417  16.186  0.00  0.00    +0.000 OA
ATOM      7  C   UNL     1       4.887   6.324  18.145  0.00  0.00    +0.000 C 
ATOM      8  C   UNL     1       6.308   6.602  18.627  0.00  0.00    +0.000 C 
ENDROOT
BRANCH   1  14
ATOM      9  C   UNL     1      10.362  11.714  20.208  0.00  0.00    +0.000 C 
ATOM     10  C   UNL     1       9.593  10.795  19.308  0.00  0.00    +0.000 A 
ATOM     11  C   UNL     1       9.070  11.222  18.096  0.00  0.00    +0.000 A 
ATOM     12  C   UNL     1       8.331  10.324  17.328  0.00  0.00    +0.000 A 
ATOM     13  C   UNL     1       8.126   9.026  17.785  0.00  0.00    +0.000 A 
ATOM     14  N   UNL     1       7.412   8.119  16.972  0.00  0.00    +0.000 N 
ATOM     15  N   UNL     1       8.655   8.659  18.970  0.00  0.00    +0.000 NA
ATOM     16  N   UNL     1       9.381   9.541  19.743  0.00  0.00    +0.000 NA
ATOM     17  H   UNL     1       6.521   8.515  16.700  0.00  0.00    +0.000 HD
ENDBRANCH   1  14
BRANCH   5  18
ATOM     18  C   UNL     1       3.325   3.685  18.431  0.00  0.00    +0.000 A 
ATOM     19  C   UNL     1       4.003   3.000  19.448  0.00  0.00    +0.000 A 
ATOM     20  C   UNL     1       3.322   2.574  20.594  0.00  0.00    +0.000 A 
ATOM     21  C   UNL     1       1.947   2.775  20.699  0.00  0.00    +0.000 A 
ATOM     22 CL   UNL     1       1.112   2.235  22.102  0.00  0.00    +0.000 Cl
ATOM     23  C   UNL     1       1.247   3.396  19.671  0.00  0.00    +0.000 A 
ATOM     24  C   UNL     1       1.938   3.852  18.548  0.00  0.00    +0.000 A 
ATOM     25  F   UNL     1       1.228   4.465  17.589  0.00  0.00    +0.000 F 
ENDBRANCH   5  18
TORSDOF 2
ENDMDL
MODEL 7
REMARK VINA RESULT:      -6.5      5.032      7.029
REMARK  Name = 
REMARK  3 active torsions:
REMARK  status: ('A' for Active; 'I' for Inactive)
REMARK    1  A    between atoms: C_1  and  C_2
REMARK    2  A    between atoms: N_6  and  C_7
REMARK    3  A    between atoms: C_11  and  C_13
REMARK                            x       y       z     vdW  Elec       q    Type
REMARK                         _______ _______ _______ _____ _____    ______ ____
ROOT
ATOM      1  C   UNL     1       7.201   6.739  17.519  0.00  0.00    +0.000 C 
ATOM      2  C   UNL     1       7.050   5.745  16.354  0.00  0.00    +0.000 C 
ATOM      3  C   UNL     1       5.613   5.466  15.936  0.00  0.00    +0.000 C 
ATOM      4  N   UNL     1       4.784   5.174  17.101  0.00  0.00    +0.000 N 
ATOM      5  C   UNL     1       3.949   4.049  17.059  0.00  0.00    +0.000 C 
ATOM      6  O   UNL     1       3.845   3.354  16.050  0.00  0.00    +0.000 OA
ATOM      7  C   UNL     1       4.733   6.271  18.062  0.00  0.00    +0.000 C 
ATOM      8  C   UNL     1       6.126   6.575  18.606  0.00  0.00    +0.000 C 
ENDROOT
BRANCH   1  14
ATOM      9  C   UNL     1      10.419  11.643  20.132  0.00  0.00    +0.000 C 
ATOM     10  C   UNL     1       9.596  10.743  19.261  0.00  0.00    +0.000 A 
ATOM     11  C   UNL     1       9.023  11.189  18.078  0.00  0.00    +0.000 A 
ATOM     12  C   UNL     1       8.236  10.309  17.338  0.00  0.00    +0.000 A 
ATOM     13  C   UNL     1       8.034   9.010  17.793  0.00  0.00    +0.000 A 
ATOM     14  N   UNL     1       7.270   8.121  17.007  0.00  0.00    +0.000 N 
ATOM     15  N   UNL     1       8.613   8.624  18.948  0.00  0.00    +0.000 NA
ATOM     16  N   UNL     1       9.387   9.489  19.694  0.00  0.00    +0.000 NA
ATOM     17  H   UNL     1       6.372   8.532  16.780  0.00  0.00    +0.000 HD
ENDBRANCH   1  14
BRANCH   5  18
ATOM     18  C   UNL     1       3.212   3.600  18.271  0.00  0.00    +0.000 A 
ATOM     19  C   UNL     1       1.829   3.784  18.396  0.00  0.00    +0.000 A 
ATOM     20  C   UNL     1       1.162   3.386  19.560  0.00  0.00    +0.000 A 
ATOM     21  C   UNL     1       1.886   2.861  20.630  0.00  0.00    +0.000 A 
ATOM     22 CL   UNL     1       1.063   2.389  22.065  0.00  0.00    +0.000 Cl
ATOM     23  C   UNL     1       3.267   2.730  20.547  0.00  0.00    +0.000 A 
ATOM     24  C   UNL     1       3.921   3.094  19.369  0.00  0.00    +0.000 A 
ATOM     25  F   UNL     1       5.252   2.932  19.323  0.00  0.00    +0.000 F 
ENDBRANCH   5  18
TORSDOF 2
ENDMDL
MODEL 8
REMARK VINA RESULT:      -6.3      4.740      8.733
REMARK  Name = 
REMARK  3 active torsions:
REMARK  status: ('A' for Active; 'I' for Inactive)
REMARK    1  A    between atoms: C_1  and  C_2
REMARK    2  A    between atoms: N_6  and  C_7
REMARK    3  A    between atoms: C_11  and  C_13
REMARK                            x       y       z     vdW  Elec       q    Type
REMARK                         _______ _______ _______ _____ _____    ______ ____
ROOT
ATOM      1  C   UNL     1       2.322   8.030  18.783  0.00  0.00    +0.000 C 
ATOM      2  C   UNL     1       1.835   8.058  20.242  0.00  0.00    +0.000 C 
ATOM      3  C   UNL     1       0.555   8.850  20.472  0.00  0.00    +0.000 C 
ATOM      4  N   UNL     1       0.635  10.157  19.827  0.00  0.00    +0.000 N 
ATOM      5  C   UNL     1       0.273  11.290  20.570  0.00  0.00    +0.000 C 
ATOM      6  O   UNL     1      -0.176  11.202  21.712  0.00  0.00    +0.000 OA
ATOM      7  C   UNL     1       0.823  10.078  18.383  0.00  0.00    +0.000 C 
ATOM      8  C   UNL     1       2.131   9.367  18.048  0.00  0.00    +0.000 C 
ENDROOT
BRANCH   1  14
ATOM      9  C   UNL     1       4.043   1.853  19.125  0.00  0.00    +0.000 C 
ATOM     10  C   UNL     1       3.377   3.162  18.830  0.00  0.00    +0.000 A 
ATOM     11  C   UNL     1       2.267   3.252  18.002  0.00  0.00    +0.000 A 
ATOM     12  C   UNL     1       1.723   4.508  17.740  0.00  0.00    +0.000 A 
ATOM     13  C   UNL     1       2.298   5.643  18.303  0.00  0.00    +0.000 A 
ATOM     14  N   UNL     1       1.705   6.901  18.060  0.00  0.00    +0.000 N 
ATOM     15  N   UNL     1       3.376   5.504  19.101  0.00  0.00    +0.000 NA
ATOM     16  N   UNL     1       3.928   4.267  19.361  0.00  0.00    +0.000 NA
ATOM     17  H   UNL     1       1.590   7.051  17.065  0.00  0.00    +0.000 HD
ENDBRANCH   1  14
BRANCH   5  18
ATOM     18  C   UNL     1       0.494  12.659  20.032  0.00  0.00    +0.000 A 
ATOM     19  C   UNL     1      -0.468  13.298  19.240  0.00  0.00    +0.000 A 
ATOM     20  C   UNL     1      -0.222  14.572  18.715  0.00  0.00    +0.000 A 
ATOM     21  C   UNL     1       1.012  15.185  18.927  0.00  0.00    +0.000 A 
ATOM     22 CL   UNL     1       1.314  16.743  18.265  0.00  0.00    +0.000 Cl
ATOM     23  C   UNL     1       2.002  14.537  19.657  0.00  0.00    +0.000 A 
ATOM     24  C   UNL     1       1.737  13.283  20.210  0.00  0.00    +0.000 A 
ATOM     25  F   UNL     1       2.712  12.702  20.925  0.00  0.00    +0.000 F 
ENDBRANCH   5  18
TORSDOF 2
ENDMDL
MODEL 9
REMARK VINA RESULT:      -6.2      4.024      8.423
REMARK  Name = 
REMARK  3 active torsions:
REMARK  status: ('A' for Active; 'I' for Inactive)
REMARK    1  A    between atoms: C_1  and  C_2
REMARK    2  A    between atoms: N_6  and  C_7
REMARK    3  A    between atoms: C_11  and  C_13
REMARK                            x       y       z     vdW  Elec       q    Type
REMARK                         _______ _______ _______ _____ _____    ______ ____
ROOT
ATOM      1  C   UNL     1       4.546   5.965  18.109  0.00  0.00    +0.000 C 
ATOM      2  C   UNL     1       4.108   5.479  19.501  0.00  0.00    +0.000 C 
ATOM      3  C   UNL     1       2.625   5.654  19.800  0.00  0.00    +0.000 C 
ATOM      4  N   UNL     1       2.185   7.002  19.456  0.00  0.00    +0.000 N 
ATOM      5  C   UNL     1       1.426   7.715  20.394  0.00  0.00    +0.000 C 
ATOM      6  O   UNL     1       1.064   7.211  21.456  0.00  0.00    +0.000 OA
ATOM      7  C   UNL     1       2.367   7.325  18.045  0.00  0.00    +0.000 C 
ATOM      8  C   UNL     1       3.843   7.257  17.663  0.00  0.00    +0.000 C 
ENDROOT
BRANCH   1  14
ATOM      9  C   UNL     1       8.140   5.046  12.868  0.00  0.00    +0.000 C 
ATOM     10  C   UNL     1       7.147   4.947  13.985  0.00  0.00    +0.000 A 
ATOM     11  C   UNL     1       6.239   3.900  14.071  0.00  0.00    +0.000 A 
ATOM     12  C   UNL     1       5.317   3.893  15.115  0.00  0.00    +0.000 A 
ATOM     13  C   UNL     1       5.315   4.928  16.045  0.00  0.00    +0.000 A 
ATOM     14  N   UNL     1       4.401   4.880  17.120  0.00  0.00    +0.000 N 
ATOM     15  N   UNL     1       6.217   5.923  15.918  0.00  0.00    +0.000 NA
ATOM     16  N   UNL     1       7.129   5.945  14.884  0.00  0.00    +0.000 NA
ATOM     17  H   UNL     1       3.458   4.747  16.775  0.00  0.00    +0.000 HD
ENDBRANCH   1  14
BRANCH   5  18
ATOM     18  C   UNL     1       1.095   9.149  20.176  0.00  0.00    +0.000 A 
ATOM     19  C   UNL     1       0.932   9.675  18.889  0.00  0.00    +0.000 A 
ATOM     20  C   UNL     1       0.655  11.035  18.707  0.00  0.00    +0.000 A 
ATOM     21  C   UNL     1       0.604  11.887  19.810  0.00  0.00    +0.000 A 
ATOM     22 CL   UNL     1       0.281  13.560  19.580  0.00  0.00    +0.000 Cl
ATOM     23  C   UNL     1       0.826  11.393  21.090  0.00  0.00    +0.000 A 
ATOM     24  C   UNL     1       1.064  10.029  21.268  0.00  0.00    +0.000 A 
ATOM     25  F   UNL     1       1.252   9.590  22.521  0.00  0.00    +0.000 F 
ENDBRANCH   5  18
TORSDOF 2
ENDMDL
