MODEL 1
REMARK VINA RESULT:      -7.7      0.000      0.000
REMARK  Name = 
REMARK  5 active torsions:
REMARK  status: ('A' for Active; 'I' for Inactive)
REMARK    1  A    between atoms: C_2  and  C_3
REMARK    2  A    between atoms: C_3  and  N_4
REMARK    3  A    between atoms: C_13  and  C_14
REMARK    4  A    between atoms: C_14  and  C_15
REMARK    5  A    between atoms: C_15  and  C_16
REMARK                            x       y       z     vdW  Elec       q    Type
REMARK                         _______ _______ _______ _____ _____    ______ ____
ROOT
ATOM      1  O   UNL     1       5.428   3.438  19.568  0.00  0.00    +0.000 OA
ATOM      2  C   UNL     1       5.241   4.073  18.531  0.00  0.00    +0.000 C 
ATOM      3  N   UNL     1       5.908   5.275  18.275  0.00  0.00    +0.000 N 
ATOM      4  C   UNL     1       5.671   6.132  17.111  0.00  0.00    +0.000 C 
ATOM      5  C   UNL     1       6.987   6.602  16.496  0.00  0.00    +0.000 C 
ATOM      6  C   UNL     1       7.914   7.256  17.533  0.00  0.00    +0.000 C 
ATOM      7  C   UNL     1       8.109   6.282  18.708  0.00  0.00    +0.000 C 
ATOM      8  C   UNL     1       6.779   5.834  19.308  0.00  0.00    +0.000 C 
ENDROOT
BRANCH   2   9
ATOM      9  C   UNL     1       4.230   3.618  17.469  0.00  0.00    +0.000 C 
BRANCH   9  10
ATOM     10  N   UNL     1       2.884   3.339  17.933  0.00  0.00    +0.000 N 
ATOM     11  C   UNL     1       2.331   2.024  18.026  0.00  0.00    +0.000 C 
ATOM     12  C   UNL     1       1.014   2.298  18.710  0.00  0.00    +0.000 C 
ATOM     13  O   UNL     1       0.731   3.676  18.431  0.00  0.00    +0.000 OA
ATOM     14  C   UNL     1       1.899   4.283  18.054  0.00  0.00    +0.000 C 
ATOM     15  O   UNL     1       2.017   5.483  17.880  0.00  0.00    +0.000 OA
ENDBRANCH   9  10
ENDBRANCH   2   9
BRANCH   6  16
ATOM     16  C   UNL     1       7.374   8.637  17.959  0.00  0.00    +0.000 C 
BRANCH  16  17
ATOM     17  C   UNL     1       8.356   9.761  17.642  0.00  0.00    +0.000 C 
BRANCH  17  18
ATOM     18  C   UNL     1       9.100  10.246  18.873  0.00  0.00    +0.000 C 
ATOM     19  O   UNL     1       9.185   9.548  19.882  0.00  0.00    +0.000 OA
ATOM     20  N   UNL     1       9.720  11.484  18.766  0.00  0.00    +0.000 N 
ATOM     21  C   UNL     1       9.641  12.327  17.567  0.00  0.00    +0.000 C 
ATOM     22  C   UNL     1      10.634  13.487  17.533  0.00  0.00    +0.000 C 
ATOM     23  C   UNL     1      10.548  14.254  18.822  0.00  0.00    +0.000 A 
ATOM     24  C   UNL     1      10.623  15.649  18.859  0.00  0.00    +0.000 A 
ATOM     25  C   UNL     1      10.536  16.314  20.081  0.00  0.00    +0.000 A 
ATOM     26  C   UNL     1      10.387  15.592  21.265  0.00  0.00    +0.000 A 
ATOM     27  C   UNL     1      10.328  14.199  21.233  0.00  0.00    +0.000 A 
ATOM     28  C   UNL     1      10.402  13.522  20.012  0.00  0.00    +0.000 A 
ATOM     29  C   UNL     1      10.385  12.014  19.957  0.00  0.00    +0.000 C 
ENDBRANCH  17  18
ENDBRANCH  16  17
ENDBRANCH   6  16
TORSDOF 5
ENDMDL
MODEL 2
REMARK VINA RESULT:      -7.6      1.211      1.486
REMARK  Name = 
REMARK  5 active torsions:
REMARK  status: ('A' for Active; 'I' for Inactive)
REMARK    1  A    between atoms: C_2  and  C_3
REMARK    2  A    between atoms: C_3  and  N_4
REMARK    3  A    between atoms: C_13  and  C_14
REMARK    4  A    between atoms: C_14  and  C_15
REMARK    5  A    between atoms: C_15  and  C_16
REMARK                            x       y       z     vdW  Elec       q    Type
REMARK                         _______ _______ _______ _____ _____    ______ ____
ROOT
ATOM      1  O   UNL     1       5.424   3.357  19.425  0.00  0.00    +0.000 OA
ATOM      2  C   UNL     1       4.999   4.261  18.706  0.00  0.00    +0.000 C 
ATOM      3  N   UNL     1       5.737   5.427  18.477  0.00  0.00    +0.000 N 
ATOM      4  C   UNL     1       5.261   6.582  17.712  0.00  0.00    +0.000 C 
ATOM      5  C   UNL     1       6.335   7.085  16.750  0.00  0.00    +0.000 C 
ATOM      6  C   UNL     1       7.671   7.357  17.460  0.00  0.00    +0.000 C 
ATOM      7  C   UNL     1       8.091   6.090  18.226  0.00  0.00    +0.000 C 
ATOM      8  C   UNL     1       7.003   5.613  19.185  0.00  0.00    +0.000 C 
ENDROOT
BRANCH   2   9
ATOM      9  C   UNL     1       3.613   4.195  18.050  0.00  0.00    +0.000 C 
BRANCH   9  10
ATOM     10  N   UNL     1       2.486   3.978  18.937  0.00  0.00    +0.000 N 
ATOM     11  C   UNL     1       2.021   4.944  19.883  0.00  0.00    +0.000 C 
ATOM     12  C   UNL     1       0.763   4.285  20.393  0.00  0.00    +0.000 C 
ATOM     13  O   UNL     1       0.944   2.886  20.132  0.00  0.00    +0.000 OA
ATOM     14  C   UNL     1       1.926   2.754  19.187  0.00  0.00    +0.000 C 
ATOM     15  O   UNL     1       2.221   1.698  18.655  0.00  0.00    +0.000 OA
ENDBRANCH   9  10
ENDBRANCH   2   9
BRANCH   6  16
ATOM     16  C   UNL     1       7.575   8.613  18.350  0.00  0.00    +0.000 C 
BRANCH  16  17
ATOM     17  C   UNL     1       8.613   9.666  17.971  0.00  0.00    +0.000 C 
BRANCH  17  18
ATOM     18  C   UNL     1       9.212  10.353  19.186  0.00  0.00    +0.000 C 
ATOM     19  O   UNL     1       8.886  10.028  20.326  0.00  0.00    +0.000 OA
ATOM     20  N   UNL     1      10.181  11.314  18.930  0.00  0.00    +0.000 N 
ATOM     21  C   UNL     1      10.593  11.707  17.576  0.00  0.00    +0.000 C 
ATOM     22  C   UNL     1      11.873  12.538  17.513  0.00  0.00    +0.000 C 
ATOM     23  C   UNL     1      11.769  13.687  18.475  0.00  0.00    +0.000 A 
ATOM     24  C   UNL     1      12.247  14.961  18.158  0.00  0.00    +0.000 A 
ATOM     25  C   UNL     1      12.125  15.996  19.085  0.00  0.00    +0.000 A 
ATOM     26  C   UNL     1      11.539  15.760  20.328  0.00  0.00    +0.000 A 
ATOM     27  C   UNL     1      11.076  14.485  20.653  0.00  0.00    +0.000 A 
ATOM     28  C   UNL     1      11.182  13.443  19.727  0.00  0.00    +0.000 A 
ATOM     29  C   UNL     1      10.728  12.046  20.073  0.00  0.00    +0.000 C 
ENDBRANCH  17  18
ENDBRANCH  16  17
ENDBRANCH   6  16
TORSDOF 5
ENDMDL
MODEL 3
REMARK VINA RESULT:      -7.6      1.019      1.069
REMARK  Name = 
REMARK  5 active torsions:
REMARK  status: ('A' for Active; 'I' for Inactive)
REMARK    1  A    between atoms: C_2  and  C_3
REMARK    2  A    between atoms: C_3  and  N_4
REMARK    3  A    between atoms: C_13  and  C_14
REMARK    4  A    between atoms: C_14  and  C_15
REMARK    5  A    between atoms: C_15  and  C_16
REMARK                            x       y       z     vdW  Elec       q    Type
REMARK                         _______ _______ _______ _____ _____    ______ ____
ROOT
ATOM      1  O   UNL     1       5.167   3.572  19.436  0.00  0.00    +0.000 OA
ATOM      2  C   UNL     1       4.847   4.502  18.697  0.00  0.00    +0.000 C 
ATOM      3  N   UNL     1       5.678   5.611  18.509  0.00  0.00    +0.000 N 
ATOM      4  C   UNL     1       5.327   6.796  17.721  0.00  0.00    +0.000 C 
ATOM      5  C   UNL     1       6.483   7.218  16.818  0.00  0.00    +0.000 C 
ATOM      6  C   UNL     1       7.796   7.395  17.597  0.00  0.00    +0.000 C 
ATOM      7  C   UNL     1       8.083   6.102  18.382  0.00  0.00    +0.000 C 
ATOM      8  C   UNL     1       6.915   5.707  19.281  0.00  0.00    +0.000 C 
ENDROOT
BRANCH   2   9
ATOM      9  C   UNL     1       3.495   4.535  17.970  0.00  0.00    +0.000 C 
BRANCH   9  10
ATOM     10  N   UNL     1       2.438   3.714  18.529  0.00  0.00    +0.000 N 
ATOM     11  C   UNL     1       1.989   2.489  17.945  0.00  0.00    +0.000 C 
ATOM     12  C   UNL     1       1.032   1.986  18.998  0.00  0.00    +0.000 C 
ATOM     13  O   UNL     1       0.638   3.154  19.730  0.00  0.00    +0.000 OA
ATOM     14  C   UNL     1       1.559   4.138  19.489  0.00  0.00    +0.000 C 
ATOM     15  O   UNL     1       1.578   5.210  20.069  0.00  0.00    +0.000 OA
ENDBRANCH   9  10
ENDBRANCH   2   9
BRANCH   6  16
ATOM     16  C   UNL     1       7.745   8.656  18.483  0.00  0.00    +0.000 C 
BRANCH  16  17
ATOM     17  C   UNL     1       8.780   9.696  18.062  0.00  0.00    +0.000 C 
BRANCH  17  18
ATOM     18  C   UNL     1       9.335  10.474  19.242  0.00  0.00    +0.000 C 
ATOM     19  O   UNL     1       9.019  10.189  20.397  0.00  0.00    +0.000 OA
ATOM     20  N   UNL     1      10.253  11.471  18.942  0.00  0.00    +0.000 N 
ATOM     21  C   UNL     1      10.652  11.818  17.572  0.00  0.00    +0.000 C 
ATOM     22  C   UNL     1      11.886  12.711  17.472  0.00  0.00    +0.000 C 
ATOM     23  C   UNL     1      11.715  13.900  18.374  0.00  0.00    +0.000 A 
ATOM     24  C   UNL     1      12.127  15.181  17.996  0.00  0.00    +0.000 A 
ATOM     25  C   UNL     1      11.944  16.252  18.869  0.00  0.00    +0.000 A 
ATOM     26  C   UNL     1      11.364  16.047  20.120  0.00  0.00    +0.000 A 
ATOM     27  C   UNL     1      10.967  14.768  20.507  0.00  0.00    +0.000 A 
ATOM     28  C   UNL     1      11.134  13.688  19.634  0.00  0.00    +0.000 A 
ATOM     29  C   UNL     1      10.753  12.288  20.048  0.00  0.00    +0.000 C 
ENDBRANCH  17  18
ENDBRANCH  16  17
ENDBRANCH   6  16
TORSDOF 5
ENDMDL
MODEL 4
REMARK VINA RESULT:      -7.6      8.438     10.884
REMARK  Name = 
REMARK  5 active torsions:
REMARK  status: ('A' for Active; 'I' for Inactive)
REMARK    1  A    between atoms: C_2  and  C_3
REMARK    2  A    between atoms: C_3  and  N_4
REMARK    3  A    between atoms: C_13  and  C_14
REMARK    4  A    between atoms: C_14  and  C_15
REMARK    5  A    between atoms: C_15  and  C_16
REMARK                            x       y       z     vdW  Elec       q    Type
REMARK                         _______ _______ _______ _____ _____    ______ ____
ROOT
ATOM      1  O   UNL     1       2.739   7.659  17.754  0.00  0.00    +0.000 OA
ATOM      2  C   UNL     1       2.414   7.417  18.916  0.00  0.00    +0.000 C 
ATOM      3  N   UNL     1       1.679   8.330  19.680  0.00  0.00    +0.000 N 
ATOM      4  C   UNL     1       1.337   8.153  21.093  0.00  0.00    +0.000 C 
ATOM      5  C   UNL     1      -0.125   8.510  21.354  0.00  0.00    +0.000 C 
ATOM      6  C   UNL     1      -0.485   9.910  20.828  0.00  0.00    +0.000 C 
ATOM      7  C   UNL     1      -0.097   9.994  19.341  0.00  0.00    +0.000 C 
ATOM      8  C   UNL     1       1.369   9.640  19.110  0.00  0.00    +0.000 C 
ENDROOT
BRANCH   2   9
ATOM      9  C   UNL     1       2.834   6.121  19.625  0.00  0.00    +0.000 C 
BRANCH   9  10
ATOM     10  N   UNL     1       2.978   4.943  18.791  0.00  0.00    +0.000 N 
ATOM     11  C   UNL     1       1.886   4.295  18.135  0.00  0.00    +0.000 C 
ATOM     12  C   UNL     1       2.605   3.270  17.293  0.00  0.00    +0.000 C 
ATOM     13  O   UNL     1       3.869   3.077  17.943  0.00  0.00    +0.000 OA
ATOM     14  C   UNL     1       4.093   4.149  18.765  0.00  0.00    +0.000 C 
ATOM     15  O   UNL     1       5.140   4.347  19.355  0.00  0.00    +0.000 OA
ENDBRANCH   9  10
ENDBRANCH   2   9
BRANCH   6  16
ATOM     16  C   UNL     1       0.161  11.007  21.698  0.00  0.00    +0.000 C 
BRANCH  16  17
ATOM     17  C   UNL     1      -0.344  12.400  21.335  0.00  0.00    +0.000 C 
BRANCH  17  18
ATOM     18  C   UNL     1      -1.257  12.982  22.400  0.00  0.00    +0.000 C 
ATOM     19  O   UNL     1      -0.813  13.351  23.487  0.00  0.00    +0.000 OA
ATOM     20  N   UNL     1      -2.593  13.126  22.051  0.00  0.00    +0.000 N 
ATOM     21  C   UNL     1      -3.140  12.704  20.755  0.00  0.00    +0.000 C 
ATOM     22  C   UNL     1      -4.543  13.226  20.452  0.00  0.00    +0.000 C 
ATOM     23  C   UNL     1      -5.445  12.935  21.617  0.00  0.00    +0.000 A 
ATOM     24  C   UNL     1      -6.768  12.519  21.442  0.00  0.00    +0.000 A 
ATOM     25  C   UNL     1      -7.565  12.259  22.555  0.00  0.00    +0.000 A 
ATOM     26  C   UNL     1      -7.050  12.424  23.841  0.00  0.00    +0.000 A 
ATOM     27  C   UNL     1      -5.736  12.855  24.019  0.00  0.00    +0.000 A 
ATOM     28  C   UNL     1      -4.923  13.106  22.909  0.00  0.00    +0.000 A 
ATOM     29  C   UNL     1      -3.513  13.615  23.078  0.00  0.00    +0.000 C 
ENDBRANCH  17  18
ENDBRANCH  16  17
ENDBRANCH   6  16
TORSDOF 5
ENDMDL
MODEL 5
REMARK VINA RESULT:      -7.5      4.537      8.057
REMARK  Name = 
REMARK  5 active torsions:
REMARK  status: ('A' for Active; 'I' for Inactive)
REMARK    1  A    between atoms: C_2  and  C_3
REMARK    2  A    between atoms: C_3  and  N_4
REMARK    3  A    between atoms: C_13  and  C_14
REMARK    4  A    between atoms: C_14  and  C_15
REMARK    5  A    between atoms: C_15  and  C_16
REMARK                            x       y       z     vdW  Elec       q    Type
REMARK                         _______ _______ _______ _____ _____    ______ ____
ROOT
ATOM      1  O   UNL     1       5.400   4.305  15.367  0.00  0.00    +0.000 OA
ATOM      2  C   UNL     1       5.667   4.100  16.550  0.00  0.00    +0.000 C 
ATOM      3  N   UNL     1       4.692   3.681  17.461  0.00  0.00    +0.000 N 
ATOM      4  C   UNL     1       4.911   3.505  18.899  0.00  0.00    +0.000 C 
ATOM      5  C   UNL     1       4.296   2.199  19.395  0.00  0.00    +0.000 C 
ATOM      6  C   UNL     1       2.815   2.067  19.002  0.00  0.00    +0.000 C 
ATOM      7  C   UNL     1       2.688   2.257  17.480  0.00  0.00    +0.000 C 
ATOM      8  C   UNL     1       3.305   3.573  17.013  0.00  0.00    +0.000 C 
ENDROOT
BRANCH   2   9
ATOM      9  C   UNL     1       7.073   4.336  17.120  0.00  0.00    +0.000 C 
BRANCH   9  10
ATOM     10  N   UNL     1       7.385   5.690  17.535  0.00  0.00    +0.000 N 
ATOM     11  C   UNL     1       7.432   6.805  16.641  0.00  0.00    +0.000 C 
ATOM     12  C   UNL     1       7.623   7.953  17.601  0.00  0.00    +0.000 C 
ATOM     13  O   UNL     1       8.194   7.363  18.777  0.00  0.00    +0.000 OA
ATOM     14  C   UNL     1       7.950   6.017  18.739  0.00  0.00    +0.000 C 
ATOM     15  O   UNL     1       8.192   5.255  19.658  0.00  0.00    +0.000 OA
ENDBRANCH   9  10
ENDBRANCH   2   9
BRANCH   6  16
ATOM     16  C   UNL     1       1.941   3.039  19.820  0.00  0.00    +0.000 C 
BRANCH  16  17
ATOM     17  C   UNL     1       1.893   4.432  19.198  0.00  0.00    +0.000 C 
BRANCH  17  18
ATOM     18  C   UNL     1       1.839   5.532  20.244  0.00  0.00    +0.000 C 
ATOM     19  O   UNL     1       1.833   5.269  21.445  0.00  0.00    +0.000 OA
ATOM     20  N   UNL     1       1.858   6.835  19.763  0.00  0.00    +0.000 N 
ATOM     21  C   UNL     1       1.877   7.170  18.333  0.00  0.00    +0.000 C 
ATOM     22  C   UNL     1       2.208   8.628  18.022  0.00  0.00    +0.000 C 
ATOM     23  C   UNL     1       1.328   9.525  18.845  0.00  0.00    +0.000 A 
ATOM     24  C   UNL     1       0.777  10.699  18.325  0.00  0.00    +0.000 A 
ATOM     25  C   UNL     1      -0.036  11.498  19.128  0.00  0.00    +0.000 A 
ATOM     26  C   UNL     1      -0.289  11.134  20.451  0.00  0.00    +0.000 A 
ATOM     27  C   UNL     1       0.273   9.972  20.978  0.00  0.00    +0.000 A 
ATOM     28  C   UNL     1       1.079   9.157  20.177  0.00  0.00    +0.000 A 
ATOM     29  C   UNL     1       1.734   7.919  20.738  0.00  0.00    +0.000 C 
ENDBRANCH  17  18
ENDBRANCH  16  17
ENDBRANCH   6  16
TORSDOF 5
ENDMDL
MODEL 6
REMARK VINA RESULT:      -7.4      6.500     11.588
REMARK  Name = 
REMARK  5 active torsions:
REMARK  status: ('A' for Active; 'I' for Inactive)
REMARK    1  A    between atoms: C_2  and  C_3
REMARK    2  A    between atoms: C_3  and  N_4
REMARK    3  A    between atoms: C_13  and  C_14
REMARK    4  A    between atoms: C_14  and  C_15
REMARK    5  A    between atoms: C_15  and  C_16
REMARK                            x       y       z     vdW  Elec       q    Type
REMARK                         _______ _______ _______ _____ _____    ______ ____
ROOT
ATOM      1  O   UNL     1       1.678  14.205  22.028  0.00  0.00    +0.000 OA
ATOM      2  C   UNL     1       1.233  14.257  20.882  0.00  0.00    +0.000 C 
ATOM      3  N   UNL     1       0.832  13.106  20.197  0.00  0.00    +0.000 N 
ATOM      4  C   UNL     1       0.381  13.076  18.803  0.00  0.00    +0.000 C 
ATOM      5  C   UNL     1      -0.871  12.216  18.647  0.00  0.00    +0.000 C 
ATOM      6  C   UNL     1      -0.688  10.810  19.239  0.00  0.00    +0.000 C 
ATOM      7  C   UNL     1      -0.224  10.944  20.701  0.00  0.00    +0.000 C 
ATOM      8  C   UNL     1       1.032  11.802  20.826  0.00  0.00    +0.000 C 
ENDROOT
BRANCH   2   9
ATOM      9  C   UNL     1       1.134  15.578  20.106  0.00  0.00    +0.000 C 
BRANCH   9  10
ATOM     10  N   UNL     1       2.329  16.010  19.406  0.00  0.00    +0.000 N 
ATOM     11  C   UNL     1       3.657  15.772  19.877  0.00  0.00    +0.000 C 
ATOM     12  C   UNL     1       4.483  16.262  18.713  0.00  0.00    +0.000 C 
ATOM     13  O   UNL     1       3.630  17.178  18.013  0.00  0.00    +0.000 OA
ATOM     14  C   UNL     1       2.338  16.931  18.392  0.00  0.00    +0.000 C 
ATOM     15  O   UNL     1       1.365  17.452  17.876  0.00  0.00    +0.000 OA
ENDBRANCH   9  10
ENDBRANCH   2   9
BRANCH   6  16
ATOM     16  C   UNL     1       0.261   9.964  18.366  0.00  0.00    +0.000 C 
BRANCH  16  17
ATOM     17  C   UNL     1       1.368   9.309  19.187  0.00  0.00    +0.000 C 
BRANCH  17  18
ATOM     18  C   UNL     1       2.175   8.308  18.380  0.00  0.00    +0.000 C 
ATOM     19  O   UNL     1       2.693   8.624  17.309  0.00  0.00    +0.000 OA
ATOM     20  N   UNL     1       2.339   7.052  18.949  0.00  0.00    +0.000 N 
ATOM     21  C   UNL     1       1.739   6.660  20.230  0.00  0.00    +0.000 C 
ATOM     22  C   UNL     1       2.288   5.364  20.824  0.00  0.00    +0.000 C 
ATOM     23  C   UNL     1       2.252   4.284  19.781  0.00  0.00    +0.000 A 
ATOM     24  C   UNL     1       1.894   2.969  20.089  0.00  0.00    +0.000 A 
ATOM     25  C   UNL     1       1.874   2.003  19.085  0.00  0.00    +0.000 A 
ATOM     26  C   UNL     1       2.222   2.343  17.777  0.00  0.00    +0.000 A 
ATOM     27  C   UNL     1       2.595   3.650  17.469  0.00  0.00    +0.000 A 
ATOM     28  C   UNL     1       2.606   4.630  18.466  0.00  0.00    +0.000 A 
ATOM     29  C   UNL     1       3.050   6.041  18.165  0.00  0.00    +0.000 C 
ENDBRANCH  17  18
ENDBRANCH  16  17
ENDBRANCH   6  16
TORSDOF 5
ENDMDL
MODEL 7
REMARK VINA RESULT:      -7.3      7.532     10.582
REMARK  Name = 
REMARK  5 active torsions:
REMARK  status: ('A' for Active; 'I' for Inactive)
REMARK    1  A    between atoms: C_2  and  C_3
REMARK    2  A    between atoms: C_3  and  N_4
REMARK    3  A    between atoms: C_13  and  C_14
REMARK    4  A    between atoms: C_14  and  C_15
REMARK    5  A    between atoms: C_15  and  C_16
REMARK                            x       y       z     vdW  Elec       q    Type
REMARK                         _______ _______ _______ _____ _____    ______ ____
ROOT
ATOM      1  O   UNL     1       2.465   5.303  21.062  0.00  0.00    +0.000 OA
ATOM      2  C   UNL     1       2.549   5.915  19.998  0.00  0.00    +0.000 C 
ATOM      3  N   UNL     1       1.859   7.112  19.782  0.00  0.00    +0.000 N 
ATOM      4  C   UNL     1       1.834   7.847  18.515  0.00  0.00    +0.000 C 
ATOM      5  C   UNL     1       2.041   9.342  18.742  0.00  0.00    +0.000 C 
ATOM      6  C   UNL     1       1.058   9.915  19.776  0.00  0.00    +0.000 C 
ATOM      7  C   UNL     1       1.162   9.087  21.069  0.00  0.00    +0.000 C 
ATOM      8  C   UNL     1       0.945   7.598  20.815  0.00  0.00    +0.000 C 
ENDROOT
BRANCH   2   9
ATOM      9  C   UNL     1       3.374   5.384  18.817  0.00  0.00    +0.000 C 
BRANCH   9  10
ATOM     10  N   UNL     1       3.155   4.000  18.442  0.00  0.00    +0.000 N 
ATOM     11  C   UNL     1       4.150   2.979  18.549  0.00  0.00    +0.000 C 
ATOM     12  C   UNL     1       3.354   1.745  18.203  0.00  0.00    +0.000 C 
ATOM     13  O   UNL     1       2.238   2.225  17.441  0.00  0.00    +0.000 OA
ATOM     14  C   UNL     1       2.100   3.565  17.684  0.00  0.00    +0.000 C 
ATOM     15  O   UNL     1       1.163   4.236  17.290  0.00  0.00    +0.000 OA
ENDBRANCH   9  10
ENDBRANCH   2   9
BRANCH   6  16
ATOM     16  C   UNL     1      -0.371   9.982  19.200  0.00  0.00    +0.000 C 
BRANCH  16  17
ATOM     17  C   UNL     1      -0.684  11.349  18.598  0.00  0.00    +0.000 C 
BRANCH  17  18
ATOM     18  C   UNL     1      -1.534  12.207  19.518  0.00  0.00    +0.000 C 
ATOM     19  O   UNL     1      -1.021  12.893  20.402  0.00  0.00    +0.000 OA
ATOM     20  N   UNL     1      -2.898  12.215  19.262  0.00  0.00    +0.000 N 
ATOM     21  C   UNL     1      -3.528  11.413  18.205  0.00  0.00    +0.000 C 
ATOM     22  C   UNL     1      -4.971  11.796  17.886  0.00  0.00    +0.000 C 
ATOM     23  C   UNL     1      -5.765  11.851  19.160  0.00  0.00    +0.000 A 
ATOM     24  C   UNL     1      -7.078  11.378  19.235  0.00  0.00    +0.000 A 
ATOM     25  C   UNL     1      -7.772  11.450  20.442  0.00  0.00    +0.000 A 
ATOM     26  C   UNL     1      -7.164  12.003  21.569  0.00  0.00    +0.000 A 
ATOM     27  C   UNL     1      -5.860  12.491  21.494  0.00  0.00    +0.000 A 
ATOM     28  C   UNL     1      -5.150  12.412  20.292  0.00  0.00    +0.000 A 
ATOM     29  C   UNL     1      -3.755  12.974  20.174  0.00  0.00    +0.000 C 
ENDBRANCH  17  18
ENDBRANCH  16  17
ENDBRANCH   6  16
TORSDOF 5
ENDMDL
MODEL 8
REMARK VINA RESULT:      -7.3      8.288     10.961
REMARK  Name = 
REMARK  5 active torsions:
REMARK  status: ('A' for Active; 'I' for Inactive)
REMARK    1  A    between atoms: C_2  and  C_3
REMARK    2  A    between atoms: C_3  and  N_4
REMARK    3  A    between atoms: C_13  and  C_14
REMARK    4  A    between atoms: C_14  and  C_15
REMARK    5  A    between atoms: C_15  and  C_16
REMARK                            x       y       z     vdW  Elec       q    Type
REMARK                         _______ _______ _______ _____ _____    ______ ____
ROOT
ATOM      1  O   UNL     1      -4.140  11.287  17.014  0.00  0.00    +0.000 OA
ATOM      2  C   UNL     1      -4.301  11.814  18.114  0.00  0.00    +0.000 C 
ATOM      3  N   UNL     1      -3.226  12.071  18.970  0.00  0.00    +0.000 N 
ATOM      4  C   UNL     1      -3.347  12.609  20.328  0.00  0.00    +0.000 C 
ATOM      5  C   UNL     1      -2.323  13.713  20.576  0.00  0.00    +0.000 C 
ATOM      6  C   UNL     1      -0.890  13.263  20.245  0.00  0.00    +0.000 C 
ATOM      7  C   UNL     1      -0.862  12.725  18.803  0.00  0.00    +0.000 C 
ATOM      8  C   UNL     1      -1.890  11.619  18.584  0.00  0.00    +0.000 C 
ENDROOT
BRANCH   2   9
ATOM      9  C   UNL     1      -5.694  12.180  18.644  0.00  0.00    +0.000 C 
BRANCH   9  10
ATOM     10  N   UNL     1      -6.392  11.155  19.397  0.00  0.00    +0.000 N 
ATOM     11  C   UNL     1      -6.741   9.875  18.864  0.00  0.00    +0.000 C 
ATOM     12  C   UNL     1      -7.272   9.173  20.089  0.00  0.00    +0.000 C 
ATOM     13  O   UNL     1      -7.672  10.226  20.977  0.00  0.00    +0.000 OA
ATOM     14  C   UNL     1      -7.049  11.378  20.577  0.00  0.00    +0.000 C 
ATOM     15  O   UNL     1      -7.079  12.422  21.206  0.00  0.00    +0.000 OA
ENDBRANCH   9  10
ENDBRANCH   2   9
BRANCH   6  16
ATOM     16  C   UNL     1      -0.374  12.254  21.291  0.00  0.00    +0.000 C 
BRANCH  16  17
ATOM     17  C   UNL     1       0.890  11.539  20.824  0.00  0.00    +0.000 C 
BRANCH  17  18
ATOM     18  C   UNL     1       0.825  10.039  21.052  0.00  0.00    +0.000 C 
ATOM     19  O   UNL     1       0.337   9.572  22.080  0.00  0.00    +0.000 OA
ATOM     20  N   UNL     1       1.290   9.241  20.015  0.00  0.00    +0.000 N 
ATOM     21  C   UNL     1       1.866   9.779  18.776  0.00  0.00    +0.000 C 
ATOM     22  C   UNL     1       2.025   8.760  17.649  0.00  0.00    +0.000 C 
ATOM     23  C   UNL     1       2.737   7.546  18.172  0.00  0.00    +0.000 A 
ATOM     24  C   UNL     1       3.700   6.871  17.418  0.00  0.00    +0.000 A 
ATOM     25  C   UNL     1       4.335   5.749  17.949  0.00  0.00    +0.000 A 
ATOM     26  C   UNL     1       4.003   5.293  19.225  0.00  0.00    +0.000 A 
ATOM     27  C   UNL     1       3.030   5.954  19.974  0.00  0.00    +0.000 A 
ATOM     28  C   UNL     1       2.396   7.088  19.456  0.00  0.00    +0.000 A 
ATOM     29  C   UNL     1       1.310   7.794  20.230  0.00  0.00    +0.000 C 
ENDBRANCH  17  18
ENDBRANCH  16  17
ENDBRANCH   6  16
TORSDOF 5
ENDMDL
MODEL 9
REMARK VINA RESULT:      -7.3      8.154     11.795
REMARK  Name = 
REMARK  5 active torsions:
REMARK  status: ('A' for Active; 'I' for Inactive)
REMARK    1  A    between atoms: C_2  and  C_3
REMARK    2  A    between atoms: C_3  and  N_4
REMARK    3  A    between atoms: C_13  and  C_14
REMARK    4  A    between atoms: C_14  and  C_15
REMARK    5  A    between atoms: C_15  and  C_16
REMARK                            x       y       z     vdW  Elec       q    Type
REMARK                         _______ _______ _______ _____ _____    ______ ____
ROOT
ATOM      1  O   UNL     1      -0.927  12.838  23.444  0.00  0.00    +0.000 OA
ATOM      2  C   UNL     1      -1.333  13.095  22.311  0.00  0.00    +0.000 C 
ATOM      3  N   UNL     1      -0.979  12.312  21.208  0.00  0.00    +0.000 N 
ATOM      4  C   UNL     1      -1.346  12.607  19.821  0.00  0.00    +0.000 C 
ATOM      5  C   UNL     1      -1.840  11.354  19.103  0.00  0.00    +0.000 C 
ATOM      6  C   UNL     1      -0.845  10.187  19.216  0.00  0.00    +0.000 C 
ATOM      7  C   UNL     1      -0.529   9.949  20.704  0.00  0.00    +0.000 C 
ATOM      8  C   UNL     1      -0.031  11.215  21.394  0.00  0.00    +0.000 C 
ENDROOT
BRANCH   2   9
ATOM      9  C   UNL     1      -2.213  14.320  22.021  0.00  0.00    +0.000 C 
BRANCH   9  10
ATOM     10  N   UNL     1      -3.584  14.259  22.492  0.00  0.00    +0.000 N 
ATOM     11  C   UNL     1      -4.684  13.837  21.683  0.00  0.00    +0.000 C 
ATOM     12  C   UNL     1      -5.804  13.800  22.693  0.00  0.00    +0.000 C 
ATOM     13  O   UNL     1      -5.386  14.683  23.744  0.00  0.00    +0.000 OA
ATOM     14  C   UNL     1      -4.033  14.859  23.637  0.00  0.00    +0.000 C 
ATOM     15  O   UNL     1      -3.356  15.449  24.462  0.00  0.00    +0.000 OA
ENDBRANCH   9  10
ENDBRANCH   2   9
BRANCH   6  16
ATOM     16  C   UNL     1       0.407  10.447  18.354  0.00  0.00    +0.000 C 
BRANCH  16  17
ATOM     17  C   UNL     1       1.667   9.849  18.974  0.00  0.00    +0.000 C 
BRANCH  17  18
ATOM     18  C   UNL     1       2.160   8.626  18.222  0.00  0.00    +0.000 C 
ATOM     19  O   UNL     1       2.557   8.711  17.061  0.00  0.00    +0.000 OA
ATOM     20  N   UNL     1       2.191   7.438  18.939  0.00  0.00    +0.000 N 
ATOM     21  C   UNL     1       1.733   7.319  20.329  0.00  0.00    +0.000 C 
ATOM     22  C   UNL     1       2.136   6.021  21.026  0.00  0.00    +0.000 C 
ATOM     23  C   UNL     1       1.759   4.852  20.161  0.00  0.00    +0.000 A 
ATOM     24  C   UNL     1       1.233   3.674  20.696  0.00  0.00    +0.000 A 
ATOM     25  C   UNL     1       0.897   2.619  19.851  0.00  0.00    +0.000 A 
ATOM     26  C   UNL     1       1.096   2.731  18.475  0.00  0.00    +0.000 A 
ATOM     27  C   UNL     1       1.637   3.899  17.938  0.00  0.00    +0.000 A 
ATOM     28  C   UNL     1       1.965   4.969  18.776  0.00  0.00    +0.000 A 
ATOM     29  C   UNL     1       2.592   6.225  18.224  0.00  0.00    +0.000 C 
ENDBRANCH  17  18
ENDBRANCH  16  17
ENDBRANCH   6  16
TORSDOF 5
ENDMDL
