MODEL 1
REMARK VINA RESULT:      -9.0      0.000      0.000
REMARK  Name = 
REMARK  5 active torsions:
REMARK  status: ('A' for Active; 'I' for Inactive)
REMARK    1  A    between atoms: C_2  and  C_11
REMARK    2  A    between atoms: N_3  and  C_4
REMARK    3  A    between atoms: C_4  and  C_5
REMARK    4  A    between atoms: C_17  and  O_18
REMARK    5  A    between atoms: O_18  and  C_19
REMARK                            x       y       z     vdW  Elec       q    Type
REMARK                         _______ _______ _______ _____ _____    ______ ____
ROOT
ATOM      1  C   UNL     1      -0.883  11.902  22.794  0.00  0.00    +0.000 C 
ATOM      2  C   UNL     1      -0.112  12.458  21.583  0.00  0.00    +0.000 C 
ATOM      3  C   UNL     1      -0.338  11.626  20.315  0.00  0.00    +0.000 C 
ATOM      4  N   UNL     1      -0.010  10.244  20.644  0.00  0.00    +0.000 N 
ATOM      5  C   UNL     1       0.764   9.500  19.778  0.00  0.00    +0.000 A 
ATOM      6  C   UNL     1       1.425   8.370  20.215  0.00  0.00    +0.000 A 
ATOM      7  C   UNL     1       2.238   7.730  19.310  0.00  0.00    +0.000 A 
ATOM      8  N   UNL     1       2.459   8.163  18.059  0.00  0.00    +0.000 NA
ATOM      9  C   UNL     1       1.752   9.240  17.718  0.00  0.00    +0.000 A 
ATOM     10  N   UNL     1       0.928   9.935  18.516  0.00  0.00    +0.000 NA
ATOM     11  C   UNL     1      -0.857   9.629  21.658  0.00  0.00    +0.000 C 
ATOM     12  C   UNL     1      -0.629  10.391  22.966  0.00  0.00    +0.000 C 
ENDROOT
BRANCH   1  14
ATOM     13  O   UNL     1      -3.188  11.736  23.515  0.00  0.00    +0.000 OA
ATOM     14  C   UNL     1      -2.383  12.176  22.701  0.00  0.00    +0.000 C 
ATOM     15  N   UNL     1      -2.766  12.980  21.650  0.00  0.00    +0.000 N 
ATOM     16  H   UNL     1      -2.065  13.452  21.095  0.00  0.00    +0.000 HD
BRANCH  15  17
ATOM     17  C   UNL     1      -4.152  13.333  21.440  0.00  0.00    +0.000 C 
BRANCH  17  18
ATOM     18  C   UNL     1      -4.753  12.541  20.313  0.00  0.00    +0.000 A 
ATOM     19  C   UNL     1      -6.114  12.205  20.323  0.00  0.00    +0.000 A 
ATOM     20  C   UNL     1      -6.669  11.473  19.270  0.00  0.00    +0.000 A 
ATOM     21  C   UNL     1      -5.868  11.067  18.205  0.00  0.00    +0.000 A 
ATOM     22  C   UNL     1      -4.512  11.385  18.189  0.00  0.00    +0.000 A 
ATOM     23  C   UNL     1      -3.955  12.113  19.241  0.00  0.00    +0.000 A 
ENDBRANCH  17  18
ENDBRANCH  15  17
ENDBRANCH   1  14
BRANCH   7  24
ATOM     24  O   UNL     1       2.892   6.593  19.771  0.00  0.00    +0.000 OA
BRANCH  24  25
ATOM     25  C   UNL     1       2.344   5.372  19.454  0.00  0.00    +0.000 A 
ATOM     26  C   UNL     1       1.470   4.821  20.395  0.00  0.00    +0.000 A 
ATOM     27  C   UNL     1       0.854   3.595  20.135  0.00  0.00    +0.000 A 
ATOM     28  C   UNL     1       1.117   2.932  18.939  0.00  0.00    +0.000 A 
ATOM     29  F   UNL     1       0.531   1.752  18.698  0.00  0.00    +0.000 F 
ATOM     30  C   UNL     1       1.960   3.480  17.984  0.00  0.00    +0.000 A 
ATOM     31  C   UNL     1       2.550   4.712  18.236  0.00  0.00    +0.000 A 
ATOM     32  F   UNL     1       3.295   5.264  17.265  0.00  0.00    +0.000 F 
ENDBRANCH  24  25
ENDBRANCH   7  24
TORSDOF 5
ENDMDL
MODEL 2
REMARK VINA RESULT:      -8.6      0.891      1.504
REMARK  Name = 
REMARK  5 active torsions:
REMARK  status: ('A' for Active; 'I' for Inactive)
REMARK    1  A    between atoms: C_2  and  C_11
REMARK    2  A    between atoms: N_3  and  C_4
REMARK    3  A    between atoms: C_4  and  C_5
REMARK    4  A    between atoms: C_17  and  O_18
REMARK    5  A    between atoms: O_18  and  C_19
REMARK                            x       y       z     vdW  Elec       q    Type
REMARK                         _______ _______ _______ _____ _____    ______ ____
ROOT
ATOM      1  C   UNL     1      -0.863  11.970  22.882  0.00  0.00    +0.000 C 
ATOM      2  C   UNL     1      -0.154  12.571  21.654  0.00  0.00    +0.000 C 
ATOM      3  C   UNL     1      -0.414  11.763  20.377  0.00  0.00    +0.000 C 
ATOM      4  N   UNL     1      -0.043  10.382  20.659  0.00  0.00    +0.000 N 
ATOM      5  C   UNL     1       0.710   9.676  19.744  0.00  0.00    +0.000 A 
ATOM      6  C   UNL     1       1.412   8.551  20.126  0.00  0.00    +0.000 A 
ATOM      7  C   UNL     1       2.201   7.950  19.174  0.00  0.00    +0.000 A 
ATOM      8  N   UNL     1       2.361   8.417  17.926  0.00  0.00    +0.000 NA
ATOM      9  C   UNL     1       1.618   9.486  17.640  0.00  0.00    +0.000 A 
ATOM     10  N   UNL     1       0.812  10.143  18.487  0.00  0.00    +0.000 NA
ATOM     11  C   UNL     1      -0.835   9.724  21.691  0.00  0.00    +0.000 C 
ATOM     12  C   UNL     1      -0.570  10.461  23.007  0.00  0.00    +0.000 C 
ENDROOT
BRANCH   1  14
ATOM     13  O   UNL     1      -3.144  11.652  23.625  0.00  0.00    +0.000 OA
ATOM     14  C   UNL     1      -2.371  12.212  22.856  0.00  0.00    +0.000 C 
ATOM     15  N   UNL     1      -2.799  13.130  21.923  0.00  0.00    +0.000 N 
ATOM     16  H   UNL     1      -2.124  13.687  21.417  0.00  0.00    +0.000 HD
BRANCH  15  17
ATOM     17  C   UNL     1      -4.198  13.470  21.789  0.00  0.00    +0.000 C 
BRANCH  17  18
ATOM     18  C   UNL     1      -4.832  12.729  20.644  0.00  0.00    +0.000 A 
ATOM     19  C   UNL     1      -4.075  12.367  19.522  0.00  0.00    +0.000 A 
ATOM     20  C   UNL     1      -4.667  11.674  18.463  0.00  0.00    +0.000 A 
ATOM     21  C   UNL     1      -6.020  11.343  18.516  0.00  0.00    +0.000 A 
ATOM     22  C   UNL     1      -6.785  11.708  19.623  0.00  0.00    +0.000 A 
ATOM     23  C   UNL     1      -6.196  12.403  20.679  0.00  0.00    +0.000 A 
ENDBRANCH  17  18
ENDBRANCH  15  17
ENDBRANCH   1  14
BRANCH   7  24
ATOM     24  O   UNL     1       2.897   6.818  19.580  0.00  0.00    +0.000 OA
BRANCH  24  25
ATOM     25  C   UNL     1       2.288   5.598  19.400  0.00  0.00    +0.000 A 
ATOM     26  C   UNL     1       2.253   5.109  18.091  0.00  0.00    +0.000 A 
ATOM     27  C   UNL     1       1.673   3.866  17.829  0.00  0.00    +0.000 A 
ATOM     28  C   UNL     1       1.133   3.125  18.877  0.00  0.00    +0.000 A 
ATOM     29  F   UNL     1       0.569   1.937  18.620  0.00  0.00    +0.000 F 
ATOM     30  C   UNL     1       1.184   3.584  20.184  0.00  0.00    +0.000 A 
ATOM     31  C   UNL     1       1.786   4.809  20.442  0.00  0.00    +0.000 A 
ATOM     32  F   UNL     1       1.900   5.197  21.722  0.00  0.00    +0.000 F 
ENDBRANCH  24  25
ENDBRANCH   7  24
TORSDOF 5
ENDMDL
MODEL 3
REMARK VINA RESULT:      -8.6      0.942      1.253
REMARK  Name = 
REMARK  5 active torsions:
REMARK  status: ('A' for Active; 'I' for Inactive)
REMARK    1  A    between atoms: C_2  and  C_11
REMARK    2  A    between atoms: N_3  and  C_4
REMARK    3  A    between atoms: C_4  and  C_5
REMARK    4  A    between atoms: C_17  and  O_18
REMARK    5  A    between atoms: O_18  and  C_19
REMARK                            x       y       z     vdW  Elec       q    Type
REMARK                         _______ _______ _______ _____ _____    ______ ____
ROOT
ATOM      1  C   UNL     1      -0.595  11.715  22.711  0.00  0.00    +0.000 C 
ATOM      2  C   UNL     1       0.163  12.303  21.506  0.00  0.00    +0.000 C 
ATOM      3  C   UNL     1      -0.088  11.512  20.217  0.00  0.00    +0.000 C 
ATOM      4  N   UNL     1       0.235  10.119  20.498  0.00  0.00    +0.000 N 
ATOM      5  C   UNL     1       0.991   9.397  19.598  0.00  0.00    +0.000 A 
ATOM      6  C   UNL     1       1.650   8.249  19.990  0.00  0.00    +0.000 A 
ATOM      7  C   UNL     1       2.444   7.631  19.053  0.00  0.00    +0.000 A 
ATOM      8  N   UNL     1       2.650   8.101  17.814  0.00  0.00    +0.000 NA
ATOM      9  C   UNL     1       1.946   9.194  17.516  0.00  0.00    +0.000 A 
ATOM     10  N   UNL     1       1.139   9.869  18.347  0.00  0.00    +0.000 NA
ATOM     11  C   UNL     1      -0.602   9.478  21.505  0.00  0.00    +0.000 C 
ATOM     12  C   UNL     1      -0.349  10.198  22.833  0.00  0.00    +0.000 C 
ENDROOT
BRANCH   1  14
ATOM     13  O   UNL     1      -2.863  11.700  23.554  0.00  0.00    +0.000 OA
ATOM     14  C   UNL     1      -2.093  12.002  22.649  0.00  0.00    +0.000 C 
ATOM     15  N   UNL     1      -2.516  12.654  21.512  0.00  0.00    +0.000 N 
ATOM     16  H   UNL     1      -1.838  13.028  20.862  0.00  0.00    +0.000 HD
BRANCH  15  17
ATOM     17  C   UNL     1      -3.906  13.001  21.317  0.00  0.00    +0.000 C 
BRANCH  17  18
ATOM     18  C   UNL     1      -4.413  12.503  19.992  0.00  0.00    +0.000 A 
ATOM     19  C   UNL     1      -5.786  12.504  19.706  0.00  0.00    +0.000 A 
ATOM     20  C   UNL     1      -6.251  12.046  18.472  0.00  0.00    +0.000 A 
ATOM     21  C   UNL     1      -5.350  11.579  17.516  0.00  0.00    +0.000 A 
ATOM     22  C   UNL     1      -3.985  11.563  17.793  0.00  0.00    +0.000 A 
ATOM     23  C   UNL     1      -3.518  12.017  19.027  0.00  0.00    +0.000 A 
ENDBRANCH  17  18
ENDBRANCH  15  17
ENDBRANCH   1  14
BRANCH   7  24
ATOM     24  O   UNL     1       3.097   6.476  19.469  0.00  0.00    +0.000 OA
BRANCH  24  25
ATOM     25  C   UNL     1       2.424   5.284  19.338  0.00  0.00    +0.000 A 
ATOM     26  C   UNL     1       2.197   4.840  18.032  0.00  0.00    +0.000 A 
ATOM     27  C   UNL     1       1.541   3.627  17.815  0.00  0.00    +0.000 A 
ATOM     28  C   UNL     1       1.118   2.869  18.905  0.00  0.00    +0.000 A 
ATOM     29  F   UNL     1       0.481   1.710  18.693  0.00  0.00    +0.000 F 
ATOM     30  C   UNL     1       1.361   3.283  20.207  0.00  0.00    +0.000 A 
ATOM     31  C   UNL     1       2.037   4.478  20.416  0.00  0.00    +0.000 A 
ATOM     32  F   UNL     1       2.336   4.820  21.679  0.00  0.00    +0.000 F 
ENDBRANCH  24  25
ENDBRANCH   7  24
TORSDOF 5
ENDMDL
MODEL 4
REMARK VINA RESULT:      -8.4      2.100      3.057
REMARK  Name = 
REMARK  5 active torsions:
REMARK  status: ('A' for Active; 'I' for Inactive)
REMARK    1  A    between atoms: C_2  and  C_11
REMARK    2  A    between atoms: N_3  and  C_4
REMARK    3  A    between atoms: C_4  and  C_5
REMARK    4  A    between atoms: C_17  and  O_18
REMARK    5  A    between atoms: O_18  and  C_19
REMARK                            x       y       z     vdW  Elec       q    Type
REMARK                         _______ _______ _______ _____ _____    ______ ____
ROOT
ATOM      1  C   UNL     1      -0.672  12.009  22.544  0.00  0.00    +0.000 C 
ATOM      2  C   UNL     1       0.168  12.497  21.349  0.00  0.00    +0.000 C 
ATOM      3  C   UNL     1      -0.056  11.647  20.093  0.00  0.00    +0.000 C 
ATOM      4  N   UNL     1       0.192  10.259  20.463  0.00  0.00    +0.000 N 
ATOM      5  C   UNL     1       0.957   9.458  19.642  0.00  0.00    +0.000 A 
ATOM      6  C   UNL     1       1.545   8.307  20.127  0.00  0.00    +0.000 A 
ATOM      7  C   UNL     1       2.356   7.606  19.266  0.00  0.00    +0.000 A 
ATOM      8  N   UNL     1       2.641   7.998  18.015  0.00  0.00    +0.000 NA
ATOM      9  C   UNL     1       2.002   9.101  17.625  0.00  0.00    +0.000 A 
ATOM     10  N   UNL     1       1.186   9.853  18.377  0.00  0.00    +0.000 NA
ATOM     11  C   UNL     1      -0.720   9.710  21.459  0.00  0.00    +0.000 C 
ATOM     12  C   UNL     1      -0.500  10.491  22.758  0.00  0.00    +0.000 C 
ENDROOT
BRANCH   1  14
ATOM     13  O   UNL     1      -2.674  12.557  21.300  0.00  0.00    +0.000 OA
ATOM     14  C   UNL     1      -2.152  12.353  22.390  0.00  0.00    +0.000 C 
ATOM     15  N   UNL     1      -2.868  12.390  23.566  0.00  0.00    +0.000 N 
ATOM     16  H   UNL     1      -2.445  12.064  24.425  0.00  0.00    +0.000 HD
BRANCH  15  17
ATOM     17  C   UNL     1      -4.281  12.693  23.577  0.00  0.00    +0.000 C 
BRANCH  17  18
ATOM     18  C   UNL     1      -4.530  14.127  23.953  0.00  0.00    +0.000 A 
ATOM     19  C   UNL     1      -3.552  14.866  24.634  0.00  0.00    +0.000 A 
ATOM     20  C   UNL     1      -3.786  16.200  24.976  0.00  0.00    +0.000 A 
ATOM     21  C   UNL     1      -4.998  16.803  24.647  0.00  0.00    +0.000 A 
ATOM     22  C   UNL     1      -5.982  16.075  23.980  0.00  0.00    +0.000 A 
ATOM     23  C   UNL     1      -5.751  14.741  23.640  0.00  0.00    +0.000 A 
ENDBRANCH  17  18
ENDBRANCH  15  17
ENDBRANCH   1  14
BRANCH   7  24
ATOM     24  O   UNL     1       2.936   6.450  19.775  0.00  0.00    +0.000 OA
BRANCH  24  25
ATOM     25  C   UNL     1       2.350   5.249  19.448  0.00  0.00    +0.000 A 
ATOM     26  C   UNL     1       1.454   4.720  20.383  0.00  0.00    +0.000 A 
ATOM     27  C   UNL     1       0.801   3.516  20.114  0.00  0.00    +0.000 A 
ATOM     28  C   UNL     1       1.047   2.852  18.915  0.00  0.00    +0.000 A 
ATOM     29  F   UNL     1       0.424   1.693  18.665  0.00  0.00    +0.000 F 
ATOM     30  C   UNL     1       1.911   3.378  17.966  0.00  0.00    +0.000 A 
ATOM     31  C   UNL     1       2.539   4.590  18.227  0.00  0.00    +0.000 A 
ATOM     32  F   UNL     1       3.305   5.122  17.263  0.00  0.00    +0.000 F 
ENDBRANCH  24  25
ENDBRANCH   7  24
TORSDOF 5
ENDMDL
MODEL 5
REMARK VINA RESULT:      -8.4      2.279      3.200
REMARK  Name = 
REMARK  5 active torsions:
REMARK  status: ('A' for Active; 'I' for Inactive)
REMARK    1  A    between atoms: C_2  and  C_11
REMARK    2  A    between atoms: N_3  and  C_4
REMARK    3  A    between atoms: C_4  and  C_5
REMARK    4  A    between atoms: C_17  and  O_18
REMARK    5  A    between atoms: O_18  and  C_19
REMARK                            x       y       z     vdW  Elec       q    Type
REMARK                         _______ _______ _______ _____ _____    ______ ____
ROOT
ATOM      1  C   UNL     1      -0.661  11.890  22.567  0.00  0.00    +0.000 C 
ATOM      2  C   UNL     1       0.197  12.397  21.394  0.00  0.00    +0.000 C 
ATOM      3  C   UNL     1      -0.011  11.571  20.119  0.00  0.00    +0.000 C 
ATOM      4  N   UNL     1       0.226  10.176  20.467  0.00  0.00    +0.000 N 
ATOM      5  C   UNL     1       1.000   9.387  19.641  0.00  0.00    +0.000 A 
ATOM      6  C   UNL     1       1.578   8.226  20.113  0.00  0.00    +0.000 A 
ATOM      7  C   UNL     1       2.398   7.538  19.250  0.00  0.00    +0.000 A 
ATOM      8  N   UNL     1       2.703   7.953  18.011  0.00  0.00    +0.000 NA
ATOM      9  C   UNL     1       2.072   9.065  17.633  0.00  0.00    +0.000 A 
ATOM     10  N   UNL     1       1.249   9.806  18.387  0.00  0.00    +0.000 NA
ATOM     11  C   UNL     1      -0.702   9.612  21.439  0.00  0.00    +0.000 C 
ATOM     12  C   UNL     1      -0.497  10.368  22.755  0.00  0.00    +0.000 C 
ENDROOT
BRANCH   1  14
ATOM     13  O   UNL     1      -2.654  12.423  21.302  0.00  0.00    +0.000 OA
ATOM     14  C   UNL     1      -2.137  12.242  22.399  0.00  0.00    +0.000 C 
ATOM     15  N   UNL     1      -2.858  12.314  23.571  0.00  0.00    +0.000 N 
ATOM     16  H   UNL     1      -2.441  12.006  24.439  0.00  0.00    +0.000 HD
BRANCH  15  17
ATOM     17  C   UNL     1      -4.269  12.628  23.569  0.00  0.00    +0.000 C 
BRANCH  17  18
ATOM     18  C   UNL     1      -4.510  14.062  23.951  0.00  0.00    +0.000 A 
ATOM     19  C   UNL     1      -5.728  14.686  23.647  0.00  0.00    +0.000 A 
ATOM     20  C   UNL     1      -5.949  16.017  24.009  0.00  0.00    +0.000 A 
ATOM     21  C   UNL     1      -4.955  16.734  24.672  0.00  0.00    +0.000 A 
ATOM     22  C   UNL     1      -3.737  16.127  24.970  0.00  0.00    +0.000 A 
ATOM     23  C   UNL     1      -3.513  14.799  24.606  0.00  0.00    +0.000 A 
ENDBRANCH  17  18
ENDBRANCH  15  17
ENDBRANCH   1  14
BRANCH   7  24
ATOM     24  O   UNL     1       2.967   6.371  19.746  0.00  0.00    +0.000 OA
BRANCH  24  25
ATOM     25  C   UNL     1       2.293   5.193  19.525  0.00  0.00    +0.000 A 
ATOM     26  C   UNL     1       2.045   4.859  18.190  0.00  0.00    +0.000 A 
ATOM     27  C   UNL     1       1.387   3.667  17.883  0.00  0.00    +0.000 A 
ATOM     28  C   UNL     1       0.983   2.819  18.911  0.00  0.00    +0.000 A 
ATOM     29  F   UNL     1       0.344   1.681  18.612  0.00  0.00    +0.000 F 
ATOM     30  C   UNL     1       1.246   3.122  20.239  0.00  0.00    +0.000 A 
ATOM     31  C   UNL     1       1.925   4.297  20.537  0.00  0.00    +0.000 A 
ATOM     32  F   UNL     1       2.244   4.531  21.820  0.00  0.00    +0.000 F 
ENDBRANCH  24  25
ENDBRANCH   7  24
TORSDOF 5
ENDMDL
MODEL 6
REMARK VINA RESULT:      -8.2      1.844      3.107
REMARK  Name = 
REMARK  5 active torsions:
REMARK  status: ('A' for Active; 'I' for Inactive)
REMARK    1  A    between atoms: C_2  and  C_11
REMARK    2  A    between atoms: N_3  and  C_4
REMARK    3  A    between atoms: C_4  and  C_5
REMARK    4  A    between atoms: C_17  and  O_18
REMARK    5  A    between atoms: O_18  and  C_19
REMARK                            x       y       z     vdW  Elec       q    Type
REMARK                         _______ _______ _______ _____ _____    ______ ____
ROOT
ATOM      1  C   UNL     1      -0.771  11.777  22.940  0.00  0.00    +0.000 C 
ATOM      2  C   UNL     1      -0.021  12.388  21.742  0.00  0.00    +0.000 C 
ATOM      3  C   UNL     1      -0.272  11.616  20.441  0.00  0.00    +0.000 C 
ATOM      4  N   UNL     1       0.060  10.221  20.699  0.00  0.00    +0.000 N 
ATOM      5  C   UNL     1       0.817   9.517  19.785  0.00  0.00    +0.000 A 
ATOM      6  C   UNL     1       1.484   8.367  20.157  0.00  0.00    +0.000 A 
ATOM      7  C   UNL     1       2.279   7.770  19.207  0.00  0.00    +0.000 A 
ATOM      8  N   UNL     1       2.477   8.261  17.974  0.00  0.00    +0.000 NA
ATOM      9  C   UNL     1       1.765   9.353  17.697  0.00  0.00    +0.000 A 
ATOM     10  N   UNL     1       0.957  10.010  18.541  0.00  0.00    +0.000 NA
ATOM     11  C   UNL     1      -0.769   9.559  21.699  0.00  0.00    +0.000 C 
ATOM     12  C   UNL     1      -0.515  10.259  23.037  0.00  0.00    +0.000 C 
ENDROOT
BRANCH   1  14
ATOM     13  O   UNL     1      -3.087  11.413  23.540  0.00  0.00    +0.000 OA
ATOM     14  C   UNL     1      -2.271  12.055  22.888  0.00  0.00    +0.000 C 
ATOM     15  N   UNL     1      -2.643  13.104  22.076  0.00  0.00    +0.000 N 
ATOM     16  H   UNL     1      -1.938  13.710  21.679  0.00  0.00    +0.000 HD
BRANCH  15  17
ATOM     17  C   UNL     1      -4.029  13.491  21.934  0.00  0.00    +0.000 C 
BRANCH  17  18
ATOM     18  C   UNL     1      -4.384  14.602  22.882  0.00  0.00    +0.000 A 
ATOM     19  C   UNL     1      -3.383  15.296  23.577  0.00  0.00    +0.000 A 
ATOM     20  C   UNL     1      -3.718  16.331  24.453  0.00  0.00    +0.000 A 
ATOM     21  C   UNL     1      -5.054  16.678  24.644  0.00  0.00    +0.000 A 
ATOM     22  C   UNL     1      -6.059  15.988  23.967  0.00  0.00    +0.000 A 
ATOM     23  C   UNL     1      -5.726  14.952  23.095  0.00  0.00    +0.000 A 
ENDBRANCH  17  18
ENDBRANCH  15  17
ENDBRANCH   1  14
BRANCH   7  24
ATOM     24  O   UNL     1       2.940   6.612  19.602  0.00  0.00    +0.000 OA
BRANCH  24  25
ATOM     25  C   UNL     1       2.287   5.416  19.425  0.00  0.00    +0.000 A 
ATOM     26  C   UNL     1       2.093   5.004  18.103  0.00  0.00    +0.000 A 
ATOM     27  C   UNL     1       1.459   3.788  17.840  0.00  0.00    +0.000 A 
ATOM     28  C   UNL     1       1.024   2.996  18.900  0.00  0.00    +0.000 A 
ATOM     29  F   UNL     1       0.408   1.834  18.643  0.00  0.00    +0.000 F 
ATOM     30  C   UNL     1       1.234   3.377  20.217  0.00  0.00    +0.000 A 
ATOM     31  C   UNL     1       1.889   4.575  20.472  0.00  0.00    +0.000 A 
ATOM     32  F   UNL     1       2.156   4.886  21.750  0.00  0.00    +0.000 F 
ENDBRANCH  24  25
ENDBRANCH   7  24
TORSDOF 5
ENDMDL
MODEL 7
REMARK VINA RESULT:      -8.1      1.128      1.978
REMARK  Name = 
REMARK  5 active torsions:
REMARK  status: ('A' for Active; 'I' for Inactive)
REMARK    1  A    between atoms: C_2  and  C_11
REMARK    2  A    between atoms: N_3  and  C_4
REMARK    3  A    between atoms: C_4  and  C_5
REMARK    4  A    between atoms: C_17  and  O_18
REMARK    5  A    between atoms: O_18  and  C_19
REMARK                            x       y       z     vdW  Elec       q    Type
REMARK                         _______ _______ _______ _____ _____    ______ ____
ROOT
ATOM      1  C   UNL     1      -0.958  11.959  22.831  0.00  0.00    +0.000 C 
ATOM      2  C   UNL     1      -0.206  12.494  21.598  0.00  0.00    +0.000 C 
ATOM      3  C   UNL     1      -0.442  11.631  20.352  0.00  0.00    +0.000 C 
ATOM      4  N   UNL     1      -0.099  10.261  20.707  0.00  0.00    +0.000 N 
ATOM      5  C   UNL     1       0.669   9.503  19.847  0.00  0.00    +0.000 A 
ATOM      6  C   UNL     1       1.345   8.388  20.301  0.00  0.00    +0.000 A 
ATOM      7  C   UNL     1       2.151   7.733  19.399  0.00  0.00    +0.000 A 
ATOM      8  N   UNL     1       2.352   8.140  18.137  0.00  0.00    +0.000 NA
ATOM      9  C   UNL     1       1.633   9.205  17.781  0.00  0.00    +0.000 A 
ATOM     10  N   UNL     1       0.813   9.910  18.573  0.00  0.00    +0.000 NA
ATOM     11  C   UNL     1      -0.929   9.661  21.745  0.00  0.00    +0.000 C 
ATOM     12  C   UNL     1      -0.690  10.454  23.033  0.00  0.00    +0.000 C 
ENDROOT
BRANCH   1  14
ATOM     13  O   UNL     1      -3.260  11.729  23.541  0.00  0.00    +0.000 OA
ATOM     14  C   UNL     1      -2.460  12.219  22.751  0.00  0.00    +0.000 C 
ATOM     15  N   UNL     1      -2.853  13.071  21.742  0.00  0.00    +0.000 N 
ATOM     16  H   UNL     1      -2.158  13.580  21.212  0.00  0.00    +0.000 HD
BRANCH  15  17
ATOM     17  C   UNL     1      -4.243  13.419  21.550  0.00  0.00    +0.000 C 
BRANCH  17  18
ATOM     18  C   UNL     1      -4.890  12.534  20.520  0.00  0.00    +0.000 A 
ATOM     19  C   UNL     1      -4.231  12.239  19.318  0.00  0.00    +0.000 A 
ATOM     20  C   UNL     1      -4.834  11.412  18.367  0.00  0.00    +0.000 A 
ATOM     21  C   UNL     1      -6.099  10.879  18.607  0.00  0.00    +0.000 A 
ATOM     22  C   UNL     1      -6.767  11.175  19.794  0.00  0.00    +0.000 A 
ATOM     23  C   UNL     1      -6.168  12.003  20.743  0.00  0.00    +0.000 A 
ENDBRANCH  17  18
ENDBRANCH  15  17
ENDBRANCH   1  14
BRANCH   7  24
ATOM     24  O   UNL     1       2.819   6.612  19.877  0.00  0.00    +0.000 OA
BRANCH  24  25
ATOM     25  C   UNL     1       3.342   5.742  18.949  0.00  0.00    +0.000 A 
ATOM     26  C   UNL     1       4.717   5.837  18.714  0.00  0.00    +0.000 A 
ATOM     27  C   UNL     1       5.327   4.972  17.804  0.00  0.00    +0.000 A 
ATOM     28  C   UNL     1       4.559   4.020  17.138  0.00  0.00    +0.000 A 
ATOM     29  F   UNL     1       5.147   3.197  16.259  0.00  0.00    +0.000 F 
ATOM     30  C   UNL     1       3.199   3.895  17.381  0.00  0.00    +0.000 A 
ATOM     31  C   UNL     1       2.602   4.741  18.307  0.00  0.00    +0.000 A 
ATOM     32  F   UNL     1       1.304   4.549  18.590  0.00  0.00    +0.000 F 
ENDBRANCH  24  25
ENDBRANCH   7  24
TORSDOF 5
ENDMDL
MODEL 8
REMARK VINA RESULT:      -7.9      1.885      2.623
REMARK  Name = 
REMARK  5 active torsions:
REMARK  status: ('A' for Active; 'I' for Inactive)
REMARK    1  A    between atoms: C_2  and  C_11
REMARK    2  A    between atoms: N_3  and  C_4
REMARK    3  A    between atoms: C_4  and  C_5
REMARK    4  A    between atoms: C_17  and  O_18
REMARK    5  A    between atoms: O_18  and  C_19
REMARK                            x       y       z     vdW  Elec       q    Type
REMARK                         _______ _______ _______ _____ _____    ______ ____
ROOT
ATOM      1  C   UNL     1      -0.093  12.506  21.378  0.00  0.00    +0.000 C 
ATOM      2  C   UNL     1       1.069  12.528  20.367  0.00  0.00    +0.000 C 
ATOM      3  C   UNL     1       0.887  11.497  19.247  0.00  0.00    +0.000 C 
ATOM      4  N   UNL     1       0.679  10.202  19.884  0.00  0.00    +0.000 N 
ATOM      5  C   UNL     1       1.355   9.094  19.417  0.00  0.00    +0.000 A 
ATOM      6  C   UNL     1       1.509   7.975  20.210  0.00  0.00    +0.000 A 
ATOM      7  C   UNL     1       2.262   6.944  19.701  0.00  0.00    +0.000 A 
ATOM      8  N   UNL     1       2.887   6.984  18.514  0.00  0.00    +0.000 NA
ATOM      9  C   UNL     1       2.653   8.089  17.807  0.00  0.00    +0.000 A 
ATOM     10  N   UNL     1       1.931   9.147  18.203  0.00  0.00    +0.000 NA
ATOM     11  C   UNL     1      -0.527  10.096  20.696  0.00  0.00    +0.000 C 
ATOM     12  C   UNL     1      -0.374  11.071  21.867  0.00  0.00    +0.000 C 
ENDROOT
BRANCH   1  14
ATOM     13  O   UNL     1      -1.354  14.107  20.072  0.00  0.00    +0.000 OA
ATOM     14  C   UNL     1      -1.367  13.126  20.808  0.00  0.00    +0.000 C 
ATOM     15  N   UNL     1      -2.535  12.485  21.157  0.00  0.00    +0.000 N 
ATOM     16  H   UNL     1      -2.499  11.593  21.631  0.00  0.00    +0.000 HD
BRANCH  15  17
ATOM     17  C   UNL     1      -3.819  12.952  20.684  0.00  0.00    +0.000 C 
BRANCH  17  18
ATOM     18  C   UNL     1      -4.871  12.832  21.752  0.00  0.00    +0.000 A 
ATOM     19  C   UNL     1      -6.198  12.529  21.416  0.00  0.00    +0.000 A 
ATOM     20  C   UNL     1      -7.171  12.413  22.412  0.00  0.00    +0.000 A 
ATOM     21  C   UNL     1      -6.826  12.603  23.749  0.00  0.00    +0.000 A 
ATOM     22  C   UNL     1      -5.512  12.914  24.094  0.00  0.00    +0.000 A 
ATOM     23  C   UNL     1      -4.540  13.034  23.100  0.00  0.00    +0.000 A 
ENDBRANCH  17  18
ENDBRANCH  15  17
ENDBRANCH   1  14
BRANCH   7  24
ATOM     24  O   UNL     1       2.402   5.826  20.516  0.00  0.00    +0.000 OA
BRANCH  24  25
ATOM     25  C   UNL     1       2.650   4.620  19.903  0.00  0.00    +0.000 A 
ATOM     26  C   UNL     1       3.987   4.338  19.607  0.00  0.00    +0.000 A 
ATOM     27  C   UNL     1       4.323   3.123  19.006  0.00  0.00    +0.000 A 
ATOM     28  C   UNL     1       3.321   2.203  18.707  0.00  0.00    +0.000 A 
ATOM     29  F   UNL     1       3.647   1.042  18.122  0.00  0.00    +0.000 F 
ATOM     30  C   UNL     1       1.994   2.457  19.020  0.00  0.00    +0.000 A 
ATOM     31  C   UNL     1       1.669   3.656  19.641  0.00  0.00    +0.000 A 
ATOM     32  F   UNL     1       0.393   3.847  20.011  0.00  0.00    +0.000 F 
ENDBRANCH  24  25
ENDBRANCH   7  24
TORSDOF 5
ENDMDL
MODEL 9
REMARK VINA RESULT:      -7.9      1.643      2.115
REMARK  Name = 
REMARK  5 active torsions:
REMARK  status: ('A' for Active; 'I' for Inactive)
REMARK    1  A    between atoms: C_2  and  C_11
REMARK    2  A    between atoms: N_3  and  C_4
REMARK    3  A    between atoms: C_4  and  C_5
REMARK    4  A    between atoms: C_17  and  O_18
REMARK    5  A    between atoms: O_18  and  C_19
REMARK                            x       y       z     vdW  Elec       q    Type
REMARK                         _______ _______ _______ _____ _____    ______ ____
ROOT
ATOM      1  C   UNL     1      -0.013  12.591  21.462  0.00  0.00    +0.000 C 
ATOM      2  C   UNL     1       1.091  12.624  20.390  0.00  0.00    +0.000 C 
ATOM      3  C   UNL     1       0.860  11.588  19.283  0.00  0.00    +0.000 C 
ATOM      4  N   UNL     1       0.703  10.293  19.932  0.00  0.00    +0.000 N 
ATOM      5  C   UNL     1       1.366   9.192  19.432  0.00  0.00    +0.000 A 
ATOM      6  C   UNL     1       1.576   8.076  20.217  0.00  0.00    +0.000 A 
ATOM      7  C   UNL     1       2.312   7.053  19.669  0.00  0.00    +0.000 A 
ATOM      8  N   UNL     1       2.870   7.097  18.450  0.00  0.00    +0.000 NA
ATOM      9  C   UNL     1       2.585   8.198  17.754  0.00  0.00    +0.000 A 
ATOM     10  N   UNL     1       1.873   9.248  18.187  0.00  0.00    +0.000 NA
ATOM     11  C   UNL     1      -0.455  10.174  20.810  0.00  0.00    +0.000 C 
ATOM     12  C   UNL     1      -0.250  11.154  21.969  0.00  0.00    +0.000 C 
ENDROOT
BRANCH   1  14
ATOM     13  O   UNL     1      -1.373  14.259  20.356  0.00  0.00    +0.000 OA
ATOM     14  C   UNL     1      -1.324  13.195  20.963  0.00  0.00    +0.000 C 
ATOM     15  N   UNL     1      -2.449  12.441  21.216  0.00  0.00    +0.000 N 
ATOM     16  H   UNL     1      -2.355  11.501  21.574  0.00  0.00    +0.000 HD
BRANCH  15  17
ATOM     17  C   UNL     1      -3.759  12.880  20.793  0.00  0.00    +0.000 C 
BRANCH  17  18
ATOM     18  C   UNL     1      -4.110  12.326  19.440  0.00  0.00    +0.000 A 
ATOM     19  C   UNL     1      -3.144  11.670  18.665  0.00  0.00    +0.000 A 
ATOM     20  C   UNL     1      -3.476  11.151  17.411  0.00  0.00    +0.000 A 
ATOM     21  C   UNL     1      -4.773  11.289  16.921  0.00  0.00    +0.000 A 
ATOM     22  C   UNL     1      -5.740  11.949  17.678  0.00  0.00    +0.000 A 
ATOM     23  C   UNL     1      -5.408  12.470  18.929  0.00  0.00    +0.000 A 
ENDBRANCH  17  18
ENDBRANCH  15  17
ENDBRANCH   1  14
BRANCH   7  24
ATOM     24  O   UNL     1       2.509   5.939  20.477  0.00  0.00    +0.000 OA
BRANCH  24  25
ATOM     25  C   UNL     1       2.689   4.726  19.853  0.00  0.00    +0.000 A 
ATOM     26  C   UNL     1       4.002   4.395  19.506  0.00  0.00    +0.000 A 
ATOM     27  C   UNL     1       4.269   3.170  18.892  0.00  0.00    +0.000 A 
ATOM     28  C   UNL     1       3.223   2.288  18.630  0.00  0.00    +0.000 A 
ATOM     29  F   UNL     1       3.483   1.118  18.033  0.00  0.00    +0.000 F 
ATOM     30  C   UNL     1       1.919   2.591  18.994  0.00  0.00    +0.000 A 
ATOM     31  C   UNL     1       1.663   3.799  19.629  0.00  0.00    +0.000 A 
ATOM     32  F   UNL     1       0.410   4.037  20.048  0.00  0.00    +0.000 F 
ENDBRANCH  24  25
ENDBRANCH   7  24
TORSDOF 5
ENDMDL
