MODEL 1
REMARK VINA RESULT:      -8.3      0.000      0.000
REMARK  Name = 
REMARK  5 active torsions:
REMARK  status: ('A' for Active; 'I' for Inactive)
REMARK    1  A    between atoms: C_1  and  O_2
REMARK    2  A    between atoms: O_2  and  C_3
REMARK    3  A    between atoms: N_12  and  C_13
REMARK    4  A    between atoms: C_19  and  C_20
REMARK    5  A    between atoms: C_23  and  C_24
REMARK                            x       y       z     vdW  Elec       q    Type
REMARK                         _______ _______ _______ _____ _____    ______ ____
ROOT
ATOM      1  C   UNL     1       2.598   4.214  19.912  0.00  0.00    +0.000 A 
ATOM      2  C   UNL     1       3.127   4.568  18.669  0.00  0.00    +0.000 A 
ATOM      3  C   UNL     1       3.015   5.875  18.221  0.00  0.00    +0.000 A 
ATOM      4  C   UNL     1       2.373   6.827  19.017  0.00  0.00    +0.000 A 
ATOM      5  C   UNL     1       2.244   8.185  18.515  0.00  0.00    +0.000 A 
ATOM      6  O   UNL     1       2.673   8.446  17.399  0.00  0.00    +0.000 OA
ATOM      7  C   UNL     1       1.583   9.156  19.398  0.00  0.00    +0.000 A 
ATOM      8  C   UNL     1       1.451  10.556  18.992  0.00  0.00    +0.000 A 
ATOM      9  O   UNL     1       1.973  10.948  17.948  0.00  0.00    +0.000 OA
ATOM     10  N   UNL     1       0.772  11.388  19.870  0.00  0.00    +0.000 N 
ATOM     11  C   UNL     1       0.295  10.893  21.095  0.00  0.00    +0.000 A 
ATOM     12  N   UNL     1       0.470   9.652  21.457  0.00  0.00    +0.000 NA
ATOM     13  C   UNL     1       1.107   8.777  20.597  0.00  0.00    +0.000 A 
ATOM     14  O   UNL     1       1.221   7.447  21.052  0.00  0.00    +0.000 OA
ATOM     15  C   UNL     1       1.848   6.509  20.259  0.00  0.00    +0.000 A 
ATOM     16  C   UNL     1       1.963   5.190  20.708  0.00  0.00    +0.000 A 
ENDROOT
BRANCH  11  17
ATOM     17  C   UNL     1      -0.453  11.824  22.021  0.00  0.00    +0.000 A 
ATOM     18  C   UNL     1      -1.660  11.445  22.626  0.00  0.00    +0.000 A 
ATOM     19  C   UNL     1      -2.502  12.399  23.201  0.00  0.00    +0.000 A 
ATOM     20  C   UNL     1      -2.101  13.733  23.281  0.00  0.00    +0.000 A 
ATOM     21  C   UNL     1      -3.038  14.774  23.820  0.00  0.00    +0.000 C 
ATOM     22  C   UNL     1      -0.813  14.077  22.847  0.00  0.00    +0.000 A 
ATOM     23  C   UNL     1       0.005  13.132  22.211  0.00  0.00    +0.000 A 
ENDBRANCH  11  17
BRANCH  10  24
ATOM     24  C   UNL     1       0.740  12.761  19.477  0.00  0.00    +0.000 A 
ATOM     25  C   UNL     1       1.881  13.555  19.699  0.00  0.00    +0.000 A 
ATOM     26  C   UNL     1       1.886  14.901  19.355  0.00  0.00    +0.000 A 
ATOM     27  C   UNL     1       0.744  15.473  18.798  0.00  0.00    +0.000 A 
ATOM     28  C   UNL     1      -0.397  14.698  18.580  0.00  0.00    +0.000 A 
ATOM     29  C   UNL     1      -0.404  13.343  18.918  0.00  0.00    +0.000 A 
ENDBRANCH  10  24
BRANCH   1  31
ATOM     30  C   UNL     1       1.724   2.665  21.485  0.00  0.00    +0.000 C 
ATOM     31  O   UNL     1       2.649   2.948  20.434  0.00  0.00    +0.000 OA
ENDBRANCH   1  31
TORSDOF 3
ENDMDL
MODEL 2
REMARK VINA RESULT:      -8.0      0.743      1.086
REMARK  Name = 
REMARK  5 active torsions:
REMARK  status: ('A' for Active; 'I' for Inactive)
REMARK    1  A    between atoms: C_1  and  O_2
REMARK    2  A    between atoms: O_2  and  C_3
REMARK    3  A    between atoms: N_12  and  C_13
REMARK    4  A    between atoms: C_19  and  C_20
REMARK    5  A    between atoms: C_23  and  C_24
REMARK                            x       y       z     vdW  Elec       q    Type
REMARK                         _______ _______ _______ _____ _____    ______ ____
ROOT
ATOM      1  C   UNL     1       2.376   4.830  19.831  0.00  0.00    +0.000 A 
ATOM      2  C   UNL     1       3.083   5.219  18.691  0.00  0.00    +0.000 A 
ATOM      3  C   UNL     1       3.043   6.541  18.275  0.00  0.00    +0.000 A 
ATOM      4  C   UNL     1       2.295   7.473  19.000  0.00  0.00    +0.000 A 
ATOM      5  C   UNL     1       2.245   8.847  18.529  0.00  0.00    +0.000 A 
ATOM      6  O   UNL     1       2.835   9.139  17.497  0.00  0.00    +0.000 OA
ATOM      7  C   UNL     1       1.466   9.795  19.336  0.00  0.00    +0.000 A 
ATOM      8  C   UNL     1       1.400  11.208  18.961  0.00  0.00    +0.000 A 
ATOM      9  O   UNL     1       2.071  11.628  18.019  0.00  0.00    +0.000 OA
ATOM     10  N   UNL     1       0.603  12.017  19.758  0.00  0.00    +0.000 N 
ATOM     11  C   UNL     1      -0.050  11.488  20.883  0.00  0.00    +0.000 A 
ATOM     12  N   UNL     1       0.065  10.234  21.226  0.00  0.00    +0.000 NA
ATOM     13  C   UNL     1       0.818   9.382  20.440  0.00  0.00    +0.000 A 
ATOM     14  O   UNL     1       0.859   8.037  20.863  0.00  0.00    +0.000 OA
ATOM     15  C   UNL     1       1.592   7.119  20.140  0.00  0.00    +0.000 A 
ATOM     16  C   UNL     1       1.635   5.786  20.558  0.00  0.00    +0.000 A 
ENDROOT
BRANCH  11  17
ATOM     17  C   UNL     1      -0.922  12.395  21.719  0.00  0.00    +0.000 A 
ATOM     18  C   UNL     1      -0.372  13.374  22.559  0.00  0.00    +0.000 A 
ATOM     19  C   UNL     1      -1.141  13.973  23.558  0.00  0.00    +0.000 A 
ATOM     20  C   UNL     1      -2.503  13.687  23.663  0.00  0.00    +0.000 A 
ATOM     21  C   UNL     1      -3.314  14.263  24.787  0.00  0.00    +0.000 C 
ATOM     22  C   UNL     1      -3.093  12.853  22.703  0.00  0.00    +0.000 A 
ATOM     23  C   UNL     1      -2.307  12.201  21.741  0.00  0.00    +0.000 A 
ENDBRANCH  11  17
BRANCH  10  24
ATOM     24  C   UNL     1       0.634  13.403  19.409  0.00  0.00    +0.000 A 
ATOM     25  C   UNL     1       1.749  14.171  19.791  0.00  0.00    +0.000 A 
ATOM     26  C   UNL     1       1.811  15.527  19.495  0.00  0.00    +0.000 A 
ATOM     27  C   UNL     1       0.751  16.134  18.826  0.00  0.00    +0.000 A 
ATOM     28  C   UNL     1      -0.365  15.384  18.449  0.00  0.00    +0.000 A 
ATOM     29  C   UNL     1      -0.429  14.019  18.739  0.00  0.00    +0.000 A 
ENDBRANCH  10  24
BRANCH   1  31
ATOM     30  C   UNL     1       2.121   3.411  21.718  0.00  0.00    +0.000 C 
ATOM     31  O   UNL     1       2.346   3.548  20.314  0.00  0.00    +0.000 OA
ENDBRANCH   1  31
TORSDOF 3
ENDMDL
MODEL 3
REMARK VINA RESULT:      -7.9      4.285      7.853
REMARK  Name = 
REMARK  5 active torsions:
REMARK  status: ('A' for Active; 'I' for Inactive)
REMARK    1  A    between atoms: C_1  and  O_2
REMARK    2  A    between atoms: O_2  and  C_3
REMARK    3  A    between atoms: N_12  and  C_13
REMARK    4  A    between atoms: C_19  and  C_20
REMARK    5  A    between atoms: C_23  and  C_24
REMARK                            x       y       z     vdW  Elec       q    Type
REMARK                         _______ _______ _______ _____ _____    ______ ____
ROOT
ATOM      1  C   UNL     1       7.232  15.749  18.436  0.00  0.00    +0.000 A 
ATOM      2  C   UNL     1       7.172  16.335  19.702  0.00  0.00    +0.000 A 
ATOM      3  C   UNL     1       6.065  16.121  20.507  0.00  0.00    +0.000 A 
ATOM      4  C   UNL     1       5.016  15.320  20.044  0.00  0.00    +0.000 A 
ATOM      5  C   UNL     1       3.853  15.132  20.895  0.00  0.00    +0.000 A 
ATOM      6  O   UNL     1       3.814  15.704  21.976  0.00  0.00    +0.000 OA
ATOM      7  C   UNL     1       2.788  14.264  20.376  0.00  0.00    +0.000 A 
ATOM      8  C   UNL     1       1.601  13.982  21.185  0.00  0.00    +0.000 A 
ATOM      9  O   UNL     1       1.531  14.398  22.342  0.00  0.00    +0.000 OA
ATOM     10  N   UNL     1       0.629  13.190  20.593  0.00  0.00    +0.000 N 
ATOM     11  C   UNL     1       0.827  12.662  19.307  0.00  0.00    +0.000 A 
ATOM     12  N   UNL     1       1.916  12.886  18.625  0.00  0.00    +0.000 NA
ATOM     13  C   UNL     1       2.896  13.702  19.159  0.00  0.00    +0.000 A 
ATOM     14  O   UNL     1       4.023  13.921  18.341  0.00  0.00    +0.000 OA
ATOM     15  C   UNL     1       5.052  14.717  18.798  0.00  0.00    +0.000 A 
ATOM     16  C   UNL     1       6.170  14.934  17.988  0.00  0.00    +0.000 A 
ENDROOT
BRANCH  11  17
ATOM     17  C   UNL     1      -0.260  11.814  18.687  0.00  0.00    +0.000 A 
ATOM     18  C   UNL     1      -0.127  10.424  18.563  0.00  0.00    +0.000 A 
ATOM     19  C   UNL     1      -0.963   9.700  17.711  0.00  0.00    +0.000 A 
ATOM     20  C   UNL     1      -2.017  10.334  17.053  0.00  0.00    +0.000 A 
ATOM     21  C   UNL     1      -2.863   9.577  16.072  0.00  0.00    +0.000 C 
ATOM     22  C   UNL     1      -2.266  11.687  17.326  0.00  0.00    +0.000 A 
ATOM     23  C   UNL     1      -1.387  12.428  18.131  0.00  0.00    +0.000 A 
ENDBRANCH  11  17
BRANCH  10  24
ATOM     24  C   UNL     1      -0.471  12.869  21.447  0.00  0.00    +0.000 A 
ATOM     25  C   UNL     1      -0.432  11.667  22.177  0.00  0.00    +0.000 A 
ATOM     26  C   UNL     1      -1.491  11.302  23.000  0.00  0.00    +0.000 A 
ATOM     27  C   UNL     1      -2.608  12.130  23.091  0.00  0.00    +0.000 A 
ATOM     28  C   UNL     1      -2.662  13.322  22.364  0.00  0.00    +0.000 A 
ATOM     29  C   UNL     1      -1.598  13.695  21.541  0.00  0.00    +0.000 A 
ENDBRANCH  10  24
BRANCH   1  31
ATOM     30  C   UNL     1       9.251  16.891  17.928  0.00  0.00    +0.000 C 
ATOM     31  O   UNL     1       8.278  15.911  17.564  0.00  0.00    +0.000 OA
ENDBRANCH   1  31
TORSDOF 3
ENDMDL
MODEL 4
REMARK VINA RESULT:      -7.9      1.630      4.254
REMARK  Name = 
REMARK  5 active torsions:
REMARK  status: ('A' for Active; 'I' for Inactive)
REMARK    1  A    between atoms: C_1  and  O_2
REMARK    2  A    between atoms: O_2  and  C_3
REMARK    3  A    between atoms: N_12  and  C_13
REMARK    4  A    between atoms: C_19  and  C_20
REMARK    5  A    between atoms: C_23  and  C_24
REMARK                            x       y       z     vdW  Elec       q    Type
REMARK                         _______ _______ _______ _____ _____    ______ ____
ROOT
ATOM      1  C   UNL     1       2.564   6.099  18.575  0.00  0.00    +0.000 A 
ATOM      2  C   UNL     1       2.133   5.774  19.863  0.00  0.00    +0.000 A 
ATOM      3  C   UNL     1       1.619   6.763  20.686  0.00  0.00    +0.000 A 
ATOM      4  C   UNL     1       1.537   8.078  20.220  0.00  0.00    +0.000 A 
ATOM      5  C   UNL     1       1.019   9.104  21.111  0.00  0.00    +0.000 A 
ATOM      6  O   UNL     1       0.701   8.791  22.250  0.00  0.00    +0.000 OA
ATOM      7  C   UNL     1       0.929  10.466  20.569  0.00  0.00    +0.000 A 
ATOM      8  C   UNL     1       0.377  11.552  21.381  0.00  0.00    +0.000 A 
ATOM      9  O   UNL     1      -0.099  11.311  22.490  0.00  0.00    +0.000 OA
ATOM     10  N   UNL     1       0.376  12.812  20.800  0.00  0.00    +0.000 N 
ATOM     11  C   UNL     1       0.838  12.992  19.487  0.00  0.00    +0.000 A 
ATOM     12  N   UNL     1       1.279  11.998  18.764  0.00  0.00    +0.000 NA
ATOM     13  C   UNL     1       1.336  10.732  19.314  0.00  0.00    +0.000 A 
ATOM     14  O   UNL     1       1.859   9.724  18.478  0.00  0.00    +0.000 OA
ATOM     15  C   UNL     1       1.946   8.429  18.944  0.00  0.00    +0.000 A 
ATOM     16  C   UNL     1       2.463   7.430  18.116  0.00  0.00    +0.000 A 
ENDROOT
BRANCH  11  17
ATOM     17  C   UNL     1       0.836  14.381  18.892  0.00  0.00    +0.000 A 
ATOM     18  C   UNL     1       2.026  15.089  18.676  0.00  0.00    +0.000 A 
ATOM     19  C   UNL     1       2.006  16.466  18.444  0.00  0.00    +0.000 A 
ATOM     20  C   UNL     1       0.791  17.139  18.313  0.00  0.00    +0.000 A 
ATOM     21  C   UNL     1       0.766  18.631  18.149  0.00  0.00    +0.000 C 
ATOM     22  C   UNL     1      -0.397  16.397  18.340  0.00  0.00    +0.000 A 
ATOM     23  C   UNL     1      -0.379  15.026  18.638  0.00  0.00    +0.000 A 
ENDBRANCH  11  17
BRANCH  10  24
ATOM     24  C   UNL     1      -0.249  13.825  21.592  0.00  0.00    +0.000 A 
ATOM     25  C   UNL     1      -1.654  13.859  21.660  0.00  0.00    +0.000 A 
ATOM     26  C   UNL     1      -2.305  14.841  22.397  0.00  0.00    +0.000 A 
ATOM     27  C   UNL     1      -1.557  15.810  23.062  0.00  0.00    +0.000 A 
ATOM     28  C   UNL     1      -0.162  15.791  22.996  0.00  0.00    +0.000 A 
ATOM     29  C   UNL     1       0.496  14.802  22.262  0.00  0.00    +0.000 A 
ENDBRANCH  10  24
BRANCH   1  31
ATOM     30  C   UNL     1       2.379   3.969  17.542  0.00  0.00    +0.000 C 
ATOM     31  O   UNL     1       3.096   5.195  17.693  0.00  0.00    +0.000 OA
ENDBRANCH   1  31
TORSDOF 3
ENDMDL
MODEL 5
REMARK VINA RESULT:      -7.9      2.726      5.234
REMARK  Name = 
REMARK  5 active torsions:
REMARK  status: ('A' for Active; 'I' for Inactive)
REMARK    1  A    between atoms: C_1  and  O_2
REMARK    2  A    between atoms: O_2  and  C_3
REMARK    3  A    between atoms: N_12  and  C_13
REMARK    4  A    between atoms: C_19  and  C_20
REMARK    5  A    between atoms: C_23  and  C_24
REMARK                            x       y       z     vdW  Elec       q    Type
REMARK                         _______ _______ _______ _____ _____    ______ ____
ROOT
ATOM      1  C   UNL     1       6.158   4.546  15.125  0.00  0.00    +0.000 A 
ATOM      2  C   UNL     1       6.121   3.663  16.206  0.00  0.00    +0.000 A 
ATOM      3  C   UNL     1       5.394   3.992  17.339  0.00  0.00    +0.000 A 
ATOM      4  C   UNL     1       4.703   5.206  17.390  0.00  0.00    +0.000 A 
ATOM      5  C   UNL     1       3.969   5.542  18.599  0.00  0.00    +0.000 A 
ATOM      6  O   UNL     1       4.003   4.767  19.545  0.00  0.00    +0.000 OA
ATOM      7  C   UNL     1       3.239   6.817  18.596  0.00  0.00    +0.000 A 
ATOM      8  C   UNL     1       2.436   7.213  19.754  0.00  0.00    +0.000 A 
ATOM      9  O   UNL     1       2.294   6.438  20.700  0.00  0.00    +0.000 OA
ATOM     10  N   UNL     1       1.821   8.454  19.677  0.00  0.00    +0.000 N 
ATOM     11  C   UNL     1       1.941   9.238  18.519  0.00  0.00    +0.000 A 
ATOM     12  N   UNL     1       2.622   8.841  17.479  0.00  0.00    +0.000 NA
ATOM     13  C   UNL     1       3.284   7.628  17.524  0.00  0.00    +0.000 A 
ATOM     14  O   UNL     1       4.025   7.293  16.372  0.00  0.00    +0.000 OA
ATOM     15  C   UNL     1       4.712   6.098  16.329  0.00  0.00    +0.000 A 
ATOM     16  C   UNL     1       5.446   5.763  15.188  0.00  0.00    +0.000 A 
ENDROOT
BRANCH  11  17
ATOM     17  C   UNL     1       1.270  10.592  18.477  0.00  0.00    +0.000 A 
ATOM     18  C   UNL     1       2.011  11.781  18.535  0.00  0.00    +0.000 A 
ATOM     19  C   UNL     1       1.388  12.996  18.826  0.00  0.00    +0.000 A 
ATOM     20  C   UNL     1       0.000  13.063  18.953  0.00  0.00    +0.000 A 
ATOM     21  C   UNL     1      -0.664  14.350  19.349  0.00  0.00    +0.000 C 
ATOM     22  C   UNL     1      -0.755  11.909  18.705  0.00  0.00    +0.000 A 
ATOM     23  C   UNL     1      -0.126  10.676  18.478  0.00  0.00    +0.000 A 
ENDBRANCH  11  17
BRANCH  10  24
ATOM     24  C   UNL     1       0.979   8.765  20.790  0.00  0.00    +0.000 A 
ATOM     25  C   UNL     1       1.461   9.645  21.776  0.00  0.00    +0.000 A 
ATOM     26  C   UNL     1       0.687   9.956  22.888  0.00  0.00    +0.000 A 
ATOM     27  C   UNL     1      -0.572   9.377  23.033  0.00  0.00    +0.000 A 
ATOM     28  C   UNL     1      -1.057   8.496  22.065  0.00  0.00    +0.000 A 
ATOM     29  C   UNL     1      -0.286   8.186  20.943  0.00  0.00    +0.000 A 
ENDBRANCH  10  24
BRANCH   1  31
ATOM     30  C   UNL     1       6.157   3.610  12.942  0.00  0.00    +0.000 C 
ATOM     31  O   UNL     1       6.857   4.315  13.969  0.00  0.00    +0.000 OA
ENDBRANCH   1  31
TORSDOF 3
ENDMDL
MODEL 6
REMARK VINA RESULT:      -7.9      2.650      9.505
REMARK  Name = 
REMARK  5 active torsions:
REMARK  status: ('A' for Active; 'I' for Inactive)
REMARK    1  A    between atoms: C_1  and  O_2
REMARK    2  A    between atoms: O_2  and  C_3
REMARK    3  A    between atoms: N_12  and  C_13
REMARK    4  A    between atoms: C_19  and  C_20
REMARK    5  A    between atoms: C_23  and  C_24
REMARK                            x       y       z     vdW  Elec       q    Type
REMARK                         _______ _______ _______ _____ _____    ______ ____
ROOT
ATOM      1  C   UNL     1       0.396  12.710  19.458  0.00  0.00    +0.000 A 
ATOM      2  C   UNL     1      -0.257  12.146  20.556  0.00  0.00    +0.000 A 
ATOM      3  C   UNL     1      -0.070  10.805  20.853  0.00  0.00    +0.000 A 
ATOM      4  C   UNL     1       0.770  10.029  20.050  0.00  0.00    +0.000 A 
ATOM      5  C   UNL     1       0.928   8.618  20.364  0.00  0.00    +0.000 A 
ATOM      6  O   UNL     1       0.299   8.148  21.302  0.00  0.00    +0.000 OA
ATOM      7  C   UNL     1       1.840   7.848  19.506  0.00  0.00    +0.000 A 
ATOM      8  C   UNL     1       2.094   6.433  19.778  0.00  0.00    +0.000 A 
ATOM      9  O   UNL     1       1.617   5.902  20.782  0.00  0.00    +0.000 OA
ATOM     10  N   UNL     1       2.933   5.779  18.888  0.00  0.00    +0.000 N 
ATOM     11  C   UNL     1       3.527   6.477  17.825  0.00  0.00    +0.000 A 
ATOM     12  N   UNL     1       3.324   7.752  17.632  0.00  0.00    +0.000 NA
ATOM     13  C   UNL     1       2.466   8.437  18.471  0.00  0.00    +0.000 A 
ATOM     14  O   UNL     1       2.275   9.801  18.170  0.00  0.00    +0.000 OA
ATOM     15  C   UNL     1       1.439  10.562  18.960  0.00  0.00    +0.000 A 
ATOM     16  C   UNL     1       1.250  11.915  18.664  0.00  0.00    +0.000 A 
ENDROOT
BRANCH  11  17
ATOM     17  C   UNL     1       4.423   5.729  16.865  0.00  0.00    +0.000 A 
ATOM     18  C   UNL     1       5.523   6.347  16.252  0.00  0.00    +0.000 A 
ATOM     19  C   UNL     1       6.137   5.771  15.139  0.00  0.00    +0.000 A 
ATOM     20  C   UNL     1       5.737   4.513  14.687  0.00  0.00    +0.000 A 
ATOM     21  C   UNL     1       6.337   3.929  13.442  0.00  0.00    +0.000 C 
ATOM     22  C   UNL     1       4.766   3.812  15.417  0.00  0.00    +0.000 A 
ATOM     23  C   UNL     1       4.104   4.419  16.494  0.00  0.00    +0.000 A 
ENDBRANCH  11  17
BRANCH  10  24
ATOM     24  C   UNL     1       3.223   4.424  19.238  0.00  0.00    +0.000 A 
ATOM     25  C   UNL     1       4.485   4.121  19.780  0.00  0.00    +0.000 A 
ATOM     26  C   UNL     1       4.820   2.814  20.112  0.00  0.00    +0.000 A 
ATOM     27  C   UNL     1       3.900   1.791  19.890  0.00  0.00    +0.000 A 
ATOM     28  C   UNL     1       2.647   2.078  19.344  0.00  0.00    +0.000 A 
ATOM     29  C   UNL     1       2.304   3.391  19.016  0.00  0.00    +0.000 A 
ENDBRANCH  10  24
BRANCH   1  31
ATOM     30  C   UNL     1       1.481  14.707  18.769  0.00  0.00    +0.000 C 
ATOM     31  O   UNL     1       0.267  14.021  19.079  0.00  0.00    +0.000 OA
ENDBRANCH   1  31
TORSDOF 3
ENDMDL
MODEL 7
REMARK VINA RESULT:      -7.9      2.912      9.672
REMARK  Name = 
REMARK  5 active torsions:
REMARK  status: ('A' for Active; 'I' for Inactive)
REMARK    1  A    between atoms: C_1  and  O_2
REMARK    2  A    between atoms: O_2  and  C_3
REMARK    3  A    between atoms: N_12  and  C_13
REMARK    4  A    between atoms: C_19  and  C_20
REMARK    5  A    between atoms: C_23  and  C_24
REMARK                            x       y       z     vdW  Elec       q    Type
REMARK                         _______ _______ _______ _____ _____    ______ ____
ROOT
ATOM      1  C   UNL     1       0.499  12.307  19.586  0.00  0.00    +0.000 A 
ATOM      2  C   UNL     1      -0.213  11.640  20.585  0.00  0.00    +0.000 A 
ATOM      3  C   UNL     1      -0.018  10.281  20.778  0.00  0.00    +0.000 A 
ATOM      4  C   UNL     1       0.889   9.590  19.969  0.00  0.00    +0.000 A 
ATOM      5  C   UNL     1       1.056   8.160  20.171  0.00  0.00    +0.000 A 
ATOM      6  O   UNL     1       0.377   7.601  21.021  0.00  0.00    +0.000 OA
ATOM      7  C   UNL     1       2.038   7.482  19.313  0.00  0.00    +0.000 A 
ATOM      8  C   UNL     1       2.304   6.053  19.479  0.00  0.00    +0.000 A 
ATOM      9  O   UNL     1       1.774   5.430  20.399  0.00  0.00    +0.000 OA
ATOM     10  N   UNL     1       3.213   5.492  18.594  0.00  0.00    +0.000 N 
ATOM     11  C   UNL     1       3.860   6.289  17.637  0.00  0.00    +0.000 A 
ATOM     12  N   UNL     1       3.644   7.572  17.541  0.00  0.00    +0.000 NA
ATOM     13  C   UNL     1       2.718   8.168  18.377  0.00  0.00    +0.000 A 
ATOM     14  O   UNL     1       2.519   9.551  18.182  0.00  0.00    +0.000 OA
ATOM     15  C   UNL     1       1.617  10.227  18.977  0.00  0.00    +0.000 A 
ATOM     16  C   UNL     1       1.419  11.597  18.786  0.00  0.00    +0.000 A 
ENDROOT
BRANCH  11  17
ATOM     17  C   UNL     1       4.833   5.641  16.678  0.00  0.00    +0.000 A 
ATOM     18  C   UNL     1       6.194   5.978  16.674  0.00  0.00    +0.000 A 
ATOM     19  C   UNL     1       7.010   5.635  15.594  0.00  0.00    +0.000 A 
ATOM     20  C   UNL     1       6.509   4.853  14.553  0.00  0.00    +0.000 A 
ATOM     21  C   UNL     1       7.358   4.555  13.352  0.00  0.00    +0.000 C 
ATOM     22  C   UNL     1       5.201   4.357  14.653  0.00  0.00    +0.000 A 
ATOM     23  C   UNL     1       4.362   4.756  15.704  0.00  0.00    +0.000 A 
ENDBRANCH  11  17
BRANCH  10  24
ATOM     24  C   UNL     1       3.507   4.116  18.845  0.00  0.00    +0.000 A 
ATOM     25  C   UNL     1       2.812   3.133  18.117  0.00  0.00    +0.000 A 
ATOM     26  C   UNL     1       3.048   1.782  18.345  0.00  0.00    +0.000 A 
ATOM     27  C   UNL     1       3.972   1.400  19.315  0.00  0.00    +0.000 A 
ATOM     28  C   UNL     1       4.662   2.367  20.050  0.00  0.00    +0.000 A 
ATOM     29  C   UNL     1       4.433   3.725  19.819  0.00  0.00    +0.000 A 
ENDBRANCH  10  24
BRANCH   1  31
ATOM     30  C   UNL     1       1.410  14.231  18.533  0.00  0.00    +0.000 C 
ATOM     31  O   UNL     1       0.367  13.644  19.313  0.00  0.00    +0.000 OA
ENDBRANCH   1  31
TORSDOF 3
ENDMDL
MODEL 8
REMARK VINA RESULT:      -7.8      0.885      1.281
REMARK  Name = 
REMARK  5 active torsions:
REMARK  status: ('A' for Active; 'I' for Inactive)
REMARK    1  A    between atoms: C_1  and  O_2
REMARK    2  A    between atoms: O_2  and  C_3
REMARK    3  A    between atoms: N_12  and  C_13
REMARK    4  A    between atoms: C_19  and  C_20
REMARK    5  A    between atoms: C_23  and  C_24
REMARK                            x       y       z     vdW  Elec       q    Type
REMARK                         _______ _______ _______ _____ _____    ______ ____
ROOT
ATOM      1  C   UNL     1       2.656   4.166  19.962  0.00  0.00    +0.000 A 
ATOM      2  C   UNL     1       3.454   4.607  18.903  0.00  0.00    +0.000 A 
ATOM      3  C   UNL     1       3.390   5.931  18.499  0.00  0.00    +0.000 A 
ATOM      4  C   UNL     1       2.528   6.815  19.154  0.00  0.00    +0.000 A 
ATOM      5  C   UNL     1       2.458   8.192  18.695  0.00  0.00    +0.000 A 
ATOM      6  O   UNL     1       3.133   8.528  17.731  0.00  0.00    +0.000 OA
ATOM      7  C   UNL     1       1.555   9.089  19.430  0.00  0.00    +0.000 A 
ATOM      8  C   UNL     1       1.457  10.503  19.065  0.00  0.00    +0.000 A 
ATOM      9  O   UNL     1       2.198  10.969  18.199  0.00  0.00    +0.000 OA
ATOM     10  N   UNL     1       0.545  11.260  19.785  0.00  0.00    +0.000 N 
ATOM     11  C   UNL     1      -0.191  10.682  20.832  0.00  0.00    +0.000 A 
ATOM     12  N   UNL     1      -0.049   9.431  21.172  0.00  0.00    +0.000 NA
ATOM     13  C   UNL     1       0.821   8.628  20.458  0.00  0.00    +0.000 A 
ATOM     14  O   UNL     1       0.886   7.280  20.868  0.00  0.00    +0.000 OA
ATOM     15  C   UNL     1       1.732   6.410  20.214  0.00  0.00    +0.000 A 
ATOM     16  C   UNL     1       1.799   5.074  20.620  0.00  0.00    +0.000 A 
ENDROOT
BRANCH  11  17
ATOM     17  C   UNL     1      -1.187  11.534  21.586  0.00  0.00    +0.000 A 
ATOM     18  C   UNL     1      -1.195  11.588  22.987  0.00  0.00    +0.000 A 
ATOM     19  C   UNL     1      -2.298  12.098  23.675  0.00  0.00    +0.000 A 
ATOM     20  C   UNL     1      -3.363  12.664  22.975  0.00  0.00    +0.000 A 
ATOM     21  C   UNL     1      -4.586  13.135  23.707  0.00  0.00    +0.000 C 
ATOM     22  C   UNL     1      -3.268  12.781  21.581  0.00  0.00    +0.000 A 
ATOM     23  C   UNL     1      -2.191  12.211  20.887  0.00  0.00    +0.000 A 
ENDBRANCH  11  17
BRANCH  10  24
ATOM     24  C   UNL     1       0.542  12.651  19.455  0.00  0.00    +0.000 A 
ATOM     25  C   UNL     1      -0.267  13.091  18.392  0.00  0.00    +0.000 A 
ATOM     26  C   UNL     1      -0.282  14.431  18.020  0.00  0.00    +0.000 A 
ATOM     27  C   UNL     1       0.524  15.341  18.699  0.00  0.00    +0.000 A 
ATOM     28  C   UNL     1       1.338  14.914  19.751  0.00  0.00    +0.000 A 
ATOM     29  C   UNL     1       1.351  13.571  20.132  0.00  0.00    +0.000 A 
ENDBRANCH  10  24
BRANCH   1  31
ATOM     30  C   UNL     1       1.550   2.531  21.281  0.00  0.00    +0.000 C 
ATOM     31  O   UNL     1       2.641   2.877  20.425  0.00  0.00    +0.000 OA
ENDBRANCH   1  31
TORSDOF 3
ENDMDL
MODEL 9
REMARK VINA RESULT:      -7.8      1.510      4.117
REMARK  Name = 
REMARK  5 active torsions:
REMARK  status: ('A' for Active; 'I' for Inactive)
REMARK    1  A    between atoms: C_1  and  O_2
REMARK    2  A    between atoms: O_2  and  C_3
REMARK    3  A    between atoms: N_12  and  C_13
REMARK    4  A    between atoms: C_19  and  C_20
REMARK    5  A    between atoms: C_23  and  C_24
REMARK                            x       y       z     vdW  Elec       q    Type
REMARK                         _______ _______ _______ _____ _____    ______ ____
ROOT
ATOM      1  C   UNL     1       4.025   5.385  17.396  0.00  0.00    +0.000 A 
ATOM      2  C   UNL     1       3.426   4.767  18.496  0.00  0.00    +0.000 A 
ATOM      3  C   UNL     1       2.632   5.510  19.355  0.00  0.00    +0.000 A 
ATOM      4  C   UNL     1       2.438   6.873  19.113  0.00  0.00    +0.000 A 
ATOM      5  C   UNL     1       1.623   7.639  20.042  0.00  0.00    +0.000 A 
ATOM      6  O   UNL     1       1.158   7.074  21.023  0.00  0.00    +0.000 OA
ATOM      7  C   UNL     1       1.428   9.061  19.733  0.00  0.00    +0.000 A 
ATOM      8  C   UNL     1       0.585   9.897  20.590  0.00  0.00    +0.000 A 
ATOM      9  O   UNL     1      -0.039   9.391  21.523  0.00  0.00    +0.000 OA
ATOM     10  N   UNL     1       0.498  11.237  20.244  0.00  0.00    +0.000 N 
ATOM     11  C   UNL     1       1.154  11.723  19.102  0.00  0.00    +0.000 A 
ATOM     12  N   UNL     1       1.859  10.947  18.325  0.00  0.00    +0.000 NA
ATOM     13  C   UNL     1       2.006   9.612  18.651  0.00  0.00    +0.000 A 
ATOM     14  O   UNL     1       2.814   8.855  17.778  0.00  0.00    +0.000 OA
ATOM     15  C   UNL     1       3.010   7.512  18.025  0.00  0.00    +0.000 A 
ATOM     16  C   UNL     1       3.810   6.759  17.160  0.00  0.00    +0.000 A 
ENDROOT
BRANCH  11  17
ATOM     17  C   UNL     1       1.049  13.192  18.764  0.00  0.00    +0.000 A 
ATOM     18  C   UNL     1       2.168  14.036  18.803  0.00  0.00    +0.000 A 
ATOM     19  C   UNL     1       2.016  15.424  18.816  0.00  0.00    +0.000 A 
ATOM     20  C   UNL     1       0.750  15.994  18.679  0.00  0.00    +0.000 A 
ATOM     21  C   UNL     1       0.574  17.481  18.779  0.00  0.00    +0.000 C 
ATOM     22  C   UNL     1      -0.347  15.152  18.449  0.00  0.00    +0.000 A 
ATOM     23  C   UNL     1      -0.203  13.757  18.501  0.00  0.00    +0.000 A 
ENDBRANCH  11  17
BRANCH  10  24
ATOM     24  C   UNL     1      -0.401  11.998  21.054  0.00  0.00    +0.000 A 
ATOM     25  C   UNL     1      -1.784  11.879  20.823  0.00  0.00    +0.000 A 
ATOM     26  C   UNL     1      -2.694  12.618  21.569  0.00  0.00    +0.000 A 
ATOM     27  C   UNL     1      -2.230  13.496  22.546  0.00  0.00    +0.000 A 
ATOM     28  C   UNL     1      -0.859  13.628  22.779  0.00  0.00    +0.000 A 
ATOM     29  C   UNL     1       0.058  12.883  22.036  0.00  0.00    +0.000 A 
ENDBRANCH  10  24
BRANCH   1  31
ATOM     30  C   UNL     1       5.416   5.551  15.479  0.00  0.00    +0.000 C 
ATOM     31  O   UNL     1       4.834   4.738  16.499  0.00  0.00    +0.000 OA
ENDBRANCH   1  31
TORSDOF 3
ENDMDL
