MODEL 1
REMARK VINA RESULT:      -8.6      0.000      0.000
REMARK  Name = 
REMARK  3 active torsions:
REMARK  status: ('A' for Active; 'I' for Inactive)
REMARK    1  A    between atoms: C_1  and  C_2
REMARK    2  A    between atoms: N_8  and  N_9
REMARK    3  A    between atoms: C_10  and  C_12
REMARK                            x       y       z     vdW  Elec       q    Type
REMARK                         _______ _______ _______ _____ _____    ______ ____
ROOT
ATOM      1  N   UNL     1       7.467   7.979  17.039  0.00  0.00    +0.000 N 
ATOM      2  C   UNL     1       8.218   8.229  18.176  0.00  0.00    +0.000 C 
ATOM      3  O   UNL     1       8.583   7.351  18.950  0.00  0.00    +0.000 OA
ATOM      4  H   UNL     1       7.413   8.627  16.257  0.00  0.00    +0.000 HD
ENDROOT
BRANCH   1  12
ATOM      5  C   UNL     1       1.025   2.631  18.575  0.00  0.00    +0.000 C 
ATOM      6  C   UNL     1       2.059   3.708  18.391  0.00  0.00    +0.000 A 
ATOM      7  C   UNL     1       1.839   4.999  18.875  0.00  0.00    +0.000 A 
ATOM      8  C   UNL     1       2.798   6.007  18.698  0.00  0.00    +0.000 A 
ATOM      9  C   UNL     1       4.005   5.727  18.024  0.00  0.00    +0.000 A 
ATOM     10  N   UNL     1       5.032   6.630  17.772  0.00  0.00    +0.000 NA
ATOM     11  C   UNL     1       6.019   6.037  17.134  0.00  0.00    +0.000 A 
ATOM     12  N   UNL     1       7.165   6.645  16.739  0.00  0.00    +0.000 N 
ATOM     13  S   UNL     1       5.758   4.369  16.789  0.00  0.00    +0.000 S 
ATOM     14  C   UNL     1       4.216   4.433  17.551  0.00  0.00    +0.000 A 
ATOM     15  C   UNL     1       3.259   3.412  17.720  0.00  0.00    +0.000 A 
ATOM     16  H   UNL     1       7.960   6.095  16.410  0.00  0.00    +0.000 HD
ENDBRANCH   1  12
BRANCH   2  17
ATOM     17  C   UNL     1       8.584   9.656  18.416  0.00  0.00    +0.000 A 
ATOM     18  C   UNL     1       8.203  10.625  17.482  0.00  0.00    +0.000 A 
ATOM     19  C   UNL     1       8.542  11.971  17.682  0.00  0.00    +0.000 A 
ATOM     20  C   UNL     1       9.282  12.341  18.803  0.00  0.00    +0.000 A 
ATOM     21  C   UNL     1       9.670  11.375  19.735  0.00  0.00    +0.000 A 
ATOM     22  C   UNL     1       9.333  10.032  19.540  0.00  0.00    +0.000 A 
ATOM     23  O   UNL     1      10.397  11.665  20.862  0.00  0.00    +0.000 OA
ATOM     24  C   UNL     1      10.395  13.068  21.145  0.00  0.00    +0.000 C 
ATOM     25  C   UNL     1      10.635  13.885  19.885  0.00  0.00    +0.000 C 
ATOM     26  O   UNL     1       9.592  13.672  18.927  0.00  0.00    +0.000 OA
ENDBRANCH   2  17
TORSDOF 2
ENDMDL
MODEL 2
REMARK VINA RESULT:      -8.4      5.871      8.710
REMARK  Name = 
REMARK  3 active torsions:
REMARK  status: ('A' for Active; 'I' for Inactive)
REMARK    1  A    between atoms: C_1  and  C_2
REMARK    2  A    between atoms: N_8  and  N_9
REMARK    3  A    between atoms: C_10  and  C_12
REMARK                            x       y       z     vdW  Elec       q    Type
REMARK                         _______ _______ _______ _____ _____    ______ ____
ROOT
ATOM      1  N   UNL     1       1.922   8.787  18.319  0.00  0.00    +0.000 N 
ATOM      2  C   UNL     1       2.268   7.636  19.010  0.00  0.00    +0.000 C 
ATOM      3  O   UNL     1       1.969   7.437  20.182  0.00  0.00    +0.000 OA
ATOM      4  H   UNL     1       1.900   8.837  17.304  0.00  0.00    +0.000 HD
ENDROOT
BRANCH   1  12
ATOM      5  C   UNL     1      -5.732  12.344  17.217  0.00  0.00    +0.000 C 
ATOM      6  C   UNL     1      -4.419  11.609  17.260  0.00  0.00    +0.000 A 
ATOM      7  C   UNL     1      -4.117  10.633  16.308  0.00  0.00    +0.000 A 
ATOM      8  C   UNL     1      -2.897   9.942  16.351  0.00  0.00    +0.000 A 
ATOM      9  C   UNL     1      -1.955  10.225  17.362  0.00  0.00    +0.000 A 
ATOM     10  N   UNL     1      -0.719   9.612  17.526  0.00  0.00    +0.000 NA
ATOM     11  C   UNL     1      -0.085  10.124  18.560  0.00  0.00    +0.000 A 
ATOM     12  N   UNL     1       1.142   9.737  18.988  0.00  0.00    +0.000 N 
ATOM     13  S   UNL     1      -0.949  11.357  19.399  0.00  0.00    +0.000 S 
ATOM     14  C   UNL     1      -2.267  11.206  18.302  0.00  0.00    +0.000 A 
ATOM     15  C   UNL     1      -3.490  11.907  18.271  0.00  0.00    +0.000 A 
ATOM     16  H   UNL     1       1.650  10.290  19.681  0.00  0.00    +0.000 HD
ENDBRANCH   1  12
BRANCH   2  17
ATOM     17  C   UNL     1       3.033   6.614  18.236  0.00  0.00    +0.000 A 
ATOM     18  C   UNL     1       2.683   5.265  18.355  0.00  0.00    +0.000 A 
ATOM     19  C   UNL     1       3.391   4.286  17.644  0.00  0.00    +0.000 A 
ATOM     20  C   UNL     1       4.464   4.655  16.835  0.00  0.00    +0.000 A 
ATOM     21  C   UNL     1       4.820   6.001  16.719  0.00  0.00    +0.000 A 
ATOM     22  C   UNL     1       4.116   6.981  17.426  0.00  0.00    +0.000 A 
ATOM     23  O   UNL     1       5.862   6.440  15.941  0.00  0.00    +0.000 OA
ATOM     24  C   UNL     1       6.289   5.434  15.015  0.00  0.00    +0.000 C 
ATOM     25  C   UNL     1       6.395   4.075  15.687  0.00  0.00    +0.000 C 
ATOM     26  O   UNL     1       5.122   3.644  16.181  0.00  0.00    +0.000 OA
ENDBRANCH   2  17
TORSDOF 2
ENDMDL
MODEL 3
REMARK VINA RESULT:      -8.2      0.804      1.632
REMARK  Name = 
REMARK  3 active torsions:
REMARK  status: ('A' for Active; 'I' for Inactive)
REMARK    1  A    between atoms: C_1  and  C_2
REMARK    2  A    between atoms: N_8  and  N_9
REMARK    3  A    between atoms: C_10  and  C_12
REMARK                            x       y       z     vdW  Elec       q    Type
REMARK                         _______ _______ _______ _____ _____    ______ ____
ROOT
ATOM      1  N   UNL     1       7.419   8.141  16.967  0.00  0.00    +0.000 N 
ATOM      2  C   UNL     1       8.185   8.242  18.117  0.00  0.00    +0.000 C 
ATOM      3  O   UNL     1       8.517   7.276  18.795  0.00  0.00    +0.000 OA
ATOM      4  H   UNL     1       7.390   8.867  16.256  0.00  0.00    +0.000 HD
ENDROOT
BRANCH   1  12
ATOM      5  C   UNL     1       1.059   2.693  18.494  0.00  0.00    +0.000 C 
ATOM      6  C   UNL     1       2.091   3.777  18.337  0.00  0.00    +0.000 A 
ATOM      7  C   UNL     1       1.950   4.997  19.000  0.00  0.00    +0.000 A 
ATOM      8  C   UNL     1       2.907   6.012  18.850  0.00  0.00    +0.000 A 
ATOM      9  C   UNL     1       4.031   5.810  18.022  0.00  0.00    +0.000 A 
ATOM     10  N   UNL     1       5.045   6.729  17.779  0.00  0.00    +0.000 NA
ATOM     11  C   UNL     1       5.948   6.214  16.971  0.00  0.00    +0.000 A 
ATOM     12  N   UNL     1       7.059   6.858  16.536  0.00  0.00    +0.000 N 
ATOM     13  S   UNL     1       5.617   4.605  16.449  0.00  0.00    +0.000 S 
ATOM     14  C   UNL     1       4.164   4.585  17.371  0.00  0.00    +0.000 A 
ATOM     15  C   UNL     1       3.208   3.558  17.512  0.00  0.00    +0.000 A 
ATOM     16  H   UNL     1       7.804   6.347  16.059  0.00  0.00    +0.000 HD
ENDBRANCH   1  12
BRANCH   2  17
ATOM     17  C   UNL     1       8.613   9.620  18.498  0.00  0.00    +0.000 A 
ATOM     18  C   UNL     1       9.350   9.807  19.672  0.00  0.00    +0.000 A 
ATOM     19  C   UNL     1       9.756  11.093  20.055  0.00  0.00    +0.000 A 
ATOM     20  C   UNL     1       9.403  12.193  19.276  0.00  0.00    +0.000 A 
ATOM     21  C   UNL     1       8.661  12.011  18.106  0.00  0.00    +0.000 A 
ATOM     22  C   UNL     1       8.254  10.731  17.720  0.00  0.00    +0.000 A 
ATOM     23  O   UNL     1       8.279  13.045  17.289  0.00  0.00    +0.000 OA
ATOM     24  C   UNL     1       9.014  14.241  17.572  0.00  0.00    +0.000 C 
ATOM     25  C   UNL     1       9.114  14.486  19.069  0.00  0.00    +0.000 C 
ATOM     26  O   UNL     1       9.820  13.423  19.718  0.00  0.00    +0.000 OA
ENDBRANCH   2  17
TORSDOF 2
ENDMDL
MODEL 4
REMARK VINA RESULT:      -8.0      6.012      8.539
REMARK  Name = 
REMARK  3 active torsions:
REMARK  status: ('A' for Active; 'I' for Inactive)
REMARK    1  A    between atoms: C_1  and  C_2
REMARK    2  A    between atoms: N_8  and  N_9
REMARK    3  A    between atoms: C_10  and  C_12
REMARK                            x       y       z     vdW  Elec       q    Type
REMARK                         _______ _______ _______ _____ _____    ______ ____
ROOT
ATOM      1  N   UNL     1       2.259   7.731  20.589  0.00  0.00    +0.000 N 
ATOM      2  C   UNL     1       2.385   6.457  20.057  0.00  0.00    +0.000 C 
ATOM      3  O   UNL     1       1.675   5.514  20.388  0.00  0.00    +0.000 OA
ATOM      4  H   UNL     1       2.622   8.561  20.127  0.00  0.00    +0.000 HD
ENDROOT
BRANCH   1  12
ATOM      5  C   UNL     1      -2.305  14.415  23.225  0.00  0.00    +0.000 C 
ATOM      6  C   UNL     1      -1.416  13.352  22.636  0.00  0.00    +0.000 A 
ATOM      7  C   UNL     1      -0.513  13.662  21.617  0.00  0.00    +0.000 A 
ATOM      8  C   UNL     1       0.311  12.672  21.062  0.00  0.00    +0.000 A 
ATOM      9  C   UNL     1       0.237  11.343  21.529  0.00  0.00    +0.000 A 
ATOM     10  N   UNL     1       0.985  10.268  21.063  0.00  0.00    +0.000 NA
ATOM     11  C   UNL     1       0.678   9.173  21.727  0.00  0.00    +0.000 A 
ATOM     12  N   UNL     1       1.228   7.952  21.509  0.00  0.00    +0.000 N 
ATOM     13  S   UNL     1      -0.537   9.375  22.933  0.00  0.00    +0.000 S 
ATOM     14  C   UNL     1      -0.664  11.049  22.551  0.00  0.00    +0.000 A 
ATOM     15  C   UNL     1      -1.499  12.034  23.116  0.00  0.00    +0.000 A 
ATOM     16  H   UNL     1       1.078   7.188  22.170  0.00  0.00    +0.000 HD
ENDBRANCH   1  12
BRANCH   2  17
ATOM     17  C   UNL     1       3.446   6.283  19.022  0.00  0.00    +0.000 A 
ATOM     18  C   UNL     1       3.343   6.982  17.815  0.00  0.00    +0.000 A 
ATOM     19  C   UNL     1       4.324   6.829  16.824  0.00  0.00    +0.000 A 
ATOM     20  C   UNL     1       5.392   5.959  17.033  0.00  0.00    +0.000 A 
ATOM     21  C   UNL     1       5.495   5.255  18.235  0.00  0.00    +0.000 A 
ATOM     22  C   UNL     1       4.519   5.404  19.226  0.00  0.00    +0.000 A 
ATOM     23  O   UNL     1       6.517   4.383  18.512  0.00  0.00    +0.000 OA
ATOM     24  C   UNL     1       7.616   4.554  17.609  0.00  0.00    +0.000 C 
ATOM     25  C   UNL     1       7.133   4.688  16.174  0.00  0.00    +0.000 C 
ATOM     26  O   UNL     1       6.306   5.846  16.015  0.00  0.00    +0.000 OA
ENDBRANCH   2  17
TORSDOF 2
ENDMDL
MODEL 5
REMARK VINA RESULT:      -8.0      6.222      8.729
REMARK  Name = 
REMARK  3 active torsions:
REMARK  status: ('A' for Active; 'I' for Inactive)
REMARK    1  A    between atoms: C_1  and  C_2
REMARK    2  A    between atoms: N_8  and  N_9
REMARK    3  A    between atoms: C_10  and  C_12
REMARK                            x       y       z     vdW  Elec       q    Type
REMARK                         _______ _______ _______ _____ _____    ______ ____
ROOT
ATOM      1  N   UNL     1       2.456   6.993  20.289  0.00  0.00    +0.000 N 
ATOM      2  C   UNL     1       2.198   5.675  19.947  0.00  0.00    +0.000 C 
ATOM      3  O   UNL     1       1.326   4.998  20.481  0.00  0.00    +0.000 OA
ATOM      4  H   UNL     1       2.951   7.636  19.677  0.00  0.00    +0.000 HD
ENDROOT
BRANCH   1  12
ATOM      5  C   UNL     1      -2.514  13.889  20.733  0.00  0.00    +0.000 C 
ATOM      6  C   UNL     1      -1.606  12.717  20.474  0.00  0.00    +0.000 A 
ATOM      7  C   UNL     1      -1.024  12.531  19.219  0.00  0.00    +0.000 A 
ATOM      8  C   UNL     1      -0.183  11.435  18.972  0.00  0.00    +0.000 A 
ATOM      9  C   UNL     1       0.087  10.504  19.996  0.00  0.00    +0.000 A 
ATOM     10  N   UNL     1       0.891   9.374  19.886  0.00  0.00    +0.000 NA
ATOM     11  C   UNL     1       0.940   8.732  21.033  0.00  0.00    +0.000 A 
ATOM     12  N   UNL     1       1.635   7.588  21.254  0.00  0.00    +0.000 N 
ATOM     13  S   UNL     1       0.011   9.441  22.300  0.00  0.00    +0.000 S 
ATOM     14  C   UNL     1      -0.494  10.706  21.247  0.00  0.00    +0.000 A 
ATOM     15  C   UNL     1      -1.343  11.801  21.506  0.00  0.00    +0.000 A 
ATOM     16  H   UNL     1       1.776   7.239  22.204  0.00  0.00    +0.000 HD
ENDBRANCH   1  12
BRANCH   2  17
ATOM     17  C   UNL     1       3.045   5.104  18.860  0.00  0.00    +0.000 A 
ATOM     18  C   UNL     1       3.153   3.715  18.737  0.00  0.00    +0.000 A 
ATOM     19  C   UNL     1       3.950   3.154  17.728  0.00  0.00    +0.000 A 
ATOM     20  C   UNL     1       4.656   3.984  16.860  0.00  0.00    +0.000 A 
ATOM     21  C   UNL     1       4.556   5.372  16.984  0.00  0.00    +0.000 A 
ATOM     22  C   UNL     1       3.763   5.935  17.989  0.00  0.00    +0.000 A 
ATOM     23  O   UNL     1       5.220   6.251  16.166  0.00  0.00    +0.000 OA
ATOM     24  C   UNL     1       5.716   5.605  14.989  0.00  0.00    +0.000 C 
ATOM     25  C   UNL     1       6.372   4.275  15.324  0.00  0.00    +0.000 C 
ATOM     26  O   UNL     1       5.428   3.369  15.907  0.00  0.00    +0.000 OA
ENDBRANCH   2  17
TORSDOF 2
ENDMDL
MODEL 6
REMARK VINA RESULT:      -7.9      5.782      8.329
REMARK  Name = 
REMARK  3 active torsions:
REMARK  status: ('A' for Active; 'I' for Inactive)
REMARK    1  A    between atoms: C_1  and  C_2
REMARK    2  A    between atoms: N_8  and  N_9
REMARK    3  A    between atoms: C_10  and  C_12
REMARK                            x       y       z     vdW  Elec       q    Type
REMARK                         _______ _______ _______ _____ _____    ______ ____
ROOT
ATOM      1  N   UNL     1       2.675   6.727  19.915  0.00  0.00    +0.000 N 
ATOM      2  C   UNL     1       3.207   5.448  19.872  0.00  0.00    +0.000 C 
ATOM      3  O   UNL     1       2.802   4.525  20.570  0.00  0.00    +0.000 OA
ATOM      4  H   UNL     1       2.791   7.399  19.161  0.00  0.00    +0.000 HD
ENDROOT
BRANCH   1  12
ATOM      5  C   UNL     1      -1.601  13.500  22.794  0.00  0.00    +0.000 C 
ATOM      6  C   UNL     1      -0.744  12.425  22.182  0.00  0.00    +0.000 A 
ATOM      7  C   UNL     1       0.270  12.750  21.279  0.00  0.00    +0.000 A 
ATOM      8  C   UNL     1       1.066  11.749  20.702  0.00  0.00    +0.000 A 
ATOM      9  C   UNL     1       0.850  10.394  21.029  0.00  0.00    +0.000 A 
ATOM     10  N   UNL     1       1.556   9.307  20.525  0.00  0.00    +0.000 NA
ATOM     11  C   UNL     1       1.108   8.186  21.050  0.00  0.00    +0.000 A 
ATOM     12  N   UNL     1       1.582   6.949  20.761  0.00  0.00    +0.000 N 
ATOM     13  S   UNL     1      -0.195   8.378  22.162  0.00  0.00    +0.000 S 
ATOM     14  C   UNL     1      -0.161  10.084  21.937  0.00  0.00    +0.000 A 
ATOM     15  C   UNL     1      -0.969  11.080  22.522  0.00  0.00    +0.000 A 
ATOM     16  H   UNL     1       1.316   6.143  21.329  0.00  0.00    +0.000 HD
ENDBRANCH   1  12
BRANCH   2  17
ATOM     17  C   UNL     1       4.319   5.235  18.901  0.00  0.00    +0.000 A 
ATOM     18  C   UNL     1       5.642   5.362  19.338  0.00  0.00    +0.000 A 
ATOM     19  C   UNL     1       6.704   5.174  18.442  0.00  0.00    +0.000 A 
ATOM     20  C   UNL     1       6.441   4.884  17.104  0.00  0.00    +0.000 A 
ATOM     21  C   UNL     1       5.121   4.763  16.663  0.00  0.00    +0.000 A 
ATOM     22  C   UNL     1       4.059   4.949  17.553  0.00  0.00    +0.000 A 
ATOM     23  O   UNL     1       4.785   4.478  15.363  0.00  0.00    +0.000 OA
ATOM     24  C   UNL     1       5.906   3.978  14.626  0.00  0.00    +0.000 C 
ATOM     25  C   UNL     1       7.156   4.799  14.899  0.00  0.00    +0.000 C 
ATOM     26  O   UNL     1       7.527   4.729  16.280  0.00  0.00    +0.000 OA
ENDBRANCH   2  17
TORSDOF 2
ENDMDL
MODEL 7
REMARK VINA RESULT:      -7.8      5.939      8.752
REMARK  Name = 
REMARK  3 active torsions:
REMARK  status: ('A' for Active; 'I' for Inactive)
REMARK    1  A    between atoms: C_1  and  C_2
REMARK    2  A    between atoms: N_8  and  N_9
REMARK    3  A    between atoms: C_10  and  C_12
REMARK                            x       y       z     vdW  Elec       q    Type
REMARK                         _______ _______ _______ _____ _____    ______ ____
ROOT
ATOM      1  N   UNL     1       2.309   7.645  20.168  0.00  0.00    +0.000 N 
ATOM      2  C   UNL     1       2.421   6.365  19.649  0.00  0.00    +0.000 C 
ATOM      3  O   UNL     1       1.824   5.396  20.106  0.00  0.00    +0.000 OA
ATOM      4  H   UNL     1       2.549   8.479  19.639  0.00  0.00    +0.000 HD
ENDROOT
BRANCH   1  12
ATOM      5  C   UNL     1      -2.374  14.084  23.177  0.00  0.00    +0.000 C 
ATOM      6  C   UNL     1      -1.497  13.063  22.505  0.00  0.00    +0.000 A 
ATOM      7  C   UNL     1      -0.802  13.379  21.336  0.00  0.00    +0.000 A 
ATOM      8  C   UNL     1       0.011  12.427  20.704  0.00  0.00    +0.000 A 
ATOM      9  C   UNL     1       0.137  11.130  21.244  0.00  0.00    +0.000 A 
ATOM     10  N   UNL     1       0.897  10.092  20.716  0.00  0.00    +0.000 NA
ATOM     11  C   UNL     1       0.804   9.022  21.477  0.00  0.00    +0.000 A 
ATOM     12  N   UNL     1       1.422   7.839  21.233  0.00  0.00    +0.000 N 
ATOM     13  S   UNL     1      -0.216   9.200  22.855  0.00  0.00    +0.000 S 
ATOM     14  C   UNL     1      -0.557  10.829  22.415  0.00  0.00    +0.000 A 
ATOM     15  C   UNL     1      -1.379  11.776  23.059  0.00  0.00    +0.000 A 
ATOM     16  H   UNL     1       1.452   7.111  21.948  0.00  0.00    +0.000 HD
ENDBRANCH   1  12
BRANCH   2  17
ATOM     17  C   UNL     1       3.316   6.216  18.464  0.00  0.00    +0.000 A 
ATOM     18  C   UNL     1       3.688   7.354  17.742  0.00  0.00    +0.000 A 
ATOM     19  C   UNL     1       4.522   7.239  16.621  0.00  0.00    +0.000 A 
ATOM     20  C   UNL     1       4.963   5.983  16.210  0.00  0.00    +0.000 A 
ATOM     21  C   UNL     1       4.589   4.843  16.926  0.00  0.00    +0.000 A 
ATOM     22  C   UNL     1       3.757   4.953  18.044  0.00  0.00    +0.000 A 
ATOM     23  O   UNL     1       4.985   3.575  16.582  0.00  0.00    +0.000 OA
ATOM     24  C   UNL     1       6.081   3.596  15.660  0.00  0.00    +0.000 C 
ATOM     25  C   UNL     1       5.855   4.618  14.558  0.00  0.00    +0.000 C 
ATOM     26  O   UNL     1       5.764   5.942  15.096  0.00  0.00    +0.000 OA
ENDBRANCH   2  17
TORSDOF 2
ENDMDL
MODEL 8
REMARK VINA RESULT:      -7.8      6.013      7.625
REMARK  Name = 
REMARK  3 active torsions:
REMARK  status: ('A' for Active; 'I' for Inactive)
REMARK    1  A    between atoms: C_1  and  C_2
REMARK    2  A    between atoms: N_8  and  N_9
REMARK    3  A    between atoms: C_10  and  C_12
REMARK                            x       y       z     vdW  Elec       q    Type
REMARK                         _______ _______ _______ _____ _____    ______ ____
ROOT
ATOM      1  N   UNL     1       1.532   8.294  20.902  0.00  0.00    +0.000 N 
ATOM      2  C   UNL     1       0.273   8.628  21.374  0.00  0.00    +0.000 C 
ATOM      3  O   UNL     1      -0.614   7.805  21.574  0.00  0.00    +0.000 OA
ATOM      4  H   UNL     1       2.343   8.897  21.013  0.00  0.00    +0.000 HD
ENDROOT
BRANCH   1  12
ATOM      5  C   UNL     1       5.883   3.683  15.222  0.00  0.00    +0.000 C 
ATOM      6  C   UNL     1       5.175   4.650  16.132  0.00  0.00    +0.000 A 
ATOM      7  C   UNL     1       5.256   6.027  15.910  0.00  0.00    +0.000 A 
ATOM      8  C   UNL     1       4.603   6.931  16.761  0.00  0.00    +0.000 A 
ATOM      9  C   UNL     1       3.853   6.458  17.858  0.00  0.00    +0.000 A 
ATOM     10  N   UNL     1       3.167   7.240  18.781  0.00  0.00    +0.000 NA
ATOM     11  C   UNL     1       2.560   6.479  19.667  0.00  0.00    +0.000 A 
ATOM     12  N   UNL     1       1.812   6.937  20.702  0.00  0.00    +0.000 N 
ATOM     13  S   UNL     1       2.794   4.786  19.448  0.00  0.00    +0.000 S 
ATOM     14  C   UNL     1       3.774   5.081  18.064  0.00  0.00    +0.000 A 
ATOM     15  C   UNL     1       4.427   4.163  17.217  0.00  0.00    +0.000 A 
ATOM     16  H   UNL     1       1.227   6.299  21.243  0.00  0.00    +0.000 HD
ENDBRANCH   1  12
BRANCH   2  17
ATOM     17  C   UNL     1       0.042  10.077  21.649  0.00  0.00    +0.000 A 
ATOM     18  C   UNL     1      -0.830  10.446  22.679  0.00  0.00    +0.000 A 
ATOM     19  C   UNL     1      -1.069  11.800  22.952  0.00  0.00    +0.000 A 
ATOM     20  C   UNL     1      -0.455  12.783  22.177  0.00  0.00    +0.000 A 
ATOM     21  C   UNL     1       0.411  12.418  21.143  0.00  0.00    +0.000 A 
ATOM     22  C   UNL     1       0.652  11.069  20.869  0.00  0.00    +0.000 A 
ATOM     23  O   UNL     1       1.051  13.329  20.341  0.00  0.00    +0.000 OA
ATOM     24  C   UNL     1       1.014  14.645  20.904  0.00  0.00    +0.000 C 
ATOM     25  C   UNL     1      -0.371  14.980  21.434  0.00  0.00    +0.000 C 
ATOM     26  O   UNL     1      -0.747  14.087  22.489  0.00  0.00    +0.000 OA
ENDBRANCH   2  17
TORSDOF 2
ENDMDL
MODEL 9
REMARK VINA RESULT:      -7.8      5.867      8.253
REMARK  Name = 
REMARK  3 active torsions:
REMARK  status: ('A' for Active; 'I' for Inactive)
REMARK    1  A    between atoms: C_1  and  C_2
REMARK    2  A    between atoms: N_8  and  N_9
REMARK    3  A    between atoms: C_10  and  C_12
REMARK                            x       y       z     vdW  Elec       q    Type
REMARK                         _______ _______ _______ _____ _____    ______ ____
ROOT
ATOM      1  N   UNL     1       2.949   6.852  20.097  0.00  0.00    +0.000 N 
ATOM      2  C   UNL     1       2.940   5.617  19.467  0.00  0.00    +0.000 C 
ATOM      3  O   UNL     1       2.026   4.809  19.580  0.00  0.00    +0.000 OA
ATOM      4  H   UNL     1       3.531   7.626  19.788  0.00  0.00    +0.000 HD
ENDROOT
BRANCH   1  12
ATOM      5  C   UNL     1      -2.322  13.521  20.539  0.00  0.00    +0.000 C 
ATOM      6  C   UNL     1      -1.307  12.433  20.317  0.00  0.00    +0.000 A 
ATOM      7  C   UNL     1      -0.341  12.552  19.316  0.00  0.00    +0.000 A 
ATOM      8  C   UNL     1       0.602  11.536  19.102  0.00  0.00    +0.000 A 
ATOM      9  C   UNL     1       0.586  10.373  19.900  0.00  0.00    +0.000 A 
ATOM     10  N   UNL     1       1.451   9.290  19.790  0.00  0.00    +0.000 NA
ATOM     11  C   UNL     1       1.168   8.382  20.699  0.00  0.00    +0.000 A 
ATOM     12  N   UNL     1       1.824   7.205  20.852  0.00  0.00    +0.000 N 
ATOM     13  S   UNL     1      -0.163   8.772  21.723  0.00  0.00    +0.000 S 
ATOM     14  C   UNL     1      -0.380  10.269  20.901  0.00  0.00    +0.000 A 
ATOM     15  C   UNL     1      -1.334  11.283  21.124  0.00  0.00    +0.000 A 
ATOM     16  H   UNL     1       1.673   6.628  21.681  0.00  0.00    +0.000 HD
ENDBRANCH   1  12
BRANCH   2  17
ATOM     17  C   UNL     1       4.123   5.313  18.609  0.00  0.00    +0.000 A 
ATOM     18  C   UNL     1       5.398   5.298  19.184  0.00  0.00    +0.000 A 
ATOM     19  C   UNL     1       6.525   5.023  18.397  0.00  0.00    +0.000 A 
ATOM     20  C   UNL     1       6.377   4.788  17.031  0.00  0.00    +0.000 A 
ATOM     21  C   UNL     1       5.106   4.809  16.452  0.00  0.00    +0.000 A 
ATOM     22  C   UNL     1       3.979   5.083  17.234  0.00  0.00    +0.000 A 
ATOM     23  O   UNL     1       4.883   4.586  15.117  0.00  0.00    +0.000 OA
ATOM     24  C   UNL     1       6.022   3.991  14.484  0.00  0.00    +0.000 C 
ATOM     25  C   UNL     1       7.310   4.676  14.910  0.00  0.00    +0.000 C 
ATOM     26  O   UNL     1       7.524   4.541  16.319  0.00  0.00    +0.000 OA
ENDBRANCH   2  17
TORSDOF 2
ENDMDL
