MODEL 1
REMARK VINA RESULT:      -9.4      0.000      0.000
REMARK  Name = 
REMARK  7 active torsions:
REMARK  status: ('A' for Active; 'I' for Inactive)
REMARK    1  A    between atoms: C_1  and  C_2
REMARK    2  A    between atoms: C_8  and  O_9
REMARK    3  A    between atoms: C_12  and  C_13
REMARK    4  A    between atoms: N_16  and  C_17
REMARK    5  A    between atoms: C_17  and  C_18
REMARK    6  A    between atoms: C_18  and  C_19
REMARK    7  A    between atoms: N_21  and  C_22
REMARK                            x       y       z     vdW  Elec       q    Type
REMARK                         _______ _______ _______ _____ _____    ______ ____
ROOT
ATOM      1  C   UNL     1       6.221   3.646  15.651  0.00  0.00    +0.000 C 
ATOM      2  C   UNL     1       5.408   4.693  16.410  0.00  0.00    +0.000 C 
ATOM      3  C   UNL     1       6.025   6.126  16.311  0.00  0.00    +0.000 C 
ATOM      4  C   UNL     1       4.761   6.961  16.046  0.00  0.00    +0.000 C 
ATOM      5  C   UNL     1       3.844   6.813  17.254  0.00  0.00    +0.000 A 
ATOM      6  C   UNL     1       2.942   7.861  17.477  0.00  0.00    +0.000 A 
ATOM      7  C   UNL     1       2.268   7.932  18.675  0.00  0.00    +0.000 A 
ATOM      8  C   UNL     1       2.492   6.959  19.649  0.00  0.00    +0.000 A 
ATOM      9  C   UNL     1       3.319   5.856  19.411  0.00  0.00    +0.000 A 
ATOM     10  C   UNL     1       3.993   5.736  18.191  0.00  0.00    +0.000 A 
ATOM     11  C   UNL     1       4.966   4.528  17.888  0.00  0.00    +0.000 C 
ATOM     12  C   UNL     1       4.238   3.191  18.125  0.00  0.00    +0.000 C 
ATOM     13  C   UNL     1       6.225   4.535  18.787  0.00  0.00    +0.000 C 
ATOM     14  C   UNL     1       7.238   5.629  18.438  0.00  0.00    +0.000 C 
ATOM     15  N   UNL     1       6.665   6.624  17.562  0.00  0.00    +0.000 NA
ENDROOT
BRANCH   8  16
ATOM     16  O   UNL     1       1.922   7.080  20.882  0.00  0.00    +0.000 OA
ATOM     17  H   UNL     1       0.982   7.292  20.753  0.00  0.00    +0.000 HD
ENDBRANCH   8  16
BRANCH  15  18
ATOM     18  C   UNL     1       7.376   7.895  17.474  0.00  0.00    +0.000 C 
BRANCH  18  19
ATOM     19  C   UNL     1       8.369   8.151  18.633  0.00  0.00    +0.000 C 
BRANCH  19  20
ATOM     20  C   UNL     1       8.768   9.614  18.621  0.00  0.00    +0.000 C 
ATOM     21  O   UNL     1       8.428  10.357  17.705  0.00  0.00    +0.000 OA
ATOM     22  N   UNL     1       9.574  10.009  19.681  0.00  0.00    +0.000 N 
ATOM     23  H   UNL     1      10.224   9.306  20.032  0.00  0.00    +0.000 HD
BRANCH  22  24
ATOM     24  C   UNL     1      10.104  11.331  19.692  0.00  0.00    +0.000 A 
ATOM     25  C   UNL     1      11.199  11.660  18.880  0.00  0.00    +0.000 A 
ATOM     26  C   UNL     1      11.818  12.898  19.004  0.00  0.00    +0.000 A 
ATOM     27  C   UNL     1      11.382  13.775  19.991  0.00  0.00    +0.000 A 
ATOM     28  C   UNL     1      10.308  13.433  20.830  0.00  0.00    +0.000 A 
ATOM     29  C   UNL     1       9.967  14.230  21.933  0.00  0.00    +0.000 A 
ATOM     30  C   UNL     1       8.901  13.861  22.740  0.00  0.00    +0.000 A 
ATOM     31  C   UNL     1       8.174  12.738  22.389  0.00  0.00    +0.000 A 
ATOM     32  N   UNL     1       8.500  11.916  21.366  0.00  0.00    +0.000 NA
ATOM     33  C   UNL     1       9.593  12.246  20.621  0.00  0.00    +0.000 A 
ENDBRANCH  22  24
ENDBRANCH  19  20
ENDBRANCH  18  19
ENDBRANCH  15  18
TORSDOF 5
ENDMDL
MODEL 2
REMARK VINA RESULT:      -9.4      5.482      8.168
REMARK  Name = 
REMARK  7 active torsions:
REMARK  status: ('A' for Active; 'I' for Inactive)
REMARK    1  A    between atoms: C_1  and  C_2
REMARK    2  A    between atoms: C_8  and  O_9
REMARK    3  A    between atoms: C_12  and  C_13
REMARK    4  A    between atoms: N_16  and  C_17
REMARK    5  A    between atoms: C_17  and  C_18
REMARK    6  A    between atoms: C_18  and  C_19
REMARK    7  A    between atoms: N_21  and  C_22
REMARK                            x       y       z     vdW  Elec       q    Type
REMARK                         _______ _______ _______ _____ _____    ______ ____
ROOT
ATOM      1  C   UNL     1       2.679   2.625  20.381  0.00  0.00    +0.000 C 
ATOM      2  C   UNL     1       3.565   3.463  19.460  0.00  0.00    +0.000 C 
ATOM      3  C   UNL     1       3.447   4.996  19.741  0.00  0.00    +0.000 C 
ATOM      4  C   UNL     1       4.928   5.408  19.692  0.00  0.00    +0.000 C 
ATOM      5  C   UNL     1       5.445   5.119  18.288  0.00  0.00    +0.000 A 
ATOM      6  C   UNL     1       6.540   5.882  17.863  0.00  0.00    +0.000 A 
ATOM      7  C   UNL     1       6.900   5.870  16.536  0.00  0.00    +0.000 A 
ATOM      8  C   UNL     1       6.171   5.098  15.632  0.00  0.00    +0.000 A 
ATOM      9  C   UNL     1       5.132   4.260  16.051  0.00  0.00    +0.000 A 
ATOM     10  C   UNL     1       4.762   4.222  17.399  0.00  0.00    +0.000 A 
ATOM     11  C   UNL     1       3.573   3.319  17.916  0.00  0.00    +0.000 C 
ATOM     12  C   UNL     1       3.789   1.858  17.476  0.00  0.00    +0.000 C 
ATOM     13  C   UNL     1       2.199   3.769  17.367  0.00  0.00    +0.000 C 
ATOM     14  C   UNL     1       1.673   5.069  17.983  0.00  0.00    +0.000 C 
ATOM     15  N   UNL     1       2.708   5.772  18.704  0.00  0.00    +0.000 NA
ENDROOT
BRANCH   8  16
ATOM     16  O   UNL     1       6.442   5.167  14.297  0.00  0.00    +0.000 OA
ATOM     17  H   UNL     1       5.775   4.636  13.832  0.00  0.00    +0.000 HD
ENDBRANCH   8  16
BRANCH  15  18
ATOM     18  C   UNL     1       2.452   7.179  18.995  0.00  0.00    +0.000 C 
BRANCH  18  19
ATOM     19  C   UNL     1       2.794   8.142  17.833  0.00  0.00    +0.000 C 
BRANCH  19  20
ATOM     20  C   UNL     1       1.952   9.396  17.974  0.00  0.00    +0.000 C 
ATOM     21  O   UNL     1       2.310  10.459  17.475  0.00  0.00    +0.000 OA
ATOM     22  N   UNL     1       0.804   9.246  18.742  0.00  0.00    +0.000 N 
ATOM     23  H   UNL     1       0.870   8.587  19.516  0.00  0.00    +0.000 HD
BRANCH  22  24
ATOM     24  C   UNL     1       0.016  10.395  19.037  0.00  0.00    +0.000 A 
ATOM     25  C   UNL     1       0.364  11.236  20.103  0.00  0.00    +0.000 A 
ATOM     26  C   UNL     1      -0.487  12.263  20.494  0.00  0.00    +0.000 A 
ATOM     27  C   UNL     1      -1.717  12.400  19.861  0.00  0.00    +0.000 A 
ATOM     28  C   UNL     1      -2.084  11.534  18.815  0.00  0.00    +0.000 A 
ATOM     29  C   UNL     1      -3.381  11.551  18.281  0.00  0.00    +0.000 A 
ATOM     30  C   UNL     1      -3.707  10.683  17.250  0.00  0.00    +0.000 A 
ATOM     31  C   UNL     1      -2.714   9.864  16.746  0.00  0.00    +0.000 A 
ATOM     32  N   UNL     1      -1.468   9.781  17.265  0.00  0.00    +0.000 NA
ATOM     33  C   UNL     1      -1.176  10.585  18.326  0.00  0.00    +0.000 A 
ENDBRANCH  22  24
ENDBRANCH  19  20
ENDBRANCH  18  19
ENDBRANCH  15  18
TORSDOF 5
ENDMDL
MODEL 3
REMARK VINA RESULT:      -9.3      5.201      7.331
REMARK  Name = 
REMARK  7 active torsions:
REMARK  status: ('A' for Active; 'I' for Inactive)
REMARK    1  A    between atoms: C_1  and  C_2
REMARK    2  A    between atoms: C_8  and  O_9
REMARK    3  A    between atoms: C_12  and  C_13
REMARK    4  A    between atoms: N_16  and  C_17
REMARK    5  A    between atoms: C_17  and  C_18
REMARK    6  A    between atoms: C_18  and  C_19
REMARK    7  A    between atoms: N_21  and  C_22
REMARK                            x       y       z     vdW  Elec       q    Type
REMARK                         _______ _______ _______ _____ _____    ______ ____
ROOT
ATOM      1  C   UNL     1       2.653   3.295  20.776  0.00  0.00    +0.000 C 
ATOM      2  C   UNL     1       3.611   3.709  19.659  0.00  0.00    +0.000 C 
ATOM      3  C   UNL     1       3.822   5.256  19.586  0.00  0.00    +0.000 C 
ATOM      4  C   UNL     1       5.346   5.325  19.394  0.00  0.00    +0.000 C 
ATOM      5  C   UNL     1       5.681   4.638  18.077  0.00  0.00    +0.000 A 
ATOM      6  C   UNL     1       6.868   5.042  17.452  0.00  0.00    +0.000 A 
ATOM      7  C   UNL     1       7.111   4.668  16.151  0.00  0.00    +0.000 A 
ATOM      8  C   UNL     1       6.173   3.890  15.472  0.00  0.00    +0.000 A 
ATOM      9  C   UNL     1       5.026   3.400  16.107  0.00  0.00    +0.000 A 
ATOM     10  C   UNL     1       4.765   3.734  17.439  0.00  0.00    +0.000 A 
ATOM     11  C   UNL     1       3.467   3.236  18.188  0.00  0.00    +0.000 C 
ATOM     12  C   UNL     1       3.353   1.702  18.086  0.00  0.00    +0.000 C 
ATOM     13  C   UNL     1       2.169   3.836  17.598  0.00  0.00    +0.000 C 
ATOM     14  C   UNL     1       1.962   5.319  17.919  0.00  0.00    +0.000 C 
ATOM     15  N   UNL     1       3.170   5.927  18.425  0.00  0.00    +0.000 NA
ENDROOT
BRANCH   8  16
ATOM     16  O   UNL     1       6.345   3.610  14.149  0.00  0.00    +0.000 OA
ATOM     17  H   UNL     1       7.300   3.579  13.975  0.00  0.00    +0.000 HD
ENDBRANCH   8  16
BRANCH  15  18
ATOM     18  C   UNL     1       3.222   7.384  18.395  0.00  0.00    +0.000 C 
BRANCH  18  19
ATOM     19  C   UNL     1       2.033   8.050  17.663  0.00  0.00    +0.000 C 
BRANCH  19  20
ATOM     20  C   UNL     1       1.447   9.125  18.557  0.00  0.00    +0.000 C 
ATOM     21  O   UNL     1       1.454   9.007  19.779  0.00  0.00    +0.000 OA
ATOM     22  N   UNL     1       0.870  10.195  17.885  0.00  0.00    +0.000 N 
ATOM     23  H   UNL     1       0.425   9.973  16.995  0.00  0.00    +0.000 HD
BRANCH  22  24
ATOM     24  C   UNL     1       0.182  11.193  18.633  0.00  0.00    +0.000 A 
ATOM     25  C   UNL     1      -1.134  10.972  19.064  0.00  0.00    +0.000 A 
ATOM     26  C   UNL     1      -1.861  11.999  19.652  0.00  0.00    +0.000 A 
ATOM     27  C   UNL     1      -1.292  13.264  19.744  0.00  0.00    +0.000 A 
ATOM     28  C   UNL     1       0.015  13.497  19.280  0.00  0.00    +0.000 A 
ATOM     29  C   UNL     1       0.540  14.796  19.212  0.00  0.00    +0.000 A 
ATOM     30  C   UNL     1       1.832  14.988  18.749  0.00  0.00    +0.000 A 
ATOM     31  C   UNL     1       2.582  13.873  18.421  0.00  0.00    +0.000 A 
ATOM     32  N   UNL     1       2.097  12.610  18.424  0.00  0.00    +0.000 NA
ATOM     33  C   UNL     1       0.802  12.437  18.811  0.00  0.00    +0.000 A 
ENDBRANCH  22  24
ENDBRANCH  19  20
ENDBRANCH  18  19
ENDBRANCH  15  18
TORSDOF 5
ENDMDL
MODEL 4
REMARK VINA RESULT:      -9.2      5.689      7.647
REMARK  Name = 
REMARK  7 active torsions:
REMARK  status: ('A' for Active; 'I' for Inactive)
REMARK    1  A    between atoms: C_1  and  C_2
REMARK    2  A    between atoms: C_8  and  O_9
REMARK    3  A    between atoms: C_12  and  C_13
REMARK    4  A    between atoms: N_16  and  C_17
REMARK    5  A    between atoms: C_17  and  C_18
REMARK    6  A    between atoms: C_18  and  C_19
REMARK    7  A    between atoms: N_21  and  C_22
REMARK                            x       y       z     vdW  Elec       q    Type
REMARK                         _______ _______ _______ _____ _____    ______ ____
ROOT
ATOM      1  C   UNL     1       2.584   3.490  20.766  0.00  0.00    +0.000 C 
ATOM      2  C   UNL     1       3.549   3.863  19.642  0.00  0.00    +0.000 C 
ATOM      3  C   UNL     1       3.768   5.406  19.521  0.00  0.00    +0.000 C 
ATOM      4  C   UNL     1       5.294   5.462  19.335  0.00  0.00    +0.000 C 
ATOM      5  C   UNL     1       5.632   4.731  18.042  0.00  0.00    +0.000 A 
ATOM      6  C   UNL     1       6.824   5.109  17.410  0.00  0.00    +0.000 A 
ATOM      7  C   UNL     1       7.071   4.693  16.123  0.00  0.00    +0.000 A 
ATOM      8  C   UNL     1       6.133   3.898  15.465  0.00  0.00    +0.000 A 
ATOM      9  C   UNL     1       4.980   3.435  16.108  0.00  0.00    +0.000 A 
ATOM     10  C   UNL     1       4.715   3.812  17.428  0.00  0.00    +0.000 A 
ATOM     11  C   UNL     1       3.410   3.344  18.186  0.00  0.00    +0.000 C 
ATOM     12  C   UNL     1       3.289   1.809  18.132  0.00  0.00    +0.000 C 
ATOM     13  C   UNL     1       2.118   3.932  17.571  0.00  0.00    +0.000 C 
ATOM     14  C   UNL     1       1.917   5.425  17.843  0.00  0.00    +0.000 C 
ATOM     15  N   UNL     1       3.126   6.043  18.336  0.00  0.00    +0.000 NA
ENDROOT
BRANCH   8  16
ATOM     16  O   UNL     1       6.310   3.576  14.151  0.00  0.00    +0.000 OA
ATOM     17  H   UNL     1       7.170   3.931  13.873  0.00  0.00    +0.000 HD
ENDBRANCH   8  16
BRANCH  15  18
ATOM     18  C   UNL     1       3.186   7.499  18.260  0.00  0.00    +0.000 C 
BRANCH  18  19
ATOM     19  C   UNL     1       2.034   8.142  17.452  0.00  0.00    +0.000 C 
BRANCH  19  20
ATOM     20  C   UNL     1       1.546   9.374  18.191  0.00  0.00    +0.000 C 
ATOM     21  O   UNL     1       2.337  10.154  18.714  0.00  0.00    +0.000 OA
ATOM     22  N   UNL     1       0.165   9.502  18.266  0.00  0.00    +0.000 N 
ATOM     23  H   UNL     1      -0.360   8.630  18.326  0.00  0.00    +0.000 HD
BRANCH  22  24
ATOM     24  C   UNL     1      -0.390  10.556  19.047  0.00  0.00    +0.000 A 
ATOM     25  C   UNL     1      -0.625  11.813  18.472  0.00  0.00    +0.000 A 
ATOM     26  C   UNL     1      -1.015  12.885  19.265  0.00  0.00    +0.000 A 
ATOM     27  C   UNL     1      -1.101  12.713  20.641  0.00  0.00    +0.000 A 
ATOM     28  C   UNL     1      -0.831  11.462  21.224  0.00  0.00    +0.000 A 
ATOM     29  C   UNL     1      -0.750  11.313  22.617  0.00  0.00    +0.000 A 
ATOM     30  C   UNL     1      -0.482  10.064  23.156  0.00  0.00    +0.000 A 
ATOM     31  C   UNL     1      -0.358   8.991  22.293  0.00  0.00    +0.000 A 
ATOM     32  N   UNL     1      -0.380   9.101  20.945  0.00  0.00    +0.000 NA
ATOM     33  C   UNL     1      -0.571  10.344  20.420  0.00  0.00    +0.000 A 
ENDBRANCH  22  24
ENDBRANCH  19  20
ENDBRANCH  18  19
ENDBRANCH  15  18
TORSDOF 5
ENDMDL
MODEL 5
REMARK VINA RESULT:      -9.0      5.565      7.496
REMARK  Name = 
REMARK  7 active torsions:
REMARK  status: ('A' for Active; 'I' for Inactive)
REMARK    1  A    between atoms: C_1  and  C_2
REMARK    2  A    between atoms: C_8  and  O_9
REMARK    3  A    between atoms: C_12  and  C_13
REMARK    4  A    between atoms: N_16  and  C_17
REMARK    5  A    between atoms: C_17  and  C_18
REMARK    6  A    between atoms: C_18  and  C_19
REMARK    7  A    between atoms: N_21  and  C_22
REMARK                            x       y       z     vdW  Elec       q    Type
REMARK                         _______ _______ _______ _____ _____    ______ ____
ROOT
ATOM      1  C   UNL     1       2.684   3.452  20.695  0.00  0.00    +0.000 C 
ATOM      2  C   UNL     1       3.639   3.812  19.557  0.00  0.00    +0.000 C 
ATOM      3  C   UNL     1       3.878   5.352  19.434  0.00  0.00    +0.000 C 
ATOM      4  C   UNL     1       5.401   5.386  19.226  0.00  0.00    +0.000 C 
ATOM      5  C   UNL     1       5.710   4.652  17.927  0.00  0.00    +0.000 A 
ATOM      6  C   UNL     1       6.898   5.014  17.279  0.00  0.00    +0.000 A 
ATOM      7  C   UNL     1       7.121   4.595  15.988  0.00  0.00    +0.000 A 
ATOM      8  C   UNL     1       6.162   3.815  15.343  0.00  0.00    +0.000 A 
ATOM      9  C   UNL     1       5.012   3.367  16.003  0.00  0.00    +0.000 A 
ATOM     10  C   UNL     1       4.771   3.747  17.327  0.00  0.00    +0.000 A 
ATOM     11  C   UNL     1       3.471   3.297  18.103  0.00  0.00    +0.000 C 
ATOM     12  C   UNL     1       3.327   1.763  18.050  0.00  0.00    +0.000 C 
ATOM     13  C   UNL     1       2.178   3.903  17.507  0.00  0.00    +0.000 C 
ATOM     14  C   UNL     1       2.003   5.399  17.784  0.00  0.00    +0.000 C 
ATOM     15  N   UNL     1       3.228   5.999  18.259  0.00  0.00    +0.000 NA
ENDROOT
BRANCH   8  16
ATOM     16  O   UNL     1       6.315   3.491  14.027  0.00  0.00    +0.000 OA
ATOM     17  H   UNL     1       7.251   3.277  13.882  0.00  0.00    +0.000 HD
ENDBRANCH   8  16
BRANCH  15  18
ATOM     18  C   UNL     1       3.307   7.454  18.184  0.00  0.00    +0.000 C 
BRANCH  18  19
ATOM     19  C   UNL     1       1.933   8.165  18.136  0.00  0.00    +0.000 C 
BRANCH  19  20
ATOM     20  C   UNL     1       1.593   8.665  19.526  0.00  0.00    +0.000 C 
ATOM     21  O   UNL     1       1.999   8.082  20.527  0.00  0.00    +0.000 OA
ATOM     22  N   UNL     1       0.758   9.775  19.561  0.00  0.00    +0.000 N 
ATOM     23  H   UNL     1       0.067   9.835  18.814  0.00  0.00    +0.000 HD
BRANCH  22  24
ATOM     24  C   UNL     1       0.279  10.242  20.818  0.00  0.00    +0.000 A 
ATOM     25  C   UNL     1      -0.275   9.343  21.741  0.00  0.00    +0.000 A 
ATOM     26  C   UNL     1      -0.886   9.813  22.897  0.00  0.00    +0.000 A 
ATOM     27  C   UNL     1      -1.002  11.185  23.091  0.00  0.00    +0.000 A 
ATOM     28  C   UNL     1      -0.478  12.088  22.150  0.00  0.00    +0.000 A 
ATOM     29  C   UNL     1      -0.732  13.464  22.245  0.00  0.00    +0.000 A 
ATOM     30  C   UNL     1      -0.200  14.325  21.298  0.00  0.00    +0.000 A 
ATOM     31  C   UNL     1       0.616  13.794  20.316  0.00  0.00    +0.000 A 
ATOM     32  N   UNL     1       0.844  12.470  20.159  0.00  0.00    +0.000 NA
ATOM     33  C   UNL     1       0.258  11.623  21.052  0.00  0.00    +0.000 A 
ENDBRANCH  22  24
ENDBRANCH  19  20
ENDBRANCH  18  19
ENDBRANCH  15  18
TORSDOF 5
ENDMDL
MODEL 6
REMARK VINA RESULT:      -9.0      0.747      2.041
REMARK  Name = 
REMARK  7 active torsions:
REMARK  status: ('A' for Active; 'I' for Inactive)
REMARK    1  A    between atoms: C_1  and  C_2
REMARK    2  A    between atoms: C_8  and  O_9
REMARK    3  A    between atoms: C_12  and  C_13
REMARK    4  A    between atoms: N_16  and  C_17
REMARK    5  A    between atoms: C_17  and  C_18
REMARK    6  A    between atoms: C_18  and  C_19
REMARK    7  A    between atoms: N_21  and  C_22
REMARK                            x       y       z     vdW  Elec       q    Type
REMARK                         _______ _______ _______ _____ _____    ______ ____
ROOT
ATOM      1  C   UNL     1       6.368   3.921  15.682  0.00  0.00    +0.000 C 
ATOM      2  C   UNL     1       5.492   4.913  16.446  0.00  0.00    +0.000 C 
ATOM      3  C   UNL     1       6.013   6.383  16.341  0.00  0.00    +0.000 C 
ATOM      4  C   UNL     1       4.694   7.133  16.085  0.00  0.00    +0.000 C 
ATOM      5  C   UNL     1       3.798   6.926  17.299  0.00  0.00    +0.000 A 
ATOM      6  C   UNL     1       2.829   7.912  17.528  0.00  0.00    +0.000 A 
ATOM      7  C   UNL     1       2.162   7.940  18.730  0.00  0.00    +0.000 A 
ATOM      8  C   UNL     1       2.456   6.985  19.704  0.00  0.00    +0.000 A 
ATOM      9  C   UNL     1       3.353   5.939  19.461  0.00  0.00    +0.000 A 
ATOM     10  C   UNL     1       4.025   5.862  18.236  0.00  0.00    +0.000 A 
ATOM     11  C   UNL     1       5.073   4.721  17.927  0.00  0.00    +0.000 C 
ATOM     12  C   UNL     1       4.438   3.339  18.171  0.00  0.00    +0.000 C 
ATOM     13  C   UNL     1       6.336   4.812  18.817  0.00  0.00    +0.000 C 
ATOM     14  C   UNL     1       7.271   5.971  18.459  0.00  0.00    +0.000 C 
ATOM     15  N   UNL     1       6.627   6.925  17.586  0.00  0.00    +0.000 NA
ENDROOT
BRANCH   8  16
ATOM     16  O   UNL     1       1.888   7.070  20.941  0.00  0.00    +0.000 OA
ATOM     17  H   UNL     1       2.568   6.839  21.594  0.00  0.00    +0.000 HD
ENDBRANCH   8  16
BRANCH  15  18
ATOM     18  C   UNL     1       7.252   8.240  17.492  0.00  0.00    +0.000 C 
BRANCH  18  19
ATOM     19  C   UNL     1       8.580   8.372  18.276  0.00  0.00    +0.000 C 
BRANCH  19  20
ATOM     20  C   UNL     1       8.718   9.801  18.765  0.00  0.00    +0.000 C 
ATOM     21  O   UNL     1       8.259  10.740  18.121  0.00  0.00    +0.000 OA
ATOM     22  N   UNL     1       9.438   9.948  19.944  0.00  0.00    +0.000 N 
ATOM     23  H   UNL     1      10.198   9.284  20.087  0.00  0.00    +0.000 HD
BRANCH  22  24
ATOM     24  C   UNL     1       9.731  11.259  20.418  0.00  0.00    +0.000 A 
ATOM     25  C   UNL     1       8.975  11.820  21.457  0.00  0.00    +0.000 A 
ATOM     26  C   UNL     1       9.151  13.151  21.812  0.00  0.00    +0.000 A 
ATOM     27  C   UNL     1      10.033  13.936  21.079  0.00  0.00    +0.000 A 
ATOM     28  C   UNL     1      10.766  13.385  20.013  0.00  0.00    +0.000 A 
ATOM     29  C   UNL     1      11.529  14.196  19.161  0.00  0.00    +0.000 A 
ATOM     30  C   UNL     1      12.239  13.618  18.120  0.00  0.00    +0.000 A 
ATOM     31  C   UNL     1      12.209  12.241  17.994  0.00  0.00    +0.000 A 
ATOM     32  N   UNL     1      11.447  11.429  18.761  0.00  0.00    +0.000 NA
ATOM     33  C   UNL     1      10.695  12.013  19.737  0.00  0.00    +0.000 A 
ENDBRANCH  22  24
ENDBRANCH  19  20
ENDBRANCH  18  19
ENDBRANCH  15  18
TORSDOF 5
ENDMDL
MODEL 7
REMARK VINA RESULT:      -9.0      5.083      7.163
REMARK  Name = 
REMARK  7 active torsions:
REMARK  status: ('A' for Active; 'I' for Inactive)
REMARK    1  A    between atoms: C_1  and  C_2
REMARK    2  A    between atoms: C_8  and  O_9
REMARK    3  A    between atoms: C_12  and  C_13
REMARK    4  A    between atoms: N_16  and  C_17
REMARK    5  A    between atoms: C_17  and  C_18
REMARK    6  A    between atoms: C_18  and  C_19
REMARK    7  A    between atoms: N_21  and  C_22
REMARK                            x       y       z     vdW  Elec       q    Type
REMARK                         _______ _______ _______ _____ _____    ______ ____
ROOT
ATOM      1  C   UNL     1       2.780   3.100  20.770  0.00  0.00    +0.000 C 
ATOM      2  C   UNL     1       3.691   3.568  19.637  0.00  0.00    +0.000 C 
ATOM      3  C   UNL     1       3.786   5.125  19.543  0.00  0.00    +0.000 C 
ATOM      4  C   UNL     1       5.299   5.304  19.330  0.00  0.00    +0.000 C 
ATOM      5  C   UNL     1       5.667   4.626  18.017  0.00  0.00    +0.000 A 
ATOM      6  C   UNL     1       6.814   5.109  17.372  0.00  0.00    +0.000 A 
ATOM      7  C   UNL     1       7.068   4.737  16.072  0.00  0.00    +0.000 A 
ATOM      8  C   UNL     1       6.182   3.884  15.415  0.00  0.00    +0.000 A 
ATOM      9  C   UNL     1       5.081   3.319  16.070  0.00  0.00    +0.000 A 
ATOM     10  C   UNL     1       4.813   3.650  17.402  0.00  0.00    +0.000 A 
ATOM     11  C   UNL     1       3.564   3.067  18.174  0.00  0.00    +0.000 C 
ATOM     12  C   UNL     1       3.562   1.528  18.091  0.00  0.00    +0.000 C 
ATOM     13  C   UNL     1       2.218   3.563  17.594  0.00  0.00    +0.000 C 
ATOM     14  C   UNL     1       1.907   5.031  17.900  0.00  0.00    +0.000 C 
ATOM     15  N   UNL     1       3.073   5.732  18.383  0.00  0.00    +0.000 NA
ENDROOT
BRANCH   8  16
ATOM     16  O   UNL     1       6.357   3.601  14.093  0.00  0.00    +0.000 OA
ATOM     17  H   UNL     1       6.259   2.641  13.981  0.00  0.00    +0.000 HD
ENDBRANCH   8  16
BRANCH  15  18
ATOM     18  C   UNL     1       3.017   7.189  18.335  0.00  0.00    +0.000 C 
BRANCH  18  19
ATOM     19  C   UNL     1       2.165   7.831  19.456  0.00  0.00    +0.000 C 
BRANCH  19  20
ATOM     20  C   UNL     1       1.453   9.046  18.894  0.00  0.00    +0.000 C 
ATOM     21  O   UNL     1       1.585   9.371  17.717  0.00  0.00    +0.000 OA
ATOM     22  N   UNL     1       0.708   9.767  19.818  0.00  0.00    +0.000 N 
ATOM     23  H   UNL     1       1.075   9.785  20.769  0.00  0.00    +0.000 HD
BRANCH  22  24
ATOM     24  C   UNL     1       0.105  10.993  19.416  0.00  0.00    +0.000 A 
ATOM     25  C   UNL     1      -0.989  10.989  18.540  0.00  0.00    +0.000 A 
ATOM     26  C   UNL     1      -1.476  12.183  18.021  0.00  0.00    +0.000 A 
ATOM     27  C   UNL     1      -0.823  13.371  18.327  0.00  0.00    +0.000 A 
ATOM     28  C   UNL     1       0.297  13.373  19.178  0.00  0.00    +0.000 A 
ATOM     29  C   UNL     1       1.066  14.532  19.362  0.00  0.00    +0.000 A 
ATOM     30  C   UNL     1       2.163  14.497  20.208  0.00  0.00    +0.000 A 
ATOM     31  C   UNL     1       2.428  13.322  20.889  0.00  0.00    +0.000 A 
ATOM     32  N   UNL     1       1.743  12.171  20.701  0.00  0.00    +0.000 NA
ATOM     33  C   UNL     1       0.710  12.193  19.812  0.00  0.00    +0.000 A 
ENDBRANCH  22  24
ENDBRANCH  19  20
ENDBRANCH  18  19
ENDBRANCH  15  18
TORSDOF 5
ENDMDL
MODEL 8
REMARK VINA RESULT:      -8.9      5.286      7.525
REMARK  Name = 
REMARK  7 active torsions:
REMARK  status: ('A' for Active; 'I' for Inactive)
REMARK    1  A    between atoms: C_1  and  C_2
REMARK    2  A    between atoms: C_8  and  O_9
REMARK    3  A    between atoms: C_12  and  C_13
REMARK    4  A    between atoms: N_16  and  C_17
REMARK    5  A    between atoms: C_17  and  C_18
REMARK    6  A    between atoms: C_18  and  C_19
REMARK    7  A    between atoms: N_21  and  C_22
REMARK                            x       y       z     vdW  Elec       q    Type
REMARK                         _______ _______ _______ _____ _____    ______ ____
ROOT
ATOM      1  C   UNL     1       2.942   2.743  20.771  0.00  0.00    +0.000 C 
ATOM      2  C   UNL     1       3.722   3.428  19.649  0.00  0.00    +0.000 C 
ATOM      3  C   UNL     1       3.621   4.986  19.706  0.00  0.00    +0.000 C 
ATOM      4  C   UNL     1       5.086   5.375  19.444  0.00  0.00    +0.000 C 
ATOM      5  C   UNL     1       5.458   4.875  18.054  0.00  0.00    +0.000 A 
ATOM      6  C   UNL     1       6.498   5.557  17.409  0.00  0.00    +0.000 A 
ATOM      7  C   UNL     1       6.719   5.343  16.068  0.00  0.00    +0.000 A 
ATOM      8  C   UNL     1       5.908   4.449  15.370  0.00  0.00    +0.000 A 
ATOM      9  C   UNL     1       4.924   3.691  16.015  0.00  0.00    +0.000 A 
ATOM     10  C   UNL     1       4.695   3.859  17.384  0.00  0.00    +0.000 A 
ATOM     11  C   UNL     1       3.573   3.053  18.150  0.00  0.00    +0.000 C 
ATOM     12  C   UNL     1       3.754   1.541  17.915  0.00  0.00    +0.000 C 
ATOM     13  C   UNL     1       2.146   3.425  17.685  0.00  0.00    +0.000 C 
ATOM     14  C   UNL     1       1.676   4.807  18.149  0.00  0.00    +0.000 C 
ATOM     15  N   UNL     1       2.774   5.603  18.646  0.00  0.00    +0.000 NA
ENDROOT
BRANCH   8  16
ATOM     16  O   UNL     1       6.040   4.315  14.019  0.00  0.00    +0.000 OA
ATOM     17  H   UNL     1       6.658   4.999  13.714  0.00  0.00    +0.000 HD
ENDBRANCH   8  16
BRANCH  15  18
ATOM     18  C   UNL     1       2.537   7.039  18.747  0.00  0.00    +0.000 C 
BRANCH  18  19
ATOM     19  C   UNL     1       2.218   7.533  20.177  0.00  0.00    +0.000 C 
BRANCH  19  20
ATOM     20  C   UNL     1       1.157   8.614  20.096  0.00  0.00    +0.000 C 
ATOM     21  O   UNL     1       0.332   8.762  20.993  0.00  0.00    +0.000 OA
ATOM     22  N   UNL     1       1.170   9.359  18.924  0.00  0.00    +0.000 N 
ATOM     23  H   UNL     1       1.455   8.860  18.082  0.00  0.00    +0.000 HD
BRANCH  22  24
ATOM     24  C   UNL     1       0.136  10.312  18.698  0.00  0.00    +0.000 A 
ATOM     25  C   UNL     1      -1.052   9.928  18.059  0.00  0.00    +0.000 A 
ATOM     26  C   UNL     1      -1.993  10.884  17.696  0.00  0.00    +0.000 A 
ATOM     27  C   UNL     1      -1.711  12.228  17.910  0.00  0.00    +0.000 A 
ATOM     28  C   UNL     1      -0.504  12.617  18.518  0.00  0.00    +0.000 A 
ATOM     29  C   UNL     1      -0.131  13.968  18.589  0.00  0.00    +0.000 A 
ATOM     30  C   UNL     1       1.066  14.315  19.196  0.00  0.00    +0.000 A 
ATOM     31  C   UNL     1       1.828  13.310  19.763  0.00  0.00    +0.000 A 
ATOM     32  N   UNL     1       1.529  11.994  19.672  0.00  0.00    +0.000 NA
ATOM     33  C   UNL     1       0.387  11.655  19.010  0.00  0.00    +0.000 A 
ENDBRANCH  22  24
ENDBRANCH  19  20
ENDBRANCH  18  19
ENDBRANCH  15  18
TORSDOF 5
ENDMDL
MODEL 9
REMARK VINA RESULT:      -8.8      5.440      7.897
REMARK  Name = 
REMARK  7 active torsions:
REMARK  status: ('A' for Active; 'I' for Inactive)
REMARK    1  A    between atoms: C_1  and  C_2
REMARK    2  A    between atoms: C_8  and  O_9
REMARK    3  A    between atoms: C_12  and  C_13
REMARK    4  A    between atoms: N_16  and  C_17
REMARK    5  A    between atoms: C_17  and  C_18
REMARK    6  A    between atoms: C_18  and  C_19
REMARK    7  A    between atoms: N_21  and  C_22
REMARK                            x       y       z     vdW  Elec       q    Type
REMARK                         _______ _______ _______ _____ _____    ______ ____
ROOT
ATOM      1  C   UNL     1       2.754   2.749  20.621  0.00  0.00    +0.000 C 
ATOM      2  C   UNL     1       3.599   3.481  19.579  0.00  0.00    +0.000 C 
ATOM      3  C   UNL     1       3.489   5.036  19.694  0.00  0.00    +0.000 C 
ATOM      4  C   UNL     1       4.966   5.436  19.540  0.00  0.00    +0.000 C 
ATOM      5  C   UNL     1       5.425   4.995  18.156  0.00  0.00    +0.000 A 
ATOM      6  C   UNL     1       6.500   5.705  17.605  0.00  0.00    +0.000 A 
ATOM      7  C   UNL     1       6.805   5.547  16.273  0.00  0.00    +0.000 A 
ATOM      8  C   UNL     1       6.041   4.682  15.490  0.00  0.00    +0.000 A 
ATOM      9  C   UNL     1       5.022   3.897  16.040  0.00  0.00    +0.000 A 
ATOM     10  C   UNL     1       4.708   4.008  17.399  0.00  0.00    +0.000 A 
ATOM     11  C   UNL     1       3.544   3.169  18.060  0.00  0.00    +0.000 C 
ATOM     12  C   UNL     1       3.745   1.668  17.773  0.00  0.00    +0.000 C 
ATOM     13  C   UNL     1       2.147   3.559  17.522  0.00  0.00    +0.000 C 
ATOM     14  C   UNL     1       1.645   4.919  18.015  0.00  0.00    +0.000 C 
ATOM     15  N   UNL     1       2.707   5.695  18.611  0.00  0.00    +0.000 NA
ENDROOT
BRANCH   8  16
ATOM     16  O   UNL     1       6.257   4.605  14.145  0.00  0.00    +0.000 OA
ATOM     17  H   UNL     1       5.398   4.707  13.702  0.00  0.00    +0.000 HD
ENDBRANCH   8  16
BRANCH  15  18
ATOM     18  C   UNL     1       2.460   7.125  18.756  0.00  0.00    +0.000 C 
BRANCH  18  19
ATOM     19  C   UNL     1       1.934   7.543  20.150  0.00  0.00    +0.000 C 
BRANCH  19  20
ATOM     20  C   UNL     1       1.388   8.955  20.064  0.00  0.00    +0.000 C 
ATOM     21  O   UNL     1       0.964   9.533  21.061  0.00  0.00    +0.000 OA
ATOM     22  N   UNL     1       1.359   9.494  18.784  0.00  0.00    +0.000 N 
ATOM     23  H   UNL     1       1.187   8.834  18.027  0.00  0.00    +0.000 HD
BRANCH  22  24
ATOM     24  C   UNL     1       0.748  10.764  18.582  0.00  0.00    +0.000 A 
ATOM     25  C   UNL     1       1.447  11.942  18.886  0.00  0.00    +0.000 A 
ATOM     26  C   UNL     1       0.801  13.171  18.843  0.00  0.00    +0.000 A 
ATOM     27  C   UNL     1      -0.560  13.212  18.563  0.00  0.00    +0.000 A 
ATOM     28  C   UNL     1      -1.270  12.029  18.293  0.00  0.00    +0.000 A 
ATOM     29  C   UNL     1      -2.668  12.034  18.174  0.00  0.00    +0.000 A 
ATOM     30  C   UNL     1      -3.336  10.849  17.908  0.00  0.00    +0.000 A 
ATOM     31  C   UNL     1      -2.584   9.704  17.712  0.00  0.00    +0.000 A 
ATOM     32  N   UNL     1      -1.242   9.647  17.867  0.00  0.00    +0.000 NA
ATOM     33  C   UNL     1      -0.600  10.802  18.201  0.00  0.00    +0.000 A 
ENDBRANCH  22  24
ENDBRANCH  19  20
ENDBRANCH  18  19
ENDBRANCH  15  18
TORSDOF 5
ENDMDL
