MODEL 1
REMARK VINA RESULT:      -7.5      0.000      0.000
REMARK  Name = 
REMARK  3 active torsions:
REMARK  status: ('A' for Active; 'I' for Inactive)
REMARK    1  A    between atoms: C_1  and  S_2
REMARK    2  A    between atoms: S_2  and  N_5
REMARK    3  A    between atoms: C_12  and  C_13
REMARK                            x       y       z     vdW  Elec       q    Type
REMARK                         _______ _______ _______ _____ _____    ______ ____
ROOT
ATOM      1  N   UNL     1       2.414   4.362  20.655  0.00  0.00    +0.000 N 
ATOM      2  C   UNL     1       3.238   4.316  19.500  0.00  0.00    +0.000 A 
ATOM      3  N   UNL     1       4.508   4.618  19.604  0.00  0.00    +0.000 NA
ATOM      4  C   UNL     1       5.090   4.506  18.353  0.00  0.00    +0.000 A 
ATOM      5  C   UNL     1       4.220   4.245  17.315  0.00  0.00    +0.000 A 
ATOM      6  S   UNL     1       2.637   4.047  17.918  0.00  0.00    +0.000 S 
ATOM      7  C   UNL     1       4.580   4.181  15.865  0.00  0.00    +0.000 C 
ATOM      8  C   UNL     1       6.121   4.067  15.692  0.00  0.00    +0.000 C 
ATOM      9  C   UNL     1       6.886   4.981  16.686  0.00  0.00    +0.000 C 
ATOM     10  C   UNL     1       6.561   4.647  18.151  0.00  0.00    +0.000 C 
ATOM     11  H   UNL     1       2.932   4.912  21.346  0.00  0.00    +0.000 HD
ENDROOT
BRANCH   8  12
ATOM     12  C   UNL     1       6.587   4.343  14.269  0.00  0.00    +0.000 A 
ATOM     13  C   UNL     1       7.553   5.322  13.987  0.00  0.00    +0.000 A 
ATOM     14  C   UNL     1       8.029   5.507  12.686  0.00  0.00    +0.000 A 
ATOM     15  C   UNL     1       7.547   4.714  11.647  0.00  0.00    +0.000 A 
ATOM     16  C   UNL     1       6.584   3.743  11.908  0.00  0.00    +0.000 A 
ATOM     17  C   UNL     1       6.106   3.558  13.209  0.00  0.00    +0.000 A 
ENDBRANCH   8  12
BRANCH   1  19
ATOM     18  C   UNL     1       1.540   1.924  19.985  0.00  0.00    +0.000 C 
ATOM     19  S   UNL     1       2.271   2.813  21.338  0.00  0.00    +0.000 S 
ATOM     20  O   UNL     1       1.272   2.913  22.377  0.00  0.00    +0.000 OA
ATOM     21  O   UNL     1       3.573   2.232  21.580  0.00  0.00    +0.000 OA
ENDBRANCH   1  19
TORSDOF 2
ENDMDL
MODEL 2
REMARK VINA RESULT:      -7.5      0.566      1.217
REMARK  Name = 
REMARK  3 active torsions:
REMARK  status: ('A' for Active; 'I' for Inactive)
REMARK    1  A    between atoms: C_1  and  S_2
REMARK    2  A    between atoms: S_2  and  N_5
REMARK    3  A    between atoms: C_12  and  C_13
REMARK                            x       y       z     vdW  Elec       q    Type
REMARK                         _______ _______ _______ _____ _____    ______ ____
ROOT
ATOM      1  N   UNL     1       2.758   4.837  20.554  0.00  0.00    +0.000 N 
ATOM      2  C   UNL     1       3.544   4.687  19.381  0.00  0.00    +0.000 A 
ATOM      3  N   UNL     1       4.842   4.849  19.453  0.00  0.00    +0.000 NA
ATOM      4  C   UNL     1       5.379   4.658  18.191  0.00  0.00    +0.000 A 
ATOM      5  C   UNL     1       4.461   4.482  17.177  0.00  0.00    +0.000 A 
ATOM      6  S   UNL     1       2.881   4.466  17.817  0.00  0.00    +0.000 S 
ATOM      7  C   UNL     1       4.778   4.361  15.720  0.00  0.00    +0.000 C 
ATOM      8  C   UNL     1       6.293   4.077  15.515  0.00  0.00    +0.000 C 
ATOM      9  C   UNL     1       7.176   4.913  16.479  0.00  0.00    +0.000 C 
ATOM     10  C   UNL     1       6.852   4.635  17.956  0.00  0.00    +0.000 C 
ATOM     11  H   UNL     1       3.348   5.335  21.224  0.00  0.00    +0.000 HD
ENDROOT
BRANCH   8  12
ATOM     12  C   UNL     1       6.753   4.283  14.079  0.00  0.00    +0.000 A 
ATOM     13  C   UNL     1       6.236   3.517  13.022  0.00  0.00    +0.000 A 
ATOM     14  C   UNL     1       6.607   3.774  11.700  0.00  0.00    +0.000 A 
ATOM     15  C   UNL     1       7.502   4.803  11.413  0.00  0.00    +0.000 A 
ATOM     16  C   UNL     1       8.030   5.568  12.449  0.00  0.00    +0.000 A 
ATOM     17  C   UNL     1       7.660   5.311  13.773  0.00  0.00    +0.000 A 
ENDBRANCH   8  12
BRANCH   1  19
ATOM     18  C   UNL     1       0.867   2.943  20.575  0.00  0.00    +0.000 C 
ATOM     19  S   UNL     1       2.461   3.321  21.262  0.00  0.00    +0.000 S 
ATOM     20  O   UNL     1       2.277   3.557  22.675  0.00  0.00    +0.000 OA
ATOM     21  O   UNL     1       3.389   2.329  20.765  0.00  0.00    +0.000 OA
ENDBRANCH   1  19
TORSDOF 2
ENDMDL
MODEL 3
REMARK VINA RESULT:      -7.2      6.358      8.417
REMARK  Name = 
REMARK  3 active torsions:
REMARK  status: ('A' for Active; 'I' for Inactive)
REMARK    1  A    between atoms: C_1  and  S_2
REMARK    2  A    between atoms: S_2  and  N_5
REMARK    3  A    between atoms: C_12  and  C_13
REMARK                            x       y       z     vdW  Elec       q    Type
REMARK                         _______ _______ _______ _____ _____    ______ ____
ROOT
ATOM      1  N   UNL     1       0.647  12.199  18.569  0.00  0.00    +0.000 N 
ATOM      2  C   UNL     1       1.070  10.869  18.827  0.00  0.00    +0.000 A 
ATOM      3  N   UNL     1       1.656  10.185  17.875  0.00  0.00    +0.000 NA
ATOM      4  C   UNL     1       1.966   8.927  18.365  0.00  0.00    +0.000 A 
ATOM      5  C   UNL     1       1.494   8.651  19.631  0.00  0.00    +0.000 A 
ATOM      6  S   UNL     1       0.712  10.024  20.274  0.00  0.00    +0.000 S 
ATOM      7  C   UNL     1       1.604   7.339  20.340  0.00  0.00    +0.000 C 
ATOM      8  C   UNL     1       2.647   6.426  19.635  0.00  0.00    +0.000 C 
ATOM      9  C   UNL     1       2.547   6.516  18.089  0.00  0.00    +0.000 C 
ATOM     10  C   UNL     1       2.767   7.948  17.574  0.00  0.00    +0.000 C 
ATOM     11  H   UNL     1       0.633  12.295  17.551  0.00  0.00    +0.000 HD
ENDROOT
BRANCH   8  12
ATOM     12  C   UNL     1       2.566   4.971  20.077  0.00  0.00    +0.000 A 
ATOM     13  C   UNL     1       1.465   4.479  20.796  0.00  0.00    +0.000 A 
ATOM     14  C   UNL     1       1.368   3.124  21.122  0.00  0.00    +0.000 A 
ATOM     15  C   UNL     1       2.370   2.239  20.733  0.00  0.00    +0.000 A 
ATOM     16  C   UNL     1       3.473   2.710  20.026  0.00  0.00    +0.000 A 
ATOM     17  C   UNL     1       3.571   4.067  19.700  0.00  0.00    +0.000 A 
ENDBRANCH   8  12
BRANCH   1  19
ATOM     18  C   UNL     1       0.930  14.833  18.942  0.00  0.00    +0.000 C 
ATOM     19  S   UNL     1       1.820  13.304  19.106  0.00  0.00    +0.000 S 
ATOM     20  O   UNL     1       2.867  13.307  18.110  0.00  0.00    +0.000 OA
ATOM     21  O   UNL     1       2.099  13.118  20.512  0.00  0.00    +0.000 OA
ENDBRANCH   1  19
TORSDOF 2
ENDMDL
MODEL 4
REMARK VINA RESULT:      -7.2      6.400      8.040
REMARK  Name = 
REMARK  3 active torsions:
REMARK  status: ('A' for Active; 'I' for Inactive)
REMARK    1  A    between atoms: C_1  and  S_2
REMARK    2  A    between atoms: S_2  and  N_5
REMARK    3  A    between atoms: C_12  and  C_13
REMARK                            x       y       z     vdW  Elec       q    Type
REMARK                         _______ _______ _______ _____ _____    ______ ____
ROOT
ATOM      1  N   UNL     1      -0.957  12.048  21.014  0.00  0.00    +0.000 N 
ATOM      2  C   UNL     1      -0.157  10.958  20.583  0.00  0.00    +0.000 A 
ATOM      3  N   UNL     1       0.278  10.929  19.347  0.00  0.00    +0.000 NA
ATOM      4  C   UNL     1       1.023   9.775  19.171  0.00  0.00    +0.000 A 
ATOM      5  C   UNL     1       1.026   8.903  20.238  0.00  0.00    +0.000 A 
ATOM      6  S   UNL     1       0.147   9.569  21.539  0.00  0.00    +0.000 S 
ATOM      7  C   UNL     1       1.664   7.550  20.262  0.00  0.00    +0.000 C 
ATOM      8  C   UNL     1       2.651   7.393  19.071  0.00  0.00    +0.000 C 
ATOM      9  C   UNL     1       2.085   8.009  17.764  0.00  0.00    +0.000 C 
ATOM     10  C   UNL     1       1.778   9.509  17.912  0.00  0.00    +0.000 C 
ATOM     11  H   UNL     1      -1.291  12.504  20.161  0.00  0.00    +0.000 HD
ENDROOT
BRANCH   8  12
ATOM     12  C   UNL     1       3.071   5.951  18.826  0.00  0.00    +0.000 A 
ATOM     13  C   UNL     1       2.352   5.111  17.960  0.00  0.00    +0.000 A 
ATOM     14  C   UNL     1       2.797   3.816  17.682  0.00  0.00    +0.000 A 
ATOM     15  C   UNL     1       3.969   3.341  18.265  0.00  0.00    +0.000 A 
ATOM     16  C   UNL     1       4.691   4.157  19.132  0.00  0.00    +0.000 A 
ATOM     17  C   UNL     1       4.246   5.453  19.411  0.00  0.00    +0.000 A 
ENDBRANCH   8  12
BRANCH   1  19
ATOM     18  C   UNL     1      -0.540  14.691  20.975  0.00  0.00    +0.000 C 
ATOM     19  S   UNL     1       0.004  13.212  21.794  0.00  0.00    +0.000 S 
ATOM     20  O   UNL     1       1.366  12.965  21.379  0.00  0.00    +0.000 OA
ATOM     21  O   UNL     1      -0.362  13.333  23.188  0.00  0.00    +0.000 OA
ENDBRANCH   1  19
TORSDOF 2
ENDMDL
MODEL 5
REMARK VINA RESULT:      -7.2      0.765      1.412
REMARK  Name = 
REMARK  3 active torsions:
REMARK  status: ('A' for Active; 'I' for Inactive)
REMARK    1  A    between atoms: C_1  and  S_2
REMARK    2  A    between atoms: S_2  and  N_5
REMARK    3  A    between atoms: C_12  and  C_13
REMARK                            x       y       z     vdW  Elec       q    Type
REMARK                         _______ _______ _______ _____ _____    ______ ____
ROOT
ATOM      1  N   UNL     1       2.211   4.469  20.400  0.00  0.00    +0.000 N 
ATOM      2  C   UNL     1       3.086   4.386  19.286  0.00  0.00    +0.000 A 
ATOM      3  N   UNL     1       4.361   4.639  19.450  0.00  0.00    +0.000 NA
ATOM      4  C   UNL     1       4.998   4.500  18.228  0.00  0.00    +0.000 A 
ATOM      5  C   UNL     1       4.168   4.269  17.150  0.00  0.00    +0.000 A 
ATOM      6  S   UNL     1       2.552   4.135  17.677  0.00  0.00    +0.000 S 
ATOM      7  C   UNL     1       4.594   4.184  15.719  0.00  0.00    +0.000 C 
ATOM      8  C   UNL     1       6.136   4.011  15.620  0.00  0.00    +0.000 C 
ATOM      9  C   UNL     1       6.888   4.898  16.648  0.00  0.00    +0.000 C 
ATOM     10  C   UNL     1       6.481   4.582  18.097  0.00  0.00    +0.000 C 
ATOM     11  H   UNL     1       2.716   5.001  21.113  0.00  0.00    +0.000 HD
ENDROOT
BRANCH   8  12
ATOM     12  C   UNL     1       6.680   4.263  14.221  0.00  0.00    +0.000 A 
ATOM     13  C   UNL     1       6.198   3.559  13.105  0.00  0.00    +0.000 A 
ATOM     14  C   UNL     1       6.648   3.861  11.817  0.00  0.00    +0.000 A 
ATOM     15  C   UNL     1       7.588   4.871  11.625  0.00  0.00    +0.000 A 
ATOM     16  C   UNL     1       8.082   5.574  12.720  0.00  0.00    +0.000 A 
ATOM     17  C   UNL     1       7.632   5.272  14.009  0.00  0.00    +0.000 A 
ENDBRANCH   8  12
BRANCH   1  19
ATOM     18  C   UNL     1       3.617   2.261  20.958  0.00  0.00    +0.000 C 
ATOM     19  S   UNL     1       1.975   2.929  21.078  0.00  0.00    +0.000 S 
ATOM     20  O   UNL     1       1.142   2.196  20.152  0.00  0.00    +0.000 OA
ATOM     21  O   UNL     1       1.653   3.028  22.484  0.00  0.00    +0.000 OA
ENDBRANCH   1  19
TORSDOF 2
ENDMDL
MODEL 6
REMARK VINA RESULT:      -7.2      6.544      8.565
REMARK  Name = 
REMARK  3 active torsions:
REMARK  status: ('A' for Active; 'I' for Inactive)
REMARK    1  A    between atoms: C_1  and  S_2
REMARK    2  A    between atoms: S_2  and  N_5
REMARK    3  A    between atoms: C_12  and  C_13
REMARK                            x       y       z     vdW  Elec       q    Type
REMARK                         _______ _______ _______ _____ _____    ______ ____
ROOT
ATOM      1  N   UNL     1       0.069  12.522  19.735  0.00  0.00    +0.000 N 
ATOM      2  C   UNL     1       0.572  11.195  19.753  0.00  0.00    +0.000 A 
ATOM      3  N   UNL     1       1.083  10.687  18.659  0.00  0.00    +0.000 NA
ATOM      4  C   UNL     1       1.495   9.392  18.927  0.00  0.00    +0.000 A 
ATOM      5  C   UNL     1       1.171   8.914  20.179  0.00  0.00    +0.000 A 
ATOM      6  S   UNL     1       0.404  10.135  21.089  0.00  0.00    +0.000 S 
ATOM      7  C   UNL     1       1.409   7.523  20.674  0.00  0.00    +0.000 C 
ATOM      8  C   UNL     1       2.410   6.779  19.745  0.00  0.00    +0.000 C 
ATOM      9  C   UNL     1       2.145   7.081  18.246  0.00  0.00    +0.000 C 
ATOM     10  C   UNL     1       2.249   8.581  17.927  0.00  0.00    +0.000 C 
ATOM     11  H   UNL     1      -0.056  12.760  18.748  0.00  0.00    +0.000 HD
ENDROOT
BRANCH   8  12
ATOM     12  C   UNL     1       2.437   5.274  19.975  0.00  0.00    +0.000 A 
ATOM     13  C   UNL     1       3.562   4.500  19.650  0.00  0.00    +0.000 A 
ATOM     14  C   UNL     1       3.602   3.134  19.943  0.00  0.00    +0.000 A 
ATOM     15  C   UNL     1       2.517   2.522  20.566  0.00  0.00    +0.000 A 
ATOM     16  C   UNL     1       1.390   3.273  20.889  0.00  0.00    +0.000 A 
ATOM     17  C   UNL     1       1.349   4.640  20.595  0.00  0.00    +0.000 A 
ENDBRANCH   8  12
BRANCH   1  19
ATOM     18  C   UNL     1       0.242  14.679  21.309  0.00  0.00    +0.000 C 
ATOM     19  S   UNL     1       1.245  13.605  20.310  0.00  0.00    +0.000 S 
ATOM     20  O   UNL     1       1.691  14.371  19.169  0.00  0.00    +0.000 OA
ATOM     21  O   UNL     1       2.172  12.938  21.196  0.00  0.00    +0.000 OA
ENDBRANCH   1  19
TORSDOF 2
ENDMDL
MODEL 7
REMARK VINA RESULT:      -7.2      6.217      8.333
REMARK  Name = 
REMARK  3 active torsions:
REMARK  status: ('A' for Active; 'I' for Inactive)
REMARK    1  A    between atoms: C_1  and  S_2
REMARK    2  A    between atoms: S_2  and  N_5
REMARK    3  A    between atoms: C_12  and  C_13
REMARK                            x       y       z     vdW  Elec       q    Type
REMARK                         _______ _______ _______ _____ _____    ______ ____
ROOT
ATOM      1  N   UNL     1       0.849  12.115  18.319  0.00  0.00    +0.000 N 
ATOM      2  C   UNL     1       1.276  10.797  18.630  0.00  0.00    +0.000 A 
ATOM      3  N   UNL     1       1.978  10.126  17.751  0.00  0.00    +0.000 NA
ATOM      4  C   UNL     1       2.266   8.878  18.279  0.00  0.00    +0.000 A 
ATOM      5  C   UNL     1       1.668   8.595  19.489  0.00  0.00    +0.000 A 
ATOM      6  S   UNL     1       0.787   9.949  20.036  0.00  0.00    +0.000 S 
ATOM      7  C   UNL     1       1.735   7.288  20.214  0.00  0.00    +0.000 C 
ATOM      8  C   UNL     1       2.871   6.401  19.632  0.00  0.00    +0.000 C 
ATOM      9  C   UNL     1       2.936   6.483  18.083  0.00  0.00    +0.000 C 
ATOM     10  C   UNL     1       3.172   7.918  17.585  0.00  0.00    +0.000 C 
ATOM     11  H   UNL     1       0.942  12.207  17.305  0.00  0.00    +0.000 HD
ENDROOT
BRANCH   8  12
ATOM     12  C   UNL     1       2.781   4.946  20.071  0.00  0.00    +0.000 A 
ATOM     13  C   UNL     1       3.587   3.951  19.496  0.00  0.00    +0.000 A 
ATOM     14  C   UNL     1       3.551   2.636  19.967  0.00  0.00    +0.000 A 
ATOM     15  C   UNL     1       2.709   2.296  21.023  0.00  0.00    +0.000 A 
ATOM     16  C   UNL     1       1.898   3.269  21.601  0.00  0.00    +0.000 A 
ATOM     17  C   UNL     1       1.932   4.584  21.129  0.00  0.00    +0.000 A 
ENDBRANCH   8  12
BRANCH   1  19
ATOM     18  C   UNL     1       0.956  14.735  18.851  0.00  0.00    +0.000 C 
ATOM     19  S   UNL     1       1.928  13.253  18.971  0.00  0.00    +0.000 S 
ATOM     20  O   UNL     1       3.017  13.374  18.029  0.00  0.00    +0.000 OA
ATOM     21  O   UNL     1       2.156  13.002  20.377  0.00  0.00    +0.000 OA
ENDBRANCH   1  19
TORSDOF 2
ENDMDL
MODEL 8
REMARK VINA RESULT:      -7.1      1.337      1.773
REMARK  Name = 
REMARK  3 active torsions:
REMARK  status: ('A' for Active; 'I' for Inactive)
REMARK    1  A    between atoms: C_1  and  S_2
REMARK    2  A    between atoms: S_2  and  N_5
REMARK    3  A    between atoms: C_12  and  C_13
REMARK                            x       y       z     vdW  Elec       q    Type
REMARK                         _______ _______ _______ _____ _____    ______ ____
ROOT
ATOM      1  N   UNL     1       1.280   3.628  19.975  0.00  0.00    +0.000 N 
ATOM      2  C   UNL     1       2.265   3.829  18.973  0.00  0.00    +0.000 A 
ATOM      3  N   UNL     1       2.667   5.047  18.702  0.00  0.00    +0.000 NA
ATOM      4  C   UNL     1       3.615   4.982  17.695  0.00  0.00    +0.000 A 
ATOM      5  C   UNL     1       3.812   3.733  17.145  0.00  0.00    +0.000 A 
ATOM      6  S   UNL     1       2.853   2.580  17.958  0.00  0.00    +0.000 S 
ATOM      7  C   UNL     1       4.698   3.417  15.982  0.00  0.00    +0.000 C 
ATOM      8  C   UNL     1       5.667   4.600  15.701  0.00  0.00    +0.000 C 
ATOM      9  C   UNL     1       4.962   5.975  15.844  0.00  0.00    +0.000 C 
ATOM     10  C   UNL     1       4.376   6.185  17.250  0.00  0.00    +0.000 C 
ATOM     11  H   UNL     1       0.845   4.541  20.127  0.00  0.00    +0.000 HD
ENDROOT
BRANCH   8  12
ATOM     12  C   UNL     1       6.350   4.506  14.343  0.00  0.00    +0.000 A 
ATOM     13  C   UNL     1       5.879   3.644  13.340  0.00  0.00    +0.000 A 
ATOM     14  C   UNL     1       6.467   3.630  12.072  0.00  0.00    +0.000 A 
ATOM     15  C   UNL     1       7.536   4.477  11.788  0.00  0.00    +0.000 A 
ATOM     16  C   UNL     1       8.020   5.333  12.774  0.00  0.00    +0.000 A 
ATOM     17  C   UNL     1       7.433   5.348  14.043  0.00  0.00    +0.000 A 
ENDBRANCH   8  12
BRANCH   1  19
ATOM     18  C   UNL     1       3.409   2.287  20.887  0.00  0.00    +0.000 C 
ATOM     19  S   UNL     1       2.019   3.237  21.455  0.00  0.00    +0.000 S 
ATOM     20  O   UNL     1       1.124   2.328  22.133  0.00  0.00    +0.000 OA
ATOM     21  O   UNL     1       2.543   4.421  22.099  0.00  0.00    +0.000 OA
ENDBRANCH   1  19
TORSDOF 2
ENDMDL
MODEL 9
REMARK VINA RESULT:      -7.1      6.682      8.665
REMARK  Name = 
REMARK  3 active torsions:
REMARK  status: ('A' for Active; 'I' for Inactive)
REMARK    1  A    between atoms: C_1  and  S_2
REMARK    2  A    between atoms: S_2  and  N_5
REMARK    3  A    between atoms: C_12  and  C_13
REMARK                            x       y       z     vdW  Elec       q    Type
REMARK                         _______ _______ _______ _____ _____    ______ ____
ROOT
ATOM      1  N   UNL     1       0.097  13.039  20.509  0.00  0.00    +0.000 N 
ATOM      2  C   UNL     1       0.549  11.714  20.273  0.00  0.00    +0.000 A 
ATOM      3  N   UNL     1       0.969  11.382  19.078  0.00  0.00    +0.000 NA
ATOM      4  C   UNL     1       1.346  10.050  19.099  0.00  0.00    +0.000 A 
ATOM      5  C   UNL     1       1.084   9.378  20.275  0.00  0.00    +0.000 A 
ATOM      6  S   UNL     1       0.424  10.451  21.425  0.00  0.00    +0.000 S 
ATOM      7  C   UNL     1       1.299   7.918  20.516  0.00  0.00    +0.000 C 
ATOM      8  C   UNL     1       2.209   7.312  19.411  0.00  0.00    +0.000 C 
ATOM      9  C   UNL     1       1.861   7.867  18.004  0.00  0.00    +0.000 C 
ATOM     10  C   UNL     1       2.003   9.397  17.930  0.00  0.00    +0.000 C 
ATOM     11  H   UNL     1      -0.080  13.443  19.586  0.00  0.00    +0.000 HD
ENDROOT
BRANCH   8  12
ATOM     12  C   UNL     1       2.192   5.790  19.387  0.00  0.00    +0.000 A 
ATOM     13  C   UNL     1       1.826   5.040  20.516  0.00  0.00    +0.000 A 
ATOM     14  C   UNL     1       1.736   3.647  20.454  0.00  0.00    +0.000 A 
ATOM     15  C   UNL     1       2.010   2.982  19.261  0.00  0.00    +0.000 A 
ATOM     16  C   UNL     1       2.381   3.710  18.133  0.00  0.00    +0.000 A 
ATOM     17  C   UNL     1       2.472   5.104  18.195  0.00  0.00    +0.000 A 
ENDBRANCH   8  12
BRANCH   1  19
ATOM     18  C   UNL     1       1.581  15.176  19.881  0.00  0.00    +0.000 C 
ATOM     19  S   UNL     1       1.348  13.978  21.172  0.00  0.00    +0.000 S 
ATOM     20  O   UNL     1       2.523  13.138  21.197  0.00  0.00    +0.000 OA
ATOM     21  O   UNL     1       0.892  14.692  22.344  0.00  0.00    +0.000 OA
ENDBRANCH   1  19
TORSDOF 2
ENDMDL
