MODEL 1
REMARK VINA RESULT:      -7.7      0.000      0.000
REMARK  Name = 
REMARK  10 active torsions:
REMARK  status: ('A' for Active; 'I' for Inactive)
REMARK    1  A    between atoms: C_1  and  C_2
REMARK    2  A    between atoms: C_2  and  C_3
REMARK    3  A    between atoms: C_2  and  C_4
REMARK    4  A    between atoms: C_2  and  C_5
REMARK    5  A    between atoms: C_8  and  O_9
REMARK    6  A    between atoms: O_9  and  C_10
REMARK    7  A    between atoms: C_14  and  C_15
REMARK    8  A    between atoms: N_20  and  C_21
REMARK    9  A    between atoms: C_21  and  C_22
REMARK   10  A    between atoms: C_22  and  O_24
REMARK                            x       y       z     vdW  Elec       q    Type
REMARK                         _______ _______ _______ _____ _____    ______ ____
ROOT
ATOM      1  C   UNL     1       2.631   5.090  19.648  0.00  0.00    +0.000 A 
ATOM      2  C   UNL     1       1.918   4.207  18.841  0.00  0.00    +0.000 A 
ATOM      3  C   UNL     1       2.589   3.461  17.872  0.00  0.00    +0.000 A 
ATOM      4  C   UNL     1       3.964   3.630  17.676  0.00  0.00    +0.000 A 
ATOM      5  C   UNL     1       4.694   4.534  18.463  0.00  0.00    +0.000 A 
ATOM      6  C   UNL     1       4.020   5.203  19.496  0.00  0.00    +0.000 A 
ENDROOT
BRANCH   5   7
ATOM      7  C   UNL     1       6.150   4.821  18.157  0.00  0.00    +0.000 C 
ATOM      8  S   UNL     1       7.090   5.234  19.653  0.00  0.00    +0.000 S 
ATOM      9  C   UNL     1       8.047   6.529  18.836  0.00  0.00    +0.000 C 
ATOM     10  C   UNL     1       7.388   6.799  17.506  0.00  0.00    +0.000 C 
ATOM     11  O   UNL     1       7.752   7.701  16.757  0.00  0.00    +0.000 OA
ATOM     12  N   UNL     1       6.350   5.929  17.230  0.00  0.00    +0.000 N 
BRANCH  12  13
ATOM     13  C   UNL     1       5.643   6.009  15.946  0.00  0.00    +0.000 C 
BRANCH  13  14
ATOM     14  C   UNL     1       6.152   5.129  14.804  0.00  0.00    +0.000 C 
ATOM     15  O   UNL     1       5.478   4.317  14.203  0.00  0.00    +0.000 OA
BRANCH  14  16
ATOM     16  O   UNL     1       7.436   5.388  14.487  0.00  0.00    +0.000 OA
ATOM     17  H   UNL     1       7.686   6.333  14.482  0.00  0.00    +0.000 HD
ENDBRANCH  14  16
ENDBRANCH  13  14
ENDBRANCH  12  13
ENDBRANCH   5   7
BRANCH   1  18
ATOM     18  O   UNL     1       1.914   5.834  20.568  0.00  0.00    +0.000 OA
BRANCH  18  22
ATOM     19  C   UNL     1       1.176   9.870  19.589  0.00  0.00    +0.000 A 
ATOM     20  C   UNL     1       0.828   9.355  20.846  0.00  0.00    +0.000 A 
ATOM     21  C   UNL     1       1.143   8.052  21.211  0.00  0.00    +0.000 A 
ATOM     22  C   UNL     1       1.688   7.168  20.285  0.00  0.00    +0.000 A 
ATOM     23  C   UNL     1       2.031   7.639  19.022  0.00  0.00    +0.000 A 
ATOM     24  C   UNL     1       1.779   8.983  18.678  0.00  0.00    +0.000 A 
BRANCH  19  26
ATOM     25  C   UNL     1       0.957  12.211  20.566  0.00  0.00    +0.000 C 
ATOM     26  C   UNL     1       0.918  11.355  19.273  0.00  0.00    +0.000 C 
ATOM     27  C   UNL     1      -0.466  11.518  18.619  0.00  0.00    +0.000 C 
ATOM     28  C   UNL     1       1.979  11.955  18.325  0.00  0.00    +0.000 C 
ENDBRANCH  19  26
ENDBRANCH  18  22
ENDBRANCH   1  18
TORSDOF 7
ENDMDL
MODEL 2
REMARK VINA RESULT:      -7.6      2.819      4.577
REMARK  Name = 
REMARK  10 active torsions:
REMARK  status: ('A' for Active; 'I' for Inactive)
REMARK    1  A    between atoms: C_1  and  C_2
REMARK    2  A    between atoms: C_2  and  C_3
REMARK    3  A    between atoms: C_2  and  C_4
REMARK    4  A    between atoms: C_2  and  C_5
REMARK    5  A    between atoms: C_8  and  O_9
REMARK    6  A    between atoms: O_9  and  C_10
REMARK    7  A    between atoms: C_14  and  C_15
REMARK    8  A    between atoms: N_20  and  C_21
REMARK    9  A    between atoms: C_21  and  C_22
REMARK   10  A    between atoms: C_22  and  O_24
REMARK                            x       y       z     vdW  Elec       q    Type
REMARK                         _______ _______ _______ _____ _____    ______ ____
ROOT
ATOM      1  C   UNL     1       1.382   9.181  18.727  0.00  0.00    +0.000 A 
ATOM      2  C   UNL     1       1.108   9.135  20.092  0.00  0.00    +0.000 A 
ATOM      3  C   UNL     1       1.493   8.019  20.836  0.00  0.00    +0.000 A 
ATOM      4  C   UNL     1       2.110   6.930  20.211  0.00  0.00    +0.000 A 
ATOM      5  C   UNL     1       2.371   6.949  18.832  0.00  0.00    +0.000 A 
ATOM      6  C   UNL     1       2.064   8.119  18.119  0.00  0.00    +0.000 A 
ENDROOT
BRANCH   5   7
ATOM      7  C   UNL     1       2.907   5.717  18.133  0.00  0.00    +0.000 C 
ATOM      8  S   UNL     1       2.238   4.187  18.844  0.00  0.00    +0.000 S 
ATOM      9  C   UNL     1       3.808   3.305  18.722  0.00  0.00    +0.000 C 
ATOM     10  C   UNL     1       4.873   4.327  18.412  0.00  0.00    +0.000 C 
ATOM     11  O   UNL     1       6.066   4.048  18.365  0.00  0.00    +0.000 OA
ATOM     12  N   UNL     1       4.359   5.592  18.189  0.00  0.00    +0.000 N 
BRANCH  12  13
ATOM     13  C   UNL     1       5.252   6.692  17.809  0.00  0.00    +0.000 C 
BRANCH  13  14
ATOM     14  C   UNL     1       5.929   6.613  16.441  0.00  0.00    +0.000 C 
ATOM     15  O   UNL     1       5.366   6.786  15.378  0.00  0.00    +0.000 OA
BRANCH  14  16
ATOM     16  O   UNL     1       7.253   6.380  16.535  0.00  0.00    +0.000 OA
ATOM     17  H   UNL     1       7.801   6.767  15.823  0.00  0.00    +0.000 HD
ENDBRANCH  14  16
ENDBRANCH  13  14
ENDBRANCH  12  13
ENDBRANCH   5   7
BRANCH   1  18
ATOM     18  O   UNL     1       0.946  10.292  18.027  0.00  0.00    +0.000 OA
BRANCH  18  22
ATOM     19  C   UNL     1      -3.184  11.126  18.235  0.00  0.00    +0.000 A 
ATOM     20  C   UNL     1      -2.249  11.928  18.905  0.00  0.00    +0.000 A 
ATOM     21  C   UNL     1      -0.881  11.715  18.775  0.00  0.00    +0.000 A 
ATOM     22  C   UNL     1      -0.399  10.606  18.087  0.00  0.00    +0.000 A 
ATOM     23  C   UNL     1      -1.298   9.779  17.423  0.00  0.00    +0.000 A 
ATOM     24  C   UNL     1      -2.682  10.040  17.495  0.00  0.00    +0.000 A 
BRANCH  19  26
ATOM     25  C   UNL     1      -5.180  12.070  16.966  0.00  0.00    +0.000 C 
ATOM     26  C   UNL     1      -4.682  11.475  18.309  0.00  0.00    +0.000 C 
ATOM     27  C   UNL     1      -4.924  12.510  19.423  0.00  0.00    +0.000 C 
ATOM     28  C   UNL     1      -5.567  10.241  18.589  0.00  0.00    +0.000 C 
ENDBRANCH  19  26
ENDBRANCH  18  22
ENDBRANCH   1  18
TORSDOF 7
ENDMDL
MODEL 3
REMARK VINA RESULT:      -7.5      2.881      4.721
REMARK  Name = 
REMARK  10 active torsions:
REMARK  status: ('A' for Active; 'I' for Inactive)
REMARK    1  A    between atoms: C_1  and  C_2
REMARK    2  A    between atoms: C_2  and  C_3
REMARK    3  A    between atoms: C_2  and  C_4
REMARK    4  A    between atoms: C_2  and  C_5
REMARK    5  A    between atoms: C_8  and  O_9
REMARK    6  A    between atoms: O_9  and  C_10
REMARK    7  A    between atoms: C_14  and  C_15
REMARK    8  A    between atoms: N_20  and  C_21
REMARK    9  A    between atoms: C_21  and  C_22
REMARK   10  A    between atoms: C_22  and  O_24
REMARK                            x       y       z     vdW  Elec       q    Type
REMARK                         _______ _______ _______ _____ _____    ______ ____
ROOT
ATOM      1  C   UNL     1       1.558   8.855  18.921  0.00  0.00    +0.000 A 
ATOM      2  C   UNL     1       1.245   8.755  20.274  0.00  0.00    +0.000 A 
ATOM      3  C   UNL     1       1.549   7.583  20.968  0.00  0.00    +0.000 A 
ATOM      4  C   UNL     1       2.123   6.495  20.303  0.00  0.00    +0.000 A 
ATOM      5  C   UNL     1       2.422   6.569  18.934  0.00  0.00    +0.000 A 
ATOM      6  C   UNL     1       2.198   7.789  18.275  0.00  0.00    +0.000 A 
ENDROOT
BRANCH   5   7
ATOM      7  C   UNL     1       2.910   5.346  18.184  0.00  0.00    +0.000 C 
ATOM      8  S   UNL     1       1.588   4.128  17.940  0.00  0.00    +0.000 S 
ATOM      9  C   UNL     1       2.668   2.717  18.257  0.00  0.00    +0.000 C 
ATOM     10  C   UNL     1       3.951   3.258  18.839  0.00  0.00    +0.000 C 
ATOM     11  O   UNL     1       4.850   2.533  19.251  0.00  0.00    +0.000 OA
ATOM     12  N   UNL     1       3.997   4.640  18.852  0.00  0.00    +0.000 N 
BRANCH  12  13
ATOM     13  C   UNL     1       5.202   5.332  19.324  0.00  0.00    +0.000 C 
BRANCH  13  14
ATOM     14  C   UNL     1       6.393   5.407  18.369  0.00  0.00    +0.000 C 
ATOM     15  O   UNL     1       6.696   6.384  17.714  0.00  0.00    +0.000 OA
BRANCH  14  16
ATOM     16  O   UNL     1       7.123   4.273  18.367  0.00  0.00    +0.000 OA
ATOM     17  H   UNL     1       6.758   3.538  17.835  0.00  0.00    +0.000 HD
ENDBRANCH  14  16
ENDBRANCH  13  14
ENDBRANCH  12  13
ENDBRANCH   5   7
BRANCH   1  18
ATOM     18  O   UNL     1       1.201  10.022  18.269  0.00  0.00    +0.000 OA
BRANCH  18  22
ATOM     19  C   UNL     1      -2.913  10.949  18.213  0.00  0.00    +0.000 A 
ATOM     20  C   UNL     1      -2.024  11.652  19.039  0.00  0.00    +0.000 A 
ATOM     21  C   UNL     1      -0.655  11.414  19.003  0.00  0.00    +0.000 A 
ATOM     22  C   UNL     1      -0.137  10.367  18.247  0.00  0.00    +0.000 A 
ATOM     23  C   UNL     1      -0.992   9.637  17.428  0.00  0.00    +0.000 A 
ATOM     24  C   UNL     1      -2.370   9.929  17.410  0.00  0.00    +0.000 A 
BRANCH  19  26
ATOM     25  C   UNL     1      -4.705  12.440  19.238  0.00  0.00    +0.000 C 
ATOM     26  C   UNL     1      -4.405  11.331  18.196  0.00  0.00    +0.000 C 
ATOM     27  C   UNL     1      -5.265  10.098  18.531  0.00  0.00    +0.000 C 
ATOM     28  C   UNL     1      -4.862  11.887  16.830  0.00  0.00    +0.000 C 
ENDBRANCH  19  26
ENDBRANCH  18  22
ENDBRANCH   1  18
TORSDOF 7
ENDMDL
MODEL 4
REMARK VINA RESULT:      -7.5      2.846      4.655
REMARK  Name = 
REMARK  10 active torsions:
REMARK  status: ('A' for Active; 'I' for Inactive)
REMARK    1  A    between atoms: C_1  and  C_2
REMARK    2  A    between atoms: C_2  and  C_3
REMARK    3  A    between atoms: C_2  and  C_4
REMARK    4  A    between atoms: C_2  and  C_5
REMARK    5  A    between atoms: C_8  and  O_9
REMARK    6  A    between atoms: O_9  and  C_10
REMARK    7  A    between atoms: C_14  and  C_15
REMARK    8  A    between atoms: N_20  and  C_21
REMARK    9  A    between atoms: C_21  and  C_22
REMARK   10  A    between atoms: C_22  and  O_24
REMARK                            x       y       z     vdW  Elec       q    Type
REMARK                         _______ _______ _______ _____ _____    ______ ____
ROOT
ATOM      1  C   UNL     1       1.368   9.223  18.767  0.00  0.00    +0.000 A 
ATOM      2  C   UNL     1       1.115   9.083  20.130  0.00  0.00    +0.000 A 
ATOM      3  C   UNL     1       1.532   7.929  20.795  0.00  0.00    +0.000 A 
ATOM      4  C   UNL     1       2.159   6.895  20.092  0.00  0.00    +0.000 A 
ATOM      5  C   UNL     1       2.400   7.008  18.714  0.00  0.00    +0.000 A 
ATOM      6  C   UNL     1       2.062   8.215  18.082  0.00  0.00    +0.000 A 
ENDROOT
BRANCH   5   7
ATOM      7  C   UNL     1       2.948   5.834  17.929  0.00  0.00    +0.000 C 
ATOM      8  S   UNL     1       2.105   4.283  18.349  0.00  0.00    +0.000 S 
ATOM      9  C   UNL     1       3.624   3.308  18.301  0.00  0.00    +0.000 C 
ATOM     10  C   UNL     1       4.777   4.279  18.257  0.00  0.00    +0.000 C 
ATOM     11  O   UNL     1       5.949   3.920  18.316  0.00  0.00    +0.000 OA
ATOM     12  N   UNL     1       4.371   5.596  18.141  0.00  0.00    +0.000 N 
BRANCH  12  13
ATOM     13  C   UNL     1       5.368   6.666  18.017  0.00  0.00    +0.000 C 
BRANCH  13  14
ATOM     14  C   UNL     1       6.193   6.717  16.731  0.00  0.00    +0.000 C 
ATOM     15  O   UNL     1       7.406   6.683  16.684  0.00  0.00    +0.000 OA
BRANCH  14  16
ATOM     16  O   UNL     1       5.421   6.750  15.626  0.00  0.00    +0.000 OA
ATOM     17  H   UNL     1       4.639   7.334  15.675  0.00  0.00    +0.000 HD
ENDBRANCH  14  16
ENDBRANCH  13  14
ENDBRANCH  12  13
ENDBRANCH   5   7
BRANCH   1  18
ATOM     18  O   UNL     1       0.902  10.368  18.147  0.00  0.00    +0.000 OA
BRANCH  18  22
ATOM     19  C   UNL     1      -3.220  11.255  18.258  0.00  0.00    +0.000 A 
ATOM     20  C   UNL     1      -2.722  10.227  17.444  0.00  0.00    +0.000 A 
ATOM     21  C   UNL     1      -1.379   9.870  17.462  0.00  0.00    +0.000 A 
ATOM     22  C   UNL     1      -0.456  10.617  18.187  0.00  0.00    +0.000 A 
ATOM     23  C   UNL     1      -0.912  11.654  18.994  0.00  0.00    +0.000 A 
ATOM     24  C   UNL     1      -2.285  11.968  19.031  0.00  0.00    +0.000 A 
BRANCH  19  26
ATOM     25  C   UNL     1      -5.080  12.561  19.406  0.00  0.00    +0.000 C 
ATOM     26  C   UNL     1      -4.734  11.534  18.297  0.00  0.00    +0.000 C 
ATOM     27  C   UNL     1      -5.500  10.229  18.581  0.00  0.00    +0.000 C 
ATOM     28  C   UNL     1      -5.262  12.132  16.975  0.00  0.00    +0.000 C 
ENDBRANCH  19  26
ENDBRANCH  18  22
ENDBRANCH   1  18
TORSDOF 7
ENDMDL
MODEL 5
REMARK VINA RESULT:      -7.4      1.785      2.784
REMARK  Name = 
REMARK  10 active torsions:
REMARK  status: ('A' for Active; 'I' for Inactive)
REMARK    1  A    between atoms: C_1  and  C_2
REMARK    2  A    between atoms: C_2  and  C_3
REMARK    3  A    between atoms: C_2  and  C_4
REMARK    4  A    between atoms: C_2  and  C_5
REMARK    5  A    between atoms: C_8  and  O_9
REMARK    6  A    between atoms: O_9  and  C_10
REMARK    7  A    between atoms: C_14  and  C_15
REMARK    8  A    between atoms: N_20  and  C_21
REMARK    9  A    between atoms: C_21  and  C_22
REMARK   10  A    between atoms: C_22  and  O_24
REMARK                            x       y       z     vdW  Elec       q    Type
REMARK                         _______ _______ _______ _____ _____    ______ ____
ROOT
ATOM      1  C   UNL     1       2.229   5.842  19.779  0.00  0.00    +0.000 A 
ATOM      2  C   UNL     1       1.336   4.851  19.377  0.00  0.00    +0.000 A 
ATOM      3  C   UNL     1       1.667   4.015  18.311  0.00  0.00    +0.000 A 
ATOM      4  C   UNL     1       2.868   4.195  17.616  0.00  0.00    +0.000 A 
ATOM      5  C   UNL     1       3.768   5.204  17.991  0.00  0.00    +0.000 A 
ATOM      6  C   UNL     1       3.462   5.972  19.126  0.00  0.00    +0.000 A 
ENDROOT
BRANCH   5   7
ATOM      7  C   UNL     1       4.997   5.491  17.153  0.00  0.00    +0.000 C 
ATOM      8  S   UNL     1       4.899   4.714  15.516  0.00  0.00    +0.000 S 
ATOM      9  C   UNL     1       6.642   4.242  15.506  0.00  0.00    +0.000 C 
ATOM     10  C   UNL     1       7.166   4.439  16.907  0.00  0.00    +0.000 C 
ATOM     11  O   UNL     1       8.299   4.111  17.243  0.00  0.00    +0.000 OA
ATOM     12  N   UNL     1       6.242   5.024  17.753  0.00  0.00    +0.000 N 
BRANCH  12  13
ATOM     13  C   UNL     1       6.610   5.349  19.135  0.00  0.00    +0.000 C 
BRANCH  13  14
ATOM     14  C   UNL     1       7.974   6.000  19.369  0.00  0.00    +0.000 C 
ATOM     15  O   UNL     1       8.334   7.049  18.875  0.00  0.00    +0.000 OA
BRANCH  14  16
ATOM     16  O   UNL     1       8.733   5.305  20.239  0.00  0.00    +0.000 OA
ATOM     17  H   UNL     1       9.329   5.841  20.800  0.00  0.00    +0.000 HD
ENDBRANCH  14  16
ENDBRANCH  13  14
ENDBRANCH  12  13
ENDBRANCH   5   7
BRANCH   1  18
ATOM     18  O   UNL     1       1.838   6.670  20.817  0.00  0.00    +0.000 OA
BRANCH  18  22
ATOM     19  C   UNL     1       0.116  10.356  19.705  0.00  0.00    +0.000 A 
ATOM     20  C   UNL     1      -0.220   9.737  20.918  0.00  0.00    +0.000 A 
ATOM     21  C   UNL     1       0.403   8.567  21.334  0.00  0.00    +0.000 A 
ATOM     22  C   UNL     1       1.282   7.893  20.492  0.00  0.00    +0.000 A 
ATOM     23  C   UNL     1       1.626   8.469  19.273  0.00  0.00    +0.000 A 
ATOM     24  C   UNL     1       1.048   9.695  18.885  0.00  0.00    +0.000 A 
BRANCH  19  26
ATOM     25  C   UNL     1       0.579  12.728  18.901  0.00  0.00    +0.000 C 
ATOM     26  C   UNL     1      -0.511  11.716  19.343  0.00  0.00    +0.000 C 
ATOM     27  C   UNL     1      -1.250  12.294  20.563  0.00  0.00    +0.000 C 
ATOM     28  C   UNL     1      -1.509  11.617  18.169  0.00  0.00    +0.000 C 
ENDBRANCH  19  26
ENDBRANCH  18  22
ENDBRANCH   1  18
TORSDOF 7
ENDMDL
MODEL 6
REMARK VINA RESULT:      -7.4      1.794      2.973
REMARK  Name = 
REMARK  10 active torsions:
REMARK  status: ('A' for Active; 'I' for Inactive)
REMARK    1  A    between atoms: C_1  and  C_2
REMARK    2  A    between atoms: C_2  and  C_3
REMARK    3  A    between atoms: C_2  and  C_4
REMARK    4  A    between atoms: C_2  and  C_5
REMARK    5  A    between atoms: C_8  and  O_9
REMARK    6  A    between atoms: O_9  and  C_10
REMARK    7  A    between atoms: C_14  and  C_15
REMARK    8  A    between atoms: N_20  and  C_21
REMARK    9  A    between atoms: C_21  and  C_22
REMARK   10  A    between atoms: C_22  and  O_24
REMARK                            x       y       z     vdW  Elec       q    Type
REMARK                         _______ _______ _______ _____ _____    ______ ____
ROOT
ATOM      1  C   UNL     1       2.482   6.511  19.639  0.00  0.00    +0.000 A 
ATOM      2  C   UNL     1       1.593   5.440  19.689  0.00  0.00    +0.000 A 
ATOM      3  C   UNL     1       1.798   4.333  18.864  0.00  0.00    +0.000 A 
ATOM      4  C   UNL     1       2.862   4.315  17.956  0.00  0.00    +0.000 A 
ATOM      5  C   UNL     1       3.752   5.396  17.874  0.00  0.00    +0.000 A 
ATOM      6  C   UNL     1       3.587   6.457  18.779  0.00  0.00    +0.000 A 
ENDROOT
BRANCH   5   7
ATOM      7  C   UNL     1       4.816   5.438  16.795  0.00  0.00    +0.000 C 
ATOM      8  S   UNL     1       4.538   4.179  15.518  0.00  0.00    +0.000 S 
ATOM      9  C   UNL     1       6.291   3.780  15.364  0.00  0.00    +0.000 C 
ATOM     10  C   UNL     1       7.001   4.427  16.528  0.00  0.00    +0.000 C 
ATOM     11  O   UNL     1       8.194   4.256  16.754  0.00  0.00    +0.000 OA
ATOM     12  N   UNL     1       6.169   5.223  17.294  0.00  0.00    +0.000 N 
BRANCH  12  13
ATOM     13  C   UNL     1       6.712   5.980  18.427  0.00  0.00    +0.000 C 
BRANCH  13  14
ATOM     14  C   UNL     1       7.655   7.142  18.113  0.00  0.00    +0.000 C 
ATOM     15  O   UNL     1       7.564   7.865  17.142  0.00  0.00    +0.000 OA
BRANCH  14  16
ATOM     16  O   UNL     1       8.585   7.323  19.072  0.00  0.00    +0.000 OA
ATOM     17  H   UNL     1       8.513   6.731  19.847  0.00  0.00    +0.000 HD
ENDBRANCH  14  16
ENDBRANCH  13  14
ENDBRANCH  12  13
ENDBRANCH   5   7
BRANCH   1  18
ATOM     18  O   UNL     1       2.214   7.600  20.449  0.00  0.00    +0.000 OA
BRANCH  18  22
ATOM     19  C   UNL     1      -0.405  10.614  19.092  0.00  0.00    +0.000 A 
ATOM     20  C   UNL     1       0.624  10.128  18.274  0.00  0.00    +0.000 A 
ATOM     21  C   UNL     1       1.439   9.077  18.677  0.00  0.00    +0.000 A 
ATOM     22  C   UNL     1       1.351   8.566  19.968  0.00  0.00    +0.000 A 
ATOM     23  C   UNL     1       0.352   9.037  20.814  0.00  0.00    +0.000 A 
ATOM     24  C   UNL     1      -0.522  10.052  20.377  0.00  0.00    +0.000 A 
BRANCH  19  26
ATOM     25  C   UNL     1      -0.582  12.974  18.151  0.00  0.00    +0.000 C 
ATOM     26  C   UNL     1      -1.362  11.696  18.556  0.00  0.00    +0.000 C 
ATOM     27  C   UNL     1      -2.388  12.071  19.640  0.00  0.00    +0.000 C 
ATOM     28  C   UNL     1      -2.128  11.241  17.295  0.00  0.00    +0.000 C 
ENDBRANCH  19  26
ENDBRANCH  18  22
ENDBRANCH   1  18
TORSDOF 7
ENDMDL
MODEL 7
REMARK VINA RESULT:      -7.4      2.733      4.273
REMARK  Name = 
REMARK  10 active torsions:
REMARK  status: ('A' for Active; 'I' for Inactive)
REMARK    1  A    between atoms: C_1  and  C_2
REMARK    2  A    between atoms: C_2  and  C_3
REMARK    3  A    between atoms: C_2  and  C_4
REMARK    4  A    between atoms: C_2  and  C_5
REMARK    5  A    between atoms: C_8  and  O_9
REMARK    6  A    between atoms: O_9  and  C_10
REMARK    7  A    between atoms: C_14  and  C_15
REMARK    8  A    between atoms: N_20  and  C_21
REMARK    9  A    between atoms: C_21  and  C_22
REMARK   10  A    between atoms: C_22  and  O_24
REMARK                            x       y       z     vdW  Elec       q    Type
REMARK                         _______ _______ _______ _____ _____    ______ ____
ROOT
ATOM      1  C   UNL     1       1.818   7.681  20.277  0.00  0.00    +0.000 A 
ATOM      2  C   UNL     1       1.908   8.691  19.322  0.00  0.00    +0.000 A 
ATOM      3  C   UNL     1       2.260   8.373  18.010  0.00  0.00    +0.000 A 
ATOM      4  C   UNL     1       2.566   7.053  17.660  0.00  0.00    +0.000 A 
ATOM      5  C   UNL     1       2.506   6.026  18.614  0.00  0.00    +0.000 A 
ATOM      6  C   UNL     1       2.057   6.350  19.904  0.00  0.00    +0.000 A 
ENDROOT
BRANCH   5   7
ATOM      7  C   UNL     1       2.975   4.627  18.271  0.00  0.00    +0.000 C 
ATOM      8  S   UNL     1       1.651   3.401  18.465  0.00  0.00    +0.000 S 
ATOM      9  C   UNL     1       2.749   2.155  19.174  0.00  0.00    +0.000 C 
ATOM     10  C   UNL     1       4.046   2.845  19.514  0.00  0.00    +0.000 C 
ATOM     11  O   UNL     1       4.962   2.280  20.103  0.00  0.00    +0.000 OA
ATOM     12  N   UNL     1       4.087   4.161  19.091  0.00  0.00    +0.000 N 
BRANCH  12  13
ATOM     13  C   UNL     1       5.303   4.959  19.282  0.00  0.00    +0.000 C 
BRANCH  13  14
ATOM     14  C   UNL     1       6.246   5.106  18.088  0.00  0.00    +0.000 C 
ATOM     15  O   UNL     1       6.140   5.950  17.221  0.00  0.00    +0.000 OA
BRANCH  14  16
ATOM     16  O   UNL     1       7.262   4.221  18.123  0.00  0.00    +0.000 OA
ATOM     17  H   UNL     1       7.074   3.348  17.724  0.00  0.00    +0.000 HD
ENDBRANCH  14  16
ENDBRANCH  13  14
ENDBRANCH  12  13
ENDBRANCH   5   7
BRANCH   1  18
ATOM     18  O   UNL     1       1.504   8.053  21.572  0.00  0.00    +0.000 OA
BRANCH  18  22
ATOM     19  C   UNL     1      -1.048  11.348  22.218  0.00  0.00    +0.000 A 
ATOM     20  C   UNL     1      -0.404  11.162  20.987  0.00  0.00    +0.000 A 
ATOM     21  C   UNL     1       0.371  10.036  20.733  0.00  0.00    +0.000 A 
ATOM     22  C   UNL     1       0.649   9.124  21.746  0.00  0.00    +0.000 A 
ATOM     23  C   UNL     1       0.041   9.286  22.987  0.00  0.00    +0.000 A 
ATOM     24  C   UNL     1      -0.805  10.389  23.219  0.00  0.00    +0.000 A 
BRANCH  19  26
ATOM     25  C   UNL     1      -1.225  13.780  22.955  0.00  0.00    +0.000 C 
ATOM     26  C   UNL     1      -1.995  12.547  22.412  0.00  0.00    +0.000 C 
ATOM     27  C   UNL     1      -3.103  12.182  23.416  0.00  0.00    +0.000 C 
ATOM     28  C   UNL     1      -2.660  13.000  21.095  0.00  0.00    +0.000 C 
ENDBRANCH  19  26
ENDBRANCH  18  22
ENDBRANCH   1  18
TORSDOF 7
ENDMDL
MODEL 8
REMARK VINA RESULT:      -7.4      2.622      4.001
REMARK  Name = 
REMARK  10 active torsions:
REMARK  status: ('A' for Active; 'I' for Inactive)
REMARK    1  A    between atoms: C_1  and  C_2
REMARK    2  A    between atoms: C_2  and  C_3
REMARK    3  A    between atoms: C_2  and  C_4
REMARK    4  A    between atoms: C_2  and  C_5
REMARK    5  A    between atoms: C_8  and  O_9
REMARK    6  A    between atoms: O_9  and  C_10
REMARK    7  A    between atoms: C_14  and  C_15
REMARK    8  A    between atoms: N_20  and  C_21
REMARK    9  A    between atoms: C_21  and  C_22
REMARK   10  A    between atoms: C_22  and  O_24
REMARK                            x       y       z     vdW  Elec       q    Type
REMARK                         _______ _______ _______ _____ _____    ______ ____
ROOT
ATOM      1  C   UNL     1       1.751   8.276  20.259  0.00  0.00    +0.000 A 
ATOM      2  C   UNL     1       1.419   9.207  19.278  0.00  0.00    +0.000 A 
ATOM      3  C   UNL     1       1.591   8.883  17.932  0.00  0.00    +0.000 A 
ATOM      4  C   UNL     1       2.137   7.649  17.565  0.00  0.00    +0.000 A 
ATOM      5  C   UNL     1       2.500   6.708  18.541  0.00  0.00    +0.000 A 
ATOM      6  C   UNL     1       2.230   7.013  19.884  0.00  0.00    +0.000 A 
ENDROOT
BRANCH   5   7
ATOM      7  C   UNL     1       3.221   5.433  18.151  0.00  0.00    +0.000 C 
ATOM      8  S   UNL     1       2.653   4.009  19.121  0.00  0.00    +0.000 S 
ATOM      9  C   UNL     1       4.310   3.314  19.291  0.00  0.00    +0.000 C 
ATOM     10  C   UNL     1       5.287   4.374  18.845  0.00  0.00    +0.000 C 
ATOM     11  O   UNL     1       6.502   4.236  18.936  0.00  0.00    +0.000 OA
ATOM     12  N   UNL     1       4.667   5.497  18.328  0.00  0.00    +0.000 N 
BRANCH  12  13
ATOM     13  C   UNL     1       5.471   6.598  17.786  0.00  0.00    +0.000 C 
BRANCH  13  14
ATOM     14  C   UNL     1       5.943   6.481  16.337  0.00  0.00    +0.000 C 
ATOM     15  O   UNL     1       5.227   6.602  15.364  0.00  0.00    +0.000 OA
BRANCH  14  16
ATOM     16  O   UNL     1       7.272   6.281  16.243  0.00  0.00    +0.000 OA
ATOM     17  H   UNL     1       7.800   7.064  15.988  0.00  0.00    +0.000 HD
ENDBRANCH  14  16
ENDBRANCH  13  14
ENDBRANCH  12  13
ENDBRANCH   5   7
BRANCH   1  18
ATOM     18  O   UNL     1       1.598   8.659  21.580  0.00  0.00    +0.000 OA
BRANCH  18  22
ATOM     19  C   UNL     1      -1.116  11.737  22.556  0.00  0.00    +0.000 A 
ATOM     20  C   UNL     1      -0.099  11.941  21.613  0.00  0.00    +0.000 A 
ATOM     21  C   UNL     1       0.747  10.910  21.220  0.00  0.00    +0.000 A 
ATOM     22  C   UNL     1       0.703   9.675  21.858  0.00  0.00    +0.000 A 
ATOM     23  C   UNL     1      -0.282   9.441  22.812  0.00  0.00    +0.000 A 
ATOM     24  C   UNL     1      -1.187  10.466  23.155  0.00  0.00    +0.000 A 
BRANCH  19  26
ATOM     25  C   UNL     1      -3.299  12.351  23.714  0.00  0.00    +0.000 C 
ATOM     26  C   UNL     1      -2.107  12.873  22.869  0.00  0.00    +0.000 C 
ATOM     27  C   UNL     1      -2.657  13.464  21.559  0.00  0.00    +0.000 C 
ATOM     28  C   UNL     1      -1.465  14.014  23.688  0.00  0.00    +0.000 C 
ENDBRANCH  19  26
ENDBRANCH  18  22
ENDBRANCH   1  18
TORSDOF 7
ENDMDL
MODEL 9
REMARK VINA RESULT:      -7.4      1.762      2.957
REMARK  Name = 
REMARK  10 active torsions:
REMARK  status: ('A' for Active; 'I' for Inactive)
REMARK    1  A    between atoms: C_1  and  C_2
REMARK    2  A    between atoms: C_2  and  C_3
REMARK    3  A    between atoms: C_2  and  C_4
REMARK    4  A    between atoms: C_2  and  C_5
REMARK    5  A    between atoms: C_8  and  O_9
REMARK    6  A    between atoms: O_9  and  C_10
REMARK    7  A    between atoms: C_14  and  C_15
REMARK    8  A    between atoms: N_20  and  C_21
REMARK    9  A    between atoms: C_21  and  C_22
REMARK   10  A    between atoms: C_22  and  O_24
REMARK                            x       y       z     vdW  Elec       q    Type
REMARK                         _______ _______ _______ _____ _____    ______ ____
ROOT
ATOM      1  C   UNL     1       2.196   5.470  19.708  0.00  0.00    +0.000 A 
ATOM      2  C   UNL     1       1.378   4.485  19.160  0.00  0.00    +0.000 A 
ATOM      3  C   UNL     1       1.798   3.791  18.025  0.00  0.00    +0.000 A 
ATOM      4  C   UNL     1       3.012   4.111  17.409  0.00  0.00    +0.000 A 
ATOM      5  C   UNL     1       3.838   5.117  17.932  0.00  0.00    +0.000 A 
ATOM      6  C   UNL     1       3.445   5.737  19.129  0.00  0.00    +0.000 A 
ENDROOT
BRANCH   5   7
ATOM      7  C   UNL     1       5.081   5.560  17.187  0.00  0.00    +0.000 C 
ATOM      8  S   UNL     1       4.957   5.232  15.406  0.00  0.00    +0.000 S 
ATOM      9  C   UNL     1       6.679   4.709  15.264  0.00  0.00    +0.000 C 
ATOM     10  C   UNL     1       7.206   4.521  16.665  0.00  0.00    +0.000 C 
ATOM     11  O   UNL     1       8.324   4.073  16.898  0.00  0.00    +0.000 OA
ATOM     12  N   UNL     1       6.303   4.907  17.639  0.00  0.00    +0.000 N 
BRANCH  12  13
ATOM     13  C   UNL     1       6.680   4.852  19.056  0.00  0.00    +0.000 C 
BRANCH  13  14
ATOM     14  C   UNL     1       7.829   5.749  19.516  0.00  0.00    +0.000 C 
ATOM     15  O   UNL     1       8.222   6.732  18.921  0.00  0.00    +0.000 OA
BRANCH  14  16
ATOM     16  O   UNL     1       8.338   5.364  20.704  0.00  0.00    +0.000 OA
ATOM     17  H   UNL     1       9.210   4.923  20.665  0.00  0.00    +0.000 HD
ENDBRANCH  14  16
ENDBRANCH  13  14
ENDBRANCH  12  13
ENDBRANCH   5   7
BRANCH   1  18
ATOM     18  O   UNL     1       1.718   6.156  20.811  0.00  0.00    +0.000 OA
BRANCH  18  22
ATOM     19  C   UNL     1       0.326  10.111  20.352  0.00  0.00    +0.000 A 
ATOM     20  C   UNL     1       1.219   9.546  19.429  0.00  0.00    +0.000 A 
ATOM     21  C   UNL     1       1.618   8.218  19.522  0.00  0.00    +0.000 A 
ATOM     22  C   UNL     1       1.254   7.443  20.619  0.00  0.00    +0.000 A 
ATOM     23  C   UNL     1       0.383   7.976  21.564  0.00  0.00    +0.000 A 
ATOM     24  C   UNL     1      -0.080   9.300  21.428  0.00  0.00    +0.000 A 
BRANCH  19  26
ATOM     25  C   UNL     1       0.742  12.328  19.170  0.00  0.00    +0.000 C 
ATOM     26  C   UNL     1      -0.184  11.548  20.140  0.00  0.00    +0.000 C 
ATOM     27  C   UNL     1      -0.223  12.294  21.486  0.00  0.00    +0.000 C 
ATOM     28  C   UNL     1      -1.597  11.593  19.517  0.00  0.00    +0.000 C 
ENDBRANCH  19  26
ENDBRANCH  18  22
ENDBRANCH   1  18
TORSDOF 7
ENDMDL
