MODEL 1
REMARK VINA RESULT:      -8.0      0.000      0.000
REMARK  Name = 
REMARK  4 active torsions:
REMARK  status: ('A' for Active; 'I' for Inactive)
REMARK    1  A    between atoms: C_1  and  C_2
REMARK    2  A    between atoms: N_4  and  C_5
REMARK    3  A    between atoms: C_8  and  C_9
REMARK    4  A    between atoms: N_13  and  C_14
REMARK                            x       y       z     vdW  Elec       q    Type
REMARK                         _______ _______ _______ _____ _____    ______ ____
ROOT
ATOM      1  C   UNL     1       0.262  10.570  21.481  0.00  0.00    +0.000 A 
ATOM      2  C   UNL     1       0.552  10.429  20.115  0.00  0.00    +0.000 A 
ATOM      3  C   UNL     1       1.123   9.243  19.622  0.00  0.00    +0.000 A 
ATOM      4  C   UNL     1       1.413   8.173  20.479  0.00  0.00    +0.000 A 
ATOM      5  C   UNL     1       1.130   8.325  21.839  0.00  0.00    +0.000 A 
ATOM      6  C   UNL     1       0.564   9.501  22.329  0.00  0.00    +0.000 A 
ATOM      7  F   UNL     1       0.321   9.542  23.646  0.00  0.00    +0.000 F 
ENDROOT
BRANCH   4   8
ATOM      8  C   UNL     1       2.037   6.934  20.025  0.00  0.00    +0.000 A 
ATOM      9  C   UNL     1       1.846   5.692  20.595  0.00  0.00    +0.000 A 
ATOM     10  S   UNL     1       2.693   4.502  19.694  0.00  0.00    +0.000 S 
ATOM     11  C   UNL     1       3.305   5.727  18.647  0.00  0.00    +0.000 A 
ATOM     12  N   UNL     1       4.118   5.399  17.615  0.00  0.00    +0.000 N 
ATOM     13  N   UNL     1       2.916   6.944  18.951  0.00  0.00    +0.000 NA
ATOM     14  H   UNL     1       4.373   4.422  17.534  0.00  0.00    +0.000 HD
BRANCH  12  15
ATOM     15  C   UNL     1       5.117   6.364  17.155  0.00  0.00    +0.000 C 
ATOM     16  C   UNL     1       6.504   5.998  17.706  0.00  0.00    +0.000 C 
ATOM     17  C   UNL     1       7.090   4.728  17.090  0.00  0.00    +0.000 C 
ATOM     18  C   UNL     1       7.047   4.721  15.566  0.00  0.00    +0.000 C 
ATOM     19  C   UNL     1       5.703   5.154  14.987  0.00  0.00    +0.000 C 
ATOM     20  C   UNL     1       5.162   6.431  15.624  0.00  0.00    +0.000 C 
ENDBRANCH  12  15
ENDBRANCH   4   8
BRANCH   1  24
ATOM     21  C   UNL     1      -2.613  13.911  23.892  0.00  0.00    +0.000 C 
ATOM     22  C   UNL     1      -1.606  13.229  23.060  0.00  0.00    +0.000 A 
ATOM     23  C   UNL     1      -1.423  11.880  22.817  0.00  0.00    +0.000 A 
ATOM     24  N   UNL     1      -0.325  11.773  21.984  0.00  0.00    +0.000 N 
ATOM     25  C   UNL     1       0.078  13.074  21.759  0.00  0.00    +0.000 A 
ATOM     26  N   UNL     1      -0.663  13.957  22.387  0.00  0.00    +0.000 NA
ENDBRANCH   1  24
TORSDOF 3
ENDMDL
MODEL 2
REMARK VINA RESULT:      -7.9      3.047      3.921
REMARK  Name = 
REMARK  4 active torsions:
REMARK  status: ('A' for Active; 'I' for Inactive)
REMARK    1  A    between atoms: C_1  and  C_2
REMARK    2  A    between atoms: N_4  and  C_5
REMARK    3  A    between atoms: C_8  and  C_9
REMARK    4  A    between atoms: N_13  and  C_14
REMARK                            x       y       z     vdW  Elec       q    Type
REMARK                         _______ _______ _______ _____ _____    ______ ____
ROOT
ATOM      1  C   UNL     1      -0.996  11.402  22.323  0.00  0.00    +0.000 A 
ATOM      2  C   UNL     1      -0.492  10.254  22.955  0.00  0.00    +0.000 A 
ATOM      3  C   UNL     1       0.276   9.320  22.238  0.00  0.00    +0.000 A 
ATOM      4  C   UNL     1       0.559   9.512  20.880  0.00  0.00    +0.000 A 
ATOM      5  C   UNL     1       0.046  10.652  20.256  0.00  0.00    +0.000 A 
ATOM      6  C   UNL     1      -0.715  11.579  20.965  0.00  0.00    +0.000 A 
ATOM      7  F   UNL     1      -1.151  12.644  20.278  0.00  0.00    +0.000 F 
ENDROOT
BRANCH   4   8
ATOM      8  C   UNL     1       1.322   8.557  20.081  0.00  0.00    +0.000 A 
ATOM      9  C   UNL     1       1.790   8.783  18.804  0.00  0.00    +0.000 A 
ATOM     10  S   UNL     1       2.712   7.436  18.274  0.00  0.00    +0.000 S 
ATOM     11  C   UNL     1       2.372   6.620  19.755  0.00  0.00    +0.000 A 
ATOM     12  N   UNL     1       2.873   5.382  19.982  0.00  0.00    +0.000 N 
ATOM     13  N   UNL     1       1.615   7.297  20.585  0.00  0.00    +0.000 NA
ATOM     14  H   UNL     1       3.401   4.963  19.226  0.00  0.00    +0.000 HD
BRANCH  12  15
ATOM     15  C   UNL     1       2.133   4.456  20.838  0.00  0.00    +0.000 C 
ATOM     16  C   UNL     1       0.831   4.019  20.150  0.00  0.00    +0.000 C 
ATOM     17  C   UNL     1       1.053   3.109  18.942  0.00  0.00    +0.000 C 
ATOM     18  C   UNL     1       1.981   1.935  19.235  0.00  0.00    +0.000 C 
ATOM     19  C   UNL     1       3.250   2.327  19.987  0.00  0.00    +0.000 C 
ATOM     20  C   UNL     1       2.977   3.226  21.190  0.00  0.00    +0.000 C 
ENDBRANCH  12  15
ENDBRANCH   4   8
BRANCH   1  24
ATOM     21  C   UNL     1      -2.601  15.518  24.715  0.00  0.00    +0.000 C 
ATOM     22  C   UNL     1      -2.458  14.186  24.101  0.00  0.00    +0.000 A 
ATOM     23  C   UNL     1      -1.374  13.616  23.459  0.00  0.00    +0.000 A 
ATOM     24  N   UNL     1      -1.771  12.358  23.051  0.00  0.00    +0.000 N 
ATOM     25  C   UNL     1      -3.074  12.237  23.491  0.00  0.00    +0.000 A 
ATOM     26  N   UNL     1      -3.508  13.308  24.115  0.00  0.00    +0.000 NA
ENDBRANCH   1  24
TORSDOF 3
ENDMDL
MODEL 3
REMARK VINA RESULT:      -7.7      3.906      9.210
REMARK  Name = 
REMARK  4 active torsions:
REMARK  status: ('A' for Active; 'I' for Inactive)
REMARK    1  A    between atoms: C_1  and  C_2
REMARK    2  A    between atoms: N_4  and  C_5
REMARK    3  A    between atoms: C_8  and  C_9
REMARK    4  A    between atoms: N_13  and  C_14
REMARK                            x       y       z     vdW  Elec       q    Type
REMARK                         _______ _______ _______ _____ _____    ______ ____
ROOT
ATOM      1  C   UNL     1       2.641   6.948  18.995  0.00  0.00    +0.000 A 
ATOM      2  C   UNL     1       2.748   7.759  17.854  0.00  0.00    +0.000 A 
ATOM      3  C   UNL     1       2.104   9.007  17.799  0.00  0.00    +0.000 A 
ATOM      4  C   UNL     1       1.343   9.473  18.879  0.00  0.00    +0.000 A 
ATOM      5  C   UNL     1       1.233   8.656  20.007  0.00  0.00    +0.000 A 
ATOM      6  C   UNL     1       1.872   7.418  20.064  0.00  0.00    +0.000 A 
ATOM      7  F   UNL     1       1.714   6.717  21.194  0.00  0.00    +0.000 F 
ENDROOT
BRANCH   4   8
ATOM      8  C   UNL     1       0.626  10.745  18.860  0.00  0.00    +0.000 A 
ATOM      9  C   UNL     1       1.208  11.988  19.003  0.00  0.00    +0.000 A 
ATOM     10  S   UNL     1       0.018  13.212  18.826  0.00  0.00    +0.000 S 
ATOM     11  C   UNL     1      -1.197  12.004  18.634  0.00  0.00    +0.000 A 
ATOM     12  N   UNL     1      -2.488  12.361  18.429  0.00  0.00    +0.000 N 
ATOM     13  N   UNL     1      -0.753  10.771  18.707  0.00  0.00    +0.000 NA
ATOM     14  H   UNL     1      -2.690  13.353  18.447  0.00  0.00    +0.000 HD
BRANCH  12  15
ATOM     15  C   UNL     1      -3.558  11.480  18.896  0.00  0.00    +0.000 C 
ATOM     16  C   UNL     1      -4.668  12.300  19.570  0.00  0.00    +0.000 C 
ATOM     17  C   UNL     1      -5.470  13.161  18.594  0.00  0.00    +0.000 C 
ATOM     18  C   UNL     1      -5.971  12.386  17.379  0.00  0.00    +0.000 C 
ATOM     19  C   UNL     1      -4.909  11.502  16.733  0.00  0.00    +0.000 C 
ATOM     20  C   UNL     1      -4.142  10.654  17.745  0.00  0.00    +0.000 C 
ENDBRANCH  12  15
ENDBRANCH   4   8
BRANCH   1  24
ATOM     21  C   UNL     1       3.709   2.039  18.927  0.00  0.00    +0.000 C 
ATOM     22  C   UNL     1       3.749   3.510  19.021  0.00  0.00    +0.000 A 
ATOM     23  C   UNL     1       2.726   4.433  18.915  0.00  0.00    +0.000 A 
ATOM     24  N   UNL     1       3.301   5.681  19.057  0.00  0.00    +0.000 N 
ATOM     25  C   UNL     1       4.643   5.431  19.262  0.00  0.00    +0.000 A 
ATOM     26  N   UNL     1       4.937   4.152  19.243  0.00  0.00    +0.000 NA
ENDBRANCH   1  24
TORSDOF 3
ENDMDL
MODEL 4
REMARK VINA RESULT:      -7.7      2.864      3.642
REMARK  Name = 
REMARK  4 active torsions:
REMARK  status: ('A' for Active; 'I' for Inactive)
REMARK    1  A    between atoms: C_1  and  C_2
REMARK    2  A    between atoms: N_4  and  C_5
REMARK    3  A    between atoms: C_8  and  C_9
REMARK    4  A    between atoms: N_13  and  C_14
REMARK                            x       y       z     vdW  Elec       q    Type
REMARK                         _______ _______ _______ _____ _____    ______ ____
ROOT
ATOM      1  C   UNL     1      -0.938  11.475  21.878  0.00  0.00    +0.000 A 
ATOM      2  C   UNL     1      -0.661  11.649  20.513  0.00  0.00    +0.000 A 
ATOM      3  C   UNL     1       0.095  10.696  19.808  0.00  0.00    +0.000 A 
ATOM      4  C   UNL     1       0.587   9.551  20.448  0.00  0.00    +0.000 A 
ATOM      5  C   UNL     1       0.316   9.391  21.809  0.00  0.00    +0.000 A 
ATOM      6  C   UNL     1      -0.433  10.334  22.510  0.00  0.00    +0.000 A 
ATOM      7  F   UNL     1      -0.647  10.082  23.808  0.00  0.00    +0.000 F 
ENDROOT
BRANCH   4   8
ATOM      8  C   UNL     1       1.406   8.549  19.772  0.00  0.00    +0.000 A 
ATOM      9  C   UNL     1       1.955   8.689  18.513  0.00  0.00    +0.000 A 
ATOM     10  S   UNL     1       2.918   7.318  18.143  0.00  0.00    +0.000 S 
ATOM     11  C   UNL     1       2.488   6.606  19.653  0.00  0.00    +0.000 A 
ATOM     12  N   UNL     1       2.981   5.393  20.001  0.00  0.00    +0.000 N 
ATOM     13  N   UNL     1       1.674   7.332  20.383  0.00  0.00    +0.000 NA
ATOM     14  H   UNL     1       3.560   4.927  19.312  0.00  0.00    +0.000 HD
BRANCH  12  15
ATOM     15  C   UNL     1       2.193   4.522  20.872  0.00  0.00    +0.000 C 
ATOM     16  C   UNL     1       0.858   4.165  20.201  0.00  0.00    +0.000 C 
ATOM     17  C   UNL     1       1.008   3.234  18.999  0.00  0.00    +0.000 C 
ATOM     18  C   UNL     1       1.862   2.004  19.291  0.00  0.00    +0.000 C 
ATOM     19  C   UNL     1       3.162   2.320  20.026  0.00  0.00    +0.000 C 
ATOM     20  C   UNL     1       2.961   3.244  21.224  0.00  0.00    +0.000 C 
ENDBRANCH  12  15
ENDBRANCH   4   8
BRANCH   1  24
ATOM     21  C   UNL     1      -2.432  15.407  24.625  0.00  0.00    +0.000 C 
ATOM     22  C   UNL     1      -2.348  14.183  23.810  0.00  0.00    +0.000 A 
ATOM     23  C   UNL     1      -1.240  13.521  23.314  0.00  0.00    +0.000 A 
ATOM     24  N   UNL     1      -1.712  12.439  22.597  0.00  0.00    +0.000 N 
ATOM     25  C   UNL     1      -3.086  12.504  22.720  0.00  0.00    +0.000 A 
ATOM     26  N   UNL     1      -3.490  13.529  23.433  0.00  0.00    +0.000 NA
ENDBRANCH   1  24
TORSDOF 3
ENDMDL
MODEL 5
REMARK VINA RESULT:      -7.7      0.970      1.365
REMARK  Name = 
REMARK  4 active torsions:
REMARK  status: ('A' for Active; 'I' for Inactive)
REMARK    1  A    between atoms: C_1  and  C_2
REMARK    2  A    between atoms: N_4  and  C_5
REMARK    3  A    between atoms: C_8  and  C_9
REMARK    4  A    between atoms: N_13  and  C_14
REMARK                            x       y       z     vdW  Elec       q    Type
REMARK                         _______ _______ _______ _____ _____    ______ ____
ROOT
ATOM      1  C   UNL     1       0.339  10.562  21.444  0.00  0.00    +0.000 A 
ATOM      2  C   UNL     1       0.636   9.527  22.344  0.00  0.00    +0.000 A 
ATOM      3  C   UNL     1       1.211   8.327  21.892  0.00  0.00    +0.000 A 
ATOM      4  C   UNL     1       1.505   8.136  20.535  0.00  0.00    +0.000 A 
ATOM      5  C   UNL     1       1.197   9.167  19.644  0.00  0.00    +0.000 A 
ATOM      6  C   UNL     1       0.627  10.358  20.091  0.00  0.00    +0.000 A 
ATOM      7  F   UNL     1       0.381  11.288  19.159  0.00  0.00    +0.000 F 
ENDROOT
BRANCH   4   8
ATOM      8  C   UNL     1       2.070   6.897  20.009  0.00  0.00    +0.000 A 
ATOM      9  C   UNL     1       1.828   5.635  20.513  0.00  0.00    +0.000 A 
ATOM     10  S   UNL     1       2.615   4.459  19.541  0.00  0.00    +0.000 S 
ATOM     11  C   UNL     1       3.273   5.712  18.556  0.00  0.00    +0.000 A 
ATOM     12  N   UNL     1       4.063   5.405  17.499  0.00  0.00    +0.000 N 
ATOM     13  N   UNL     1       2.941   6.926  18.928  0.00  0.00    +0.000 NA
ATOM     14  H   UNL     1       4.274   4.423  17.364  0.00  0.00    +0.000 HD
BRANCH  12  15
ATOM     15  C   UNL     1       5.100   6.348  17.082  0.00  0.00    +0.000 C 
ATOM     16  C   UNL     1       6.460   5.937  17.665  0.00  0.00    +0.000 C 
ATOM     17  C   UNL     1       7.030   4.660  17.048  0.00  0.00    +0.000 C 
ATOM     18  C   UNL     1       7.029   4.676  15.522  0.00  0.00    +0.000 C 
ATOM     19  C   UNL     1       5.715   5.154  14.913  0.00  0.00    +0.000 C 
ATOM     20  C   UNL     1       5.190   6.436  15.554  0.00  0.00    +0.000 C 
ENDBRANCH  12  15
ENDBRANCH   4   8
BRANCH   1  24
ATOM     21  C   UNL     1      -2.506  14.011  23.735  0.00  0.00    +0.000 C 
ATOM     22  C   UNL     1      -1.508  13.291  22.925  0.00  0.00    +0.000 A 
ATOM     23  C   UNL     1      -1.331  11.933  22.736  0.00  0.00    +0.000 A 
ATOM     24  N   UNL     1      -0.240  11.787  21.901  0.00  0.00    +0.000 N 
ATOM     25  C   UNL     1       0.166  13.076  21.620  0.00  0.00    +0.000 A 
ATOM     26  N   UNL     1      -0.567  13.988  22.216  0.00  0.00    +0.000 NA
ENDBRANCH   1  24
TORSDOF 3
ENDMDL
MODEL 6
REMARK VINA RESULT:      -7.5      3.008      9.536
REMARK  Name = 
REMARK  4 active torsions:
REMARK  status: ('A' for Active; 'I' for Inactive)
REMARK    1  A    between atoms: C_1  and  C_2
REMARK    2  A    between atoms: N_4  and  C_5
REMARK    3  A    between atoms: C_8  and  C_9
REMARK    4  A    between atoms: N_13  and  C_14
REMARK                            x       y       z     vdW  Elec       q    Type
REMARK                         _______ _______ _______ _____ _____    ______ ____
ROOT
ATOM      1  C   UNL     1       2.330   7.286  18.975  0.00  0.00    +0.000 A 
ATOM      2  C   UNL     1       2.416   8.209  17.920  0.00  0.00    +0.000 A 
ATOM      3  C   UNL     1       1.873   9.499  18.051  0.00  0.00    +0.000 A 
ATOM      4  C   UNL     1       1.238   9.896  19.234  0.00  0.00    +0.000 A 
ATOM      5  C   UNL     1       1.147   8.969  20.275  0.00  0.00    +0.000 A 
ATOM      6  C   UNL     1       1.685   7.689  20.148  0.00  0.00    +0.000 A 
ATOM      7  F   UNL     1       1.556   6.880  21.207  0.00  0.00    +0.000 F 
ENDROOT
BRANCH   4   8
ATOM      8  C   UNL     1       0.627  11.211  19.409  0.00  0.00    +0.000 A 
ATOM      9  C   UNL     1       0.717  12.255  18.511  0.00  0.00    +0.000 A 
ATOM     10  S   UNL     1      -0.222  13.581  19.064  0.00  0.00    +0.000 S 
ATOM     11  C   UNL     1      -0.631  12.699  20.488  0.00  0.00    +0.000 A 
ATOM     12  N   UNL     1      -1.439  13.253  21.424  0.00  0.00    +0.000 N 
ATOM     13  N   UNL     1      -0.098  11.502  20.556  0.00  0.00    +0.000 NA
ATOM     14  H   UNL     1      -1.734  14.207  21.258  0.00  0.00    +0.000 HD
BRANCH  12  15
ATOM     15  C   UNL     1      -1.282  12.863  22.825  0.00  0.00    +0.000 C 
ATOM     16  C   UNL     1      -1.242  14.109  23.723  0.00  0.00    +0.000 C 
ATOM     17  C   UNL     1      -2.584  14.835  23.821  0.00  0.00    +0.000 C 
ATOM     18  C   UNL     1      -3.748  13.909  24.158  0.00  0.00    +0.000 C 
ATOM     19  C   UNL     1      -3.770  12.625  23.333  0.00  0.00    +0.000 C 
ATOM     20  C   UNL     1      -2.413  11.930  23.273  0.00  0.00    +0.000 C 
ENDBRANCH  12  15
ENDBRANCH   4   8
BRANCH   1  24
ATOM     21  C   UNL     1       3.150   2.468  17.813  0.00  0.00    +0.000 C 
ATOM     22  C   UNL     1       3.228   3.849  18.322  0.00  0.00    +0.000 A 
ATOM     23  C   UNL     1       2.319   4.886  18.218  0.00  0.00    +0.000 A 
ATOM     24  N   UNL     1       2.887   5.976  18.848  0.00  0.00    +0.000 N 
ATOM     25  C   UNL     1       4.105   5.521  19.314  0.00  0.00    +0.000 A 
ATOM     26  N   UNL     1       4.334   4.264  19.014  0.00  0.00    +0.000 NA
ENDBRANCH   1  24
TORSDOF 3
ENDMDL
MODEL 7
REMARK VINA RESULT:      -7.5      3.876      8.752
REMARK  Name = 
REMARK  4 active torsions:
REMARK  status: ('A' for Active; 'I' for Inactive)
REMARK    1  A    between atoms: C_1  and  C_2
REMARK    2  A    between atoms: N_4  and  C_5
REMARK    3  A    between atoms: C_8  and  C_9
REMARK    4  A    between atoms: N_13  and  C_14
REMARK                            x       y       z     vdW  Elec       q    Type
REMARK                         _______ _______ _______ _____ _____    ______ ____
ROOT
ATOM      1  C   UNL     1       2.830   6.554  18.989  0.00  0.00    +0.000 A 
ATOM      2  C   UNL     1       2.930   7.364  17.847  0.00  0.00    +0.000 A 
ATOM      3  C   UNL     1       2.293   8.616  17.797  0.00  0.00    +0.000 A 
ATOM      4  C   UNL     1       1.547   9.087  18.886  0.00  0.00    +0.000 A 
ATOM      5  C   UNL     1       1.443   8.272  20.015  0.00  0.00    +0.000 A 
ATOM      6  C   UNL     1       2.075   7.030  20.066  0.00  0.00    +0.000 A 
ATOM      7  F   UNL     1       1.924   6.330  21.198  0.00  0.00    +0.000 F 
ENDROOT
BRANCH   4   8
ATOM      8  C   UNL     1       0.837  10.363  18.873  0.00  0.00    +0.000 A 
ATOM      9  C   UNL     1       1.373  11.575  19.260  0.00  0.00    +0.000 A 
ATOM     10  S   UNL     1       0.229  12.828  18.999  0.00  0.00    +0.000 S 
ATOM     11  C   UNL     1      -0.919  11.665  18.448  0.00  0.00    +0.000 A 
ATOM     12  N   UNL     1      -2.150  12.062  18.045  0.00  0.00    +0.000 N 
ATOM     13  N   UNL     1      -0.488  10.426  18.466  0.00  0.00    +0.000 NA
ATOM     14  H   UNL     1      -2.359  13.049  18.134  0.00  0.00    +0.000 HD
BRANCH  12  15
ATOM     15  C   UNL     1      -3.283  11.149  18.200  0.00  0.00    +0.000 C 
ATOM     16  C   UNL     1      -4.530  11.726  17.513  0.00  0.00    +0.000 C 
ATOM     17  C   UNL     1      -4.436  11.739  15.988  0.00  0.00    +0.000 C 
ATOM     18  C   UNL     1      -4.012  10.398  15.398  0.00  0.00    +0.000 C 
ATOM     19  C   UNL     1      -2.821   9.763  16.110  0.00  0.00    +0.000 C 
ATOM     20  C   UNL     1      -2.964   9.763  17.630  0.00  0.00    +0.000 C 
ENDBRANCH  12  15
ENDBRANCH   4   8
BRANCH   1  24
ATOM     21  C   UNL     1       3.890   1.647  18.814  0.00  0.00    +0.000 C 
ATOM     22  C   UNL     1       3.927   3.113  18.960  0.00  0.00    +0.000 A 
ATOM     23  C   UNL     1       2.914   4.044  18.827  0.00  0.00    +0.000 A 
ATOM     24  N   UNL     1       3.482   5.283  19.045  0.00  0.00    +0.000 N 
ATOM     25  C   UNL     1       4.810   5.021  19.317  0.00  0.00    +0.000 A 
ATOM     26  N   UNL     1       5.102   3.742  19.271  0.00  0.00    +0.000 NA
ENDBRANCH   1  24
TORSDOF 3
ENDMDL
MODEL 8
REMARK VINA RESULT:      -7.4      4.119      9.405
REMARK  Name = 
REMARK  4 active torsions:
REMARK  status: ('A' for Active; 'I' for Inactive)
REMARK    1  A    between atoms: C_1  and  C_2
REMARK    2  A    between atoms: N_4  and  C_5
REMARK    3  A    between atoms: C_8  and  C_9
REMARK    4  A    between atoms: N_13  and  C_14
REMARK                            x       y       z     vdW  Elec       q    Type
REMARK                         _______ _______ _______ _____ _____    ______ ____
ROOT
ATOM      1  C   UNL     1       2.593   7.110  19.226  0.00  0.00    +0.000 A 
ATOM      2  C   UNL     1       1.854   7.549  20.336  0.00  0.00    +0.000 A 
ATOM      3  C   UNL     1       1.127   8.751  20.283  0.00  0.00    +0.000 A 
ATOM      4  C   UNL     1       1.121   9.537  19.123  0.00  0.00    +0.000 A 
ATOM      5  C   UNL     1       1.867   9.099  18.027  0.00  0.00    +0.000 A 
ATOM      6  C   UNL     1       2.588   7.907  18.078  0.00  0.00    +0.000 A 
ATOM      7  F   UNL     1       3.261   7.569  16.970  0.00  0.00    +0.000 F 
ENDROOT
BRANCH   4   8
ATOM      8  C   UNL     1       0.412  10.810  19.027  0.00  0.00    +0.000 A 
ATOM      9  C   UNL     1       0.999  12.056  19.113  0.00  0.00    +0.000 A 
ATOM     10  S   UNL     1      -0.181  13.275  18.855  0.00  0.00    +0.000 S 
ATOM     11  C   UNL     1      -1.401  12.065  18.710  0.00  0.00    +0.000 A 
ATOM     12  N   UNL     1      -2.687  12.419  18.470  0.00  0.00    +0.000 N 
ATOM     13  N   UNL     1      -0.965  10.836  18.854  0.00  0.00    +0.000 NA
ATOM     14  H   UNL     1      -2.883  13.411  18.433  0.00  0.00    +0.000 HD
BRANCH  12  15
ATOM     15  C   UNL     1      -3.768  11.569  18.968  0.00  0.00    +0.000 C 
ATOM     16  C   UNL     1      -4.742  12.393  19.823  0.00  0.00    +0.000 C 
ATOM     17  C   UNL     1      -5.570  13.392  19.015  0.00  0.00    +0.000 C 
ATOM     18  C   UNL     1      -6.245  12.769  17.796  0.00  0.00    +0.000 C 
ATOM     19  C   UNL     1      -5.320  11.882  16.969  0.00  0.00    +0.000 C 
ATOM     20  C   UNL     1      -4.522  10.895  17.817  0.00  0.00    +0.000 C 
ENDBRANCH  12  15
ENDBRANCH   4   8
BRANCH   1  24
ATOM     21  C   UNL     1       3.924   2.273  19.500  0.00  0.00    +0.000 C 
ATOM     22  C   UNL     1       3.891   3.743  19.395  0.00  0.00    +0.000 A 
ATOM     23  C   UNL     1       2.816   4.612  19.441  0.00  0.00    +0.000 A 
ATOM     24  N   UNL     1       3.328   5.884  19.275  0.00  0.00    +0.000 N 
ATOM     25  C   UNL     1       4.692   5.705  19.157  0.00  0.00    +0.000 A 
ATOM     26  N   UNL     1       5.053   4.445  19.222  0.00  0.00    +0.000 NA
ENDBRANCH   1  24
TORSDOF 3
ENDMDL
MODEL 9
REMARK VINA RESULT:      -7.4      1.940      2.334
REMARK  Name = 
REMARK  4 active torsions:
REMARK  status: ('A' for Active; 'I' for Inactive)
REMARK    1  A    between atoms: C_1  and  C_2
REMARK    2  A    between atoms: N_4  and  C_5
REMARK    3  A    between atoms: C_8  and  C_9
REMARK    4  A    between atoms: N_13  and  C_14
REMARK                            x       y       z     vdW  Elec       q    Type
REMARK                         _______ _______ _______ _____ _____    ______ ____
ROOT
ATOM      1  C   UNL     1       0.558  10.071  20.082  0.00  0.00    +0.000 A 
ATOM      2  C   UNL     1       0.553   9.185  21.171  0.00  0.00    +0.000 A 
ATOM      3  C   UNL     1       1.215   7.947  21.090  0.00  0.00    +0.000 A 
ATOM      4  C   UNL     1       1.895   7.569  19.925  0.00  0.00    +0.000 A 
ATOM      5  C   UNL     1       1.886   8.451  18.843  0.00  0.00    +0.000 A 
ATOM      6  C   UNL     1       1.231   9.680  18.921  0.00  0.00    +0.000 A 
ATOM      7  F   UNL     1       1.291  10.458  17.833  0.00  0.00    +0.000 F 
ENDROOT
BRANCH   4   8
ATOM      8  C   UNL     1       2.568   6.281  19.777  0.00  0.00    +0.000 A 
ATOM      9  C   UNL     1       2.232   5.126  20.454  0.00  0.00    +0.000 A 
ATOM     10  S   UNL     1       3.216   3.828  19.913  0.00  0.00    +0.000 S 
ATOM     11  C   UNL     1       4.060   4.904  18.863  0.00  0.00    +0.000 A 
ATOM     12  N   UNL     1       5.060   4.442  18.073  0.00  0.00    +0.000 N 
ATOM     13  N   UNL     1       3.649   6.149  18.916  0.00  0.00    +0.000 NA
ATOM     14  H   UNL     1       5.301   3.464  18.177  0.00  0.00    +0.000 HD
BRANCH  12  15
ATOM     15  C   UNL     1       6.156   5.339  17.707  0.00  0.00    +0.000 C 
ATOM     16  C   UNL     1       7.292   4.547  17.043  0.00  0.00    +0.000 C 
ATOM     17  C   UNL     1       6.938   4.016  15.655  0.00  0.00    +0.000 C 
ATOM     18  C   UNL     1       6.352   5.081  14.733  0.00  0.00    +0.000 C 
ATOM     19  C   UNL     1       5.272   5.935  15.390  0.00  0.00    +0.000 C 
ATOM     20  C   UNL     1       5.675   6.451  16.769  0.00  0.00    +0.000 C 
ENDBRANCH  12  15
ENDBRANCH   4   8
BRANCH   1  24
ATOM     21  C   UNL     1      -0.559  14.915  20.809  0.00  0.00    +0.000 C 
ATOM     22  C   UNL     1      -0.577  13.476  20.491  0.00  0.00    +0.000 A 
ATOM     23  C   UNL     1       0.417  12.525  20.626  0.00  0.00    +0.000 A 
ATOM     24  N   UNL     1      -0.108  11.334  20.163  0.00  0.00    +0.000 N 
ATOM     25  C   UNL     1      -1.403  11.637  19.792  0.00  0.00    +0.000 A 
ATOM     26  N   UNL     1      -1.707  12.901  19.973  0.00  0.00    +0.000 NA
ENDBRANCH   1  24
TORSDOF 3
ENDMDL
