MODEL 1
REMARK VINA RESULT:      -7.8      0.000      0.000
REMARK  Name = 
REMARK  6 active torsions:
REMARK  status: ('A' for Active; 'I' for Inactive)
REMARK    1  A    between atoms: N_1  and  C_2
REMARK    2  A    between atoms: C_10  and  N_11
REMARK    3  A    between atoms: C_10  and  C_12
REMARK    4  A    between atoms: N_14  and  C_15
REMARK    5  A    between atoms: C_15  and  C_16
REMARK    6  A    between atoms: C_15  and  C_23
REMARK                            x       y       z     vdW  Elec       q    Type
REMARK                         _______ _______ _______ _____ _____    ______ ____
ROOT
ATOM      1  C   UNL     1      -0.248  10.515  21.154  0.00  0.00    +0.000 A 
ATOM      2  N   UNL     1       0.126  10.577  22.438  0.00  0.00    +0.000 NA
ATOM      3  C   UNL     1       0.991   9.638  22.836  0.00  0.00    +0.000 A 
ATOM      4  N   UNL     1       1.515   8.661  22.077  0.00  0.00    +0.000 NA
ATOM      5  C   UNL     1       1.156   8.617  20.774  0.00  0.00    +0.000 A 
ATOM      6  N   UNL     1       1.624   7.555  20.015  0.00  0.00    +0.000 N 
ATOM      7  C   UNL     1       1.946   6.303  20.684  0.00  0.00    +0.000 C 
ATOM      8  C   UNL     1       1.448   5.189  19.753  0.00  0.00    +0.000 C 
ATOM      9  C   UNL     1       2.132   5.272  18.366  0.00  0.00    +0.000 C 
ATOM     10  C   UNL     1       2.048   6.709  17.799  0.00  0.00    +0.000 C 
ATOM     11  C   UNL     1       2.417   7.797  18.813  0.00  0.00    +0.000 C 
ATOM     12  C   UNL     1       0.247   9.559  20.265  0.00  0.00    +0.000 A 
ATOM     13 CL   UNL     1      -0.406   9.474  18.660  0.00  0.00    +0.000 Cl
ENDROOT
BRANCH   9  14
ATOM     14  C   UNL     1       3.594   4.691  18.469  0.00  0.00    +0.000 C 
ATOM     15  O   UNL     1       3.948   3.846  19.280  0.00  0.00    +0.000 OA
ATOM     16  N   UNL     1       4.469   5.260  17.546  0.00  0.00    +0.000 N 
ATOM     17  H   UNL     1       4.030   5.703  16.755  0.00  0.00    +0.000 HD
BRANCH  16  18
ATOM     18  C   UNL     1       5.858   4.789  17.338  0.00  0.00    +0.000 C 
BRANCH  18  19
ATOM     19  C   UNL     1       6.877   5.901  17.635  0.00  0.00    +0.000 A 
ATOM     20  C   UNL     1       7.741   5.833  18.746  0.00  0.00    +0.000 A 
ATOM     21  C   UNL     1       8.456   6.955  19.171  0.00  0.00    +0.000 A 
ATOM     22  C   UNL     1       8.330   8.158  18.486  0.00  0.00    +0.000 A 
ATOM     23 CL   UNL     1       9.108   9.567  19.091  0.00  0.00    +0.000 Cl
ATOM     24  C   UNL     1       7.541   8.231  17.341  0.00  0.00    +0.000 A 
ATOM     25  C   UNL     1       6.820   7.109  16.913  0.00  0.00    +0.000 A 
ENDBRANCH  18  19
BRANCH  18  26
ATOM     26  C   UNL     1       6.128   4.220  15.905  0.00  0.00    +0.000 C 
ATOM     27  F   UNL     1       5.411   4.881  14.963  0.00  0.00    +0.000 F 
ATOM     28  F   UNL     1       7.429   4.339  15.534  0.00  0.00    +0.000 F 
ATOM     29  F   UNL     1       5.812   2.908  15.822  0.00  0.00    +0.000 F 
ENDBRANCH  18  26
ENDBRANCH  16  18
ENDBRANCH   9  14
BRANCH   1  30
ATOM     30  N   UNL     1      -1.156  11.503  20.754  0.00  0.00    +0.000 N 
ATOM     31  H   UNL     1      -0.834  11.899  19.877  0.00  0.00    +0.000 HD
ATOM     32  H   UNL     1      -1.297  12.200  21.480  0.00  0.00    +0.000 HD
ENDBRANCH   1  30
BRANCH   9  33
ATOM     33  N   UNL     1       1.401   4.396  17.399  0.00  0.00    +0.000 NA
ATOM     34  H   UNL     1       1.827   3.477  17.352  0.00  0.00    +0.000 HD
ATOM     35  H   UNL     1       1.524   4.784  16.458  0.00  0.00    +0.000 HD
ENDBRANCH   9  33
TORSDOF 6
ENDMDL
MODEL 2
REMARK VINA RESULT:      -7.4      0.915      1.213
REMARK  Name = 
REMARK  6 active torsions:
REMARK  status: ('A' for Active; 'I' for Inactive)
REMARK    1  A    between atoms: N_1  and  C_2
REMARK    2  A    between atoms: C_10  and  N_11
REMARK    3  A    between atoms: C_10  and  C_12
REMARK    4  A    between atoms: N_14  and  C_15
REMARK    5  A    between atoms: C_15  and  C_16
REMARK    6  A    between atoms: C_15  and  C_23
REMARK                            x       y       z     vdW  Elec       q    Type
REMARK                         _______ _______ _______ _____ _____    ______ ____
ROOT
ATOM      1  C   UNL     1      -0.695  11.362  19.773  0.00  0.00    +0.000 A 
ATOM      2  N   UNL     1      -0.327  11.813  20.979  0.00  0.00    +0.000 NA
ATOM      3  C   UNL     1       0.650  11.128  21.580  0.00  0.00    +0.000 A 
ATOM      4  N   UNL     1       1.289  10.052  21.091  0.00  0.00    +0.000 NA
ATOM      5  C   UNL     1       0.934   9.615  19.862  0.00  0.00    +0.000 A 
ATOM      6  N   UNL     1       1.529   8.451  19.398  0.00  0.00    +0.000 N 
ATOM      7  C   UNL     1       2.007   7.475  20.366  0.00  0.00    +0.000 C 
ATOM      8  C   UNL     1       1.650   6.098  19.786  0.00  0.00    +0.000 C 
ATOM      9  C   UNL     1       2.313   5.885  18.403  0.00  0.00    +0.000 C 
ATOM     10  C   UNL     1       2.048   7.095  17.475  0.00  0.00    +0.000 C 
ATOM     11  C   UNL     1       2.281   8.452  18.146  0.00  0.00    +0.000 C 
ATOM     12  C   UNL     1      -0.088  10.269  19.154  0.00  0.00    +0.000 A 
ATOM     13 CL   UNL     1      -0.731   9.676  17.656  0.00  0.00    +0.000 Cl
ENDROOT
BRANCH   9  14
ATOM     14  C   UNL     1       3.836   5.533  18.603  0.00  0.00    +0.000 C 
ATOM     15  O   UNL     1       4.388   5.434  19.691  0.00  0.00    +0.000 OA
ATOM     16  N   UNL     1       4.517   5.366  17.398  0.00  0.00    +0.000 N 
ATOM     17  H   UNL     1       3.933   5.175  16.599  0.00  0.00    +0.000 HD
BRANCH  16  18
ATOM     18  C   UNL     1       5.917   4.891  17.308  0.00  0.00    +0.000 C 
BRANCH  18  19
ATOM     19  C   UNL     1       6.912   6.021  17.619  0.00  0.00    +0.000 A 
ATOM     20  C   UNL     1       7.803   5.941  18.707  0.00  0.00    +0.000 A 
ATOM     21  C   UNL     1       8.497   7.069  19.153  0.00  0.00    +0.000 A 
ATOM     22  C   UNL     1       8.323   8.289  18.510  0.00  0.00    +0.000 A 
ATOM     23 CL   UNL     1       9.076   9.699  19.144  0.00  0.00    +0.000 Cl
ATOM     24  C   UNL     1       7.506   8.377  17.386  0.00  0.00    +0.000 A 
ATOM     25  C   UNL     1       6.807   7.249  16.938  0.00  0.00    +0.000 A 
ENDBRANCH  18  19
BRANCH  18  26
ATOM     26  C   UNL     1       6.285   4.254  15.927  0.00  0.00    +0.000 C 
ATOM     27  F   UNL     1       5.831   2.980  15.829  0.00  0.00    +0.000 F 
ATOM     28  F   UNL     1       5.738   4.925  14.881  0.00  0.00    +0.000 F 
ATOM     29  F   UNL     1       7.622   4.234  15.728  0.00  0.00    +0.000 F 
ENDBRANCH  18  26
ENDBRANCH  16  18
ENDBRANCH   9  14
BRANCH   1  30
ATOM     30  N   UNL     1      -1.722  12.090  19.157  0.00  0.00    +0.000 N 
ATOM     31  H   UNL     1      -2.366  11.434  18.727  0.00  0.00    +0.000 HD
ATOM     32  H   UNL     1      -1.356  12.778  18.506  0.00  0.00    +0.000 HD
ENDBRANCH   1  30
BRANCH   9  33
ATOM     33  N   UNL     1       1.694   4.699  17.734  0.00  0.00    +0.000 NA
ATOM     34  H   UNL     1       0.687   4.708  17.844  0.00  0.00    +0.000 HD
ATOM     35  H   UNL     1       2.000   3.855  18.230  0.00  0.00    +0.000 HD
ENDBRANCH   9  33
TORSDOF 6
ENDMDL
MODEL 3
REMARK VINA RESULT:      -6.9      3.567      5.051
REMARK  Name = 
REMARK  6 active torsions:
REMARK  status: ('A' for Active; 'I' for Inactive)
REMARK    1  A    between atoms: N_1  and  C_2
REMARK    2  A    between atoms: C_10  and  N_11
REMARK    3  A    between atoms: C_10  and  C_12
REMARK    4  A    between atoms: N_14  and  C_15
REMARK    5  A    between atoms: C_15  and  C_16
REMARK    6  A    between atoms: C_15  and  C_23
REMARK                            x       y       z     vdW  Elec       q    Type
REMARK                         _______ _______ _______ _____ _____    ______ ____
ROOT
ATOM      1  C   UNL     1      -2.018  15.157  20.596  0.00  0.00    +0.000 A 
ATOM      2  N   UNL     1      -2.819  14.938  21.647  0.00  0.00    +0.000 NA
ATOM      3  C   UNL     1      -2.741  13.719  22.190  0.00  0.00    +0.000 A 
ATOM      4  N   UNL     1      -1.942  12.716  21.790  0.00  0.00    +0.000 NA
ATOM      5  C   UNL     1      -1.116  12.949  20.745  0.00  0.00    +0.000 A 
ATOM      6  N   UNL     1      -0.360  11.885  20.276  0.00  0.00    +0.000 N 
ATOM      7  C   UNL     1      -0.856  10.531  20.474  0.00  0.00    +0.000 C 
ATOM      8  C   UNL     1      -0.537   9.773  19.177  0.00  0.00    +0.000 C 
ATOM      9  C   UNL     1       0.985   9.773  18.890  0.00  0.00    +0.000 C 
ATOM     10  C   UNL     1       1.562  11.206  18.990  0.00  0.00    +0.000 C 
ATOM     11  C   UNL     1       1.097  11.975  20.231  0.00  0.00    +0.000 C 
ATOM     12  C   UNL     1      -1.130  14.199  20.106  0.00  0.00    +0.000 A 
ATOM     13 CL   UNL     1      -0.240  14.531  18.655  0.00  0.00    +0.000 Cl
ENDROOT
BRANCH   9  14
ATOM     14  C   UNL     1       1.693   8.715  19.820  0.00  0.00    +0.000 C 
ATOM     15  O   UNL     1       1.792   8.817  21.035  0.00  0.00    +0.000 OA
ATOM     16  N   UNL     1       2.227   7.641  19.110  0.00  0.00    +0.000 N 
ATOM     17  H   UNL     1       1.843   7.503  18.189  0.00  0.00    +0.000 HD
BRANCH  16  18
ATOM     18  C   UNL     1       2.814   6.444  19.756  0.00  0.00    +0.000 C 
BRANCH  18  19
ATOM     19  C   UNL     1       3.818   5.743  18.827  0.00  0.00    +0.000 A 
ATOM     20  C   UNL     1       4.917   5.023  19.337  0.00  0.00    +0.000 A 
ATOM     21  C   UNL     1       5.970   4.633  18.506  0.00  0.00    +0.000 A 
ATOM     22  C   UNL     1       5.935   4.943  17.152  0.00  0.00    +0.000 A 
ATOM     23 CL   UNL     1       7.293   4.578  16.161  0.00  0.00    +0.000 Cl
ATOM     24  C   UNL     1       4.826   5.588  16.610  0.00  0.00    +0.000 A 
ATOM     25  C   UNL     1       3.770   5.983  17.440  0.00  0.00    +0.000 A 
ENDBRANCH  18  19
BRANCH  18  26
ATOM     26  C   UNL     1       1.753   5.400  20.241  0.00  0.00    +0.000 C 
ATOM     27  F   UNL     1       1.326   4.613  19.222  0.00  0.00    +0.000 F 
ATOM     28  F   UNL     1       2.247   4.555  21.182  0.00  0.00    +0.000 F 
ATOM     29  F   UNL     1       0.671   6.004  20.781  0.00  0.00    +0.000 F 
ENDBRANCH  18  26
ENDBRANCH  16  18
ENDBRANCH   9  14
BRANCH   1  30
ATOM     30  N   UNL     1      -2.114  16.438  20.037  0.00  0.00    +0.000 N 
ATOM     31  H   UNL     1      -2.895  16.920  20.470  0.00  0.00    +0.000 HD
ATOM     32  H   UNL     1      -2.178  16.402  19.024  0.00  0.00    +0.000 HD
ENDBRANCH   1  30
BRANCH   9  33
ATOM     33  N   UNL     1       1.225   9.321  17.485  0.00  0.00    +0.000 NA
ATOM     34  H   UNL     1       0.719   8.465  17.290  0.00  0.00    +0.000 HD
ATOM     35  H   UNL     1       2.213   9.061  17.395  0.00  0.00    +0.000 HD
ENDBRANCH   9  33
TORSDOF 6
ENDMDL
MODEL 4
REMARK VINA RESULT:      -6.6      3.552      4.996
REMARK  Name = 
REMARK  6 active torsions:
REMARK  status: ('A' for Active; 'I' for Inactive)
REMARK    1  A    between atoms: N_1  and  C_2
REMARK    2  A    between atoms: C_10  and  N_11
REMARK    3  A    between atoms: C_10  and  C_12
REMARK    4  A    between atoms: N_14  and  C_15
REMARK    5  A    between atoms: C_15  and  C_16
REMARK    6  A    between atoms: C_15  and  C_23
REMARK                            x       y       z     vdW  Elec       q    Type
REMARK                         _______ _______ _______ _____ _____    ______ ____
ROOT
ATOM      1  C   UNL     1      -1.400  15.335  21.797  0.00  0.00    +0.000 A 
ATOM      2  N   UNL     1      -1.877  15.134  23.031  0.00  0.00    +0.000 NA
ATOM      3  C   UNL     1      -1.707  13.903  23.525  0.00  0.00    +0.000 A 
ATOM      4  N   UNL     1      -1.107  12.872  22.909  0.00  0.00    +0.000 NA
ATOM      5  C   UNL     1      -0.602  13.085  21.672  0.00  0.00    +0.000 A 
ATOM      6  N   UNL     1      -0.066  11.997  21.002  0.00  0.00    +0.000 N 
ATOM      7  C   UNL     1      -0.550  10.663  21.327  0.00  0.00    +0.000 C 
ATOM      8  C   UNL     1      -0.652   9.914  19.991  0.00  0.00    +0.000 C 
ATOM      9  C   UNL     1       0.723   9.850  19.281  0.00  0.00    +0.000 C 
ATOM     10  C   UNL     1       1.373  11.253  19.217  0.00  0.00    +0.000 C 
ATOM     11  C   UNL     1       1.321  12.020  20.543  0.00  0.00    +0.000 C 
ATOM     12  C   UNL     1      -0.737  14.346  21.069  0.00  0.00    +0.000 A 
ATOM     13 CL   UNL     1      -0.283  14.662  19.425  0.00  0.00    +0.000 Cl
ENDROOT
BRANCH   9  14
ATOM     14  C   UNL     1       1.613   8.744  19.965  0.00  0.00    +0.000 C 
ATOM     15  O   UNL     1       1.863   8.698  21.162  0.00  0.00    +0.000 OA
ATOM     16  N   UNL     1       2.119   7.817  19.056  0.00  0.00    +0.000 N 
ATOM     17  H   UNL     1       1.627   7.765  18.178  0.00  0.00    +0.000 HD
BRANCH  16  18
ATOM     18  C   UNL     1       2.862   6.599  19.457  0.00  0.00    +0.000 C 
BRANCH  18  19
ATOM     19  C   UNL     1       3.744   6.079  18.311  0.00  0.00    +0.000 A 
ATOM     20  C   UNL     1       4.455   4.868  18.417  0.00  0.00    +0.000 A 
ATOM     21  C   UNL     1       5.462   4.542  17.506  0.00  0.00    +0.000 A 
ATOM     22  C   UNL     1       5.766   5.413  16.467  0.00  0.00    +0.000 A 
ATOM     23 CL   UNL     1       7.094   5.070  15.429  0.00  0.00    +0.000 Cl
ATOM     24  C   UNL     1       5.027   6.582  16.296  0.00  0.00    +0.000 A 
ATOM     25  C   UNL     1       4.018   6.913  17.209  0.00  0.00    +0.000 A 
ENDBRANCH  18  19
BRANCH  18  26
ATOM     26  C   UNL     1       1.947   5.435  19.964  0.00  0.00    +0.000 C 
ATOM     27  F   UNL     1       0.920   5.900  20.718  0.00  0.00    +0.000 F 
ATOM     28  F   UNL     1       1.377   4.740  18.946  0.00  0.00    +0.000 F 
ATOM     29  F   UNL     1       2.640   4.546  20.711  0.00  0.00    +0.000 F 
ENDBRANCH  18  26
ENDBRANCH  16  18
ENDBRANCH   9  14
BRANCH   1  30
ATOM     30  N   UNL     1      -1.588  16.629  21.293  0.00  0.00    +0.000 N 
ATOM     31  H   UNL     1      -1.301  17.294  22.003  0.00  0.00    +0.000 HD
ATOM     32  H   UNL     1      -2.541  16.772  20.973  0.00  0.00    +0.000 HD
ENDBRANCH   1  30
BRANCH   9  33
ATOM     33  N   UNL     1       0.529   9.413  17.864  0.00  0.00    +0.000 NA
ATOM     34  H   UNL     1       0.387  10.212  17.256  0.00  0.00    +0.000 HD
ATOM     35  H   UNL     1      -0.351   8.888  17.807  0.00  0.00    +0.000 HD
ENDBRANCH   9  33
TORSDOF 6
ENDMDL
MODEL 5
REMARK VINA RESULT:      -6.4      7.945     11.231
REMARK  Name = 
REMARK  6 active torsions:
REMARK  status: ('A' for Active; 'I' for Inactive)
REMARK    1  A    between atoms: N_1  and  C_2
REMARK    2  A    between atoms: C_10  and  N_11
REMARK    3  A    between atoms: C_10  and  C_12
REMARK    4  A    between atoms: N_14  and  C_15
REMARK    5  A    between atoms: C_15  and  C_16
REMARK    6  A    between atoms: C_15  and  C_23
REMARK                            x       y       z     vdW  Elec       q    Type
REMARK                         _______ _______ _______ _____ _____    ______ ____
ROOT
ATOM      1  C   UNL     1      11.311  12.431  18.336  0.00  0.00    +0.000 A 
ATOM      2  N   UNL     1      11.355  11.434  19.229  0.00  0.00    +0.000 NA
ATOM      3  C   UNL     1      10.398  11.449  20.162  0.00  0.00    +0.000 A 
ATOM      4  N   UNL     1       9.410  12.352  20.279  0.00  0.00    +0.000 NA
ATOM      5  C   UNL     1       9.353  13.343  19.360  0.00  0.00    +0.000 A 
ATOM      6  N   UNL     1       8.390  14.325  19.536  0.00  0.00    +0.000 N 
ATOM      7  C   UNL     1       7.910  14.604  20.881  0.00  0.00    +0.000 C 
ATOM      8  C   UNL     1       7.761  16.130  20.967  0.00  0.00    +0.000 C 
ATOM      9  C   UNL     1       6.769  16.656  19.900  0.00  0.00    +0.000 C 
ATOM     10  C   UNL     1       7.118  16.092  18.502  0.00  0.00    +0.000 C 
ATOM     11  C   UNL     1       7.400  14.586  18.494  0.00  0.00    +0.000 C 
ATOM     12  C   UNL     1      10.319  13.413  18.344  0.00  0.00    +0.000 A 
ATOM     13 CL   UNL     1      10.431  14.741  17.233  0.00  0.00    +0.000 Cl
ENDROOT
BRANCH   9  14
ATOM     14  C   UNL     1       5.293  16.370  20.373  0.00  0.00    +0.000 C 
ATOM     15  O   UNL     1       4.916  16.422  21.536  0.00  0.00    +0.000 OA
ATOM     16  N   UNL     1       4.445  16.021  19.324  0.00  0.00    +0.000 N 
ATOM     17  H   UNL     1       4.763  16.294  18.407  0.00  0.00    +0.000 HD
BRANCH  16  18
ATOM     18  C   UNL     1       2.982  15.845  19.478  0.00  0.00    +0.000 C 
BRANCH  18  19
ATOM     19  C   UNL     1       2.590  14.360  19.429  0.00  0.00    +0.000 A 
ATOM     20  C   UNL     1       2.936  13.541  18.336  0.00  0.00    +0.000 A 
ATOM     21  C   UNL     1       2.345  12.287  18.162  0.00  0.00    +0.000 A 
ATOM     22  C   UNL     1       1.412  11.826  19.083  0.00  0.00    +0.000 A 
ATOM     23 CL   UNL     1       0.592  10.342  18.793  0.00  0.00    +0.000 Cl
ATOM     24  C   UNL     1       1.109  12.584  20.211  0.00  0.00    +0.000 A 
ATOM     25  C   UNL     1       1.697  13.843  20.388  0.00  0.00    +0.000 A 
ENDBRANCH  18  19
BRANCH  18  26
ATOM     26  C   UNL     1       2.133  16.632  18.424  0.00  0.00    +0.000 C 
ATOM     27  F   UNL     1       0.899  16.090  18.274  0.00  0.00    +0.000 F 
ATOM     28  F   UNL     1       1.930  17.926  18.780  0.00  0.00    +0.000 F 
ATOM     29  F   UNL     1       2.731  16.644  17.211  0.00  0.00    +0.000 F 
ENDBRANCH  18  26
ENDBRANCH  16  18
ENDBRANCH   9  14
BRANCH   1  30
ATOM     30  N   UNL     1      12.322  12.403  17.367  0.00  0.00    +0.000 N 
ATOM     31  H   UNL     1      11.987  11.873  16.569  0.00  0.00    +0.000 HD
ATOM     32  H   UNL     1      13.195  12.047  17.746  0.00  0.00    +0.000 HD
ENDBRANCH   1  30
BRANCH   9  33
ATOM     33  N   UNL     1       6.894  18.142  19.797  0.00  0.00    +0.000 NA
ATOM     34  H   UNL     1       7.269  18.411  18.894  0.00  0.00    +0.000 HD
ATOM     35  H   UNL     1       7.602  18.453  20.471  0.00  0.00    +0.000 HD
ENDBRANCH   9  33
TORSDOF 6
ENDMDL
MODEL 6
REMARK VINA RESULT:      -6.3      5.696      8.301
REMARK  Name = 
REMARK  6 active torsions:
REMARK  status: ('A' for Active; 'I' for Inactive)
REMARK    1  A    between atoms: N_1  and  C_2
REMARK    2  A    between atoms: C_10  and  N_11
REMARK    3  A    between atoms: C_10  and  C_12
REMARK    4  A    between atoms: N_14  and  C_15
REMARK    5  A    between atoms: C_15  and  C_16
REMARK    6  A    between atoms: C_15  and  C_23
REMARK                            x       y       z     vdW  Elec       q    Type
REMARK                         _______ _______ _______ _____ _____    ______ ____
ROOT
ATOM      1  C   UNL     1      -5.149  16.933  22.371  0.00  0.00    +0.000 A 
ATOM      2  N   UNL     1      -5.602  16.338  23.482  0.00  0.00    +0.000 NA
ATOM      3  C   UNL     1      -5.031  15.169  23.787  0.00  0.00    +0.000 A 
ATOM      4  N   UNL     1      -4.058  14.551  23.096  0.00  0.00    +0.000 NA
ATOM      5  C   UNL     1      -3.584  15.167  21.990  0.00  0.00    +0.000 A 
ATOM      6  N   UNL     1      -2.646  14.486  21.229  0.00  0.00    +0.000 N 
ATOM      7  C   UNL     1      -2.635  13.031  21.266  0.00  0.00    +0.000 C 
ATOM      8  C   UNL     1      -2.370  12.576  19.823  0.00  0.00    +0.000 C 
ATOM      9  C   UNL     1      -1.021  13.131  19.302  0.00  0.00    +0.000 C 
ATOM     10  C   UNL     1      -0.920  14.653  19.555  0.00  0.00    +0.000 C 
ATOM     11  C   UNL     1      -1.335  15.075  20.969  0.00  0.00    +0.000 C 
ATOM     12  C   UNL     1      -4.126  16.398  21.587  0.00  0.00    +0.000 A 
ATOM     13 CL   UNL     1      -3.709  17.173  20.092  0.00  0.00    +0.000 Cl
ENDROOT
BRANCH   9  14
ATOM     14  C   UNL     1       0.162  12.284  19.909  0.00  0.00    +0.000 C 
ATOM     15  O   UNL     1       1.304  12.697  20.058  0.00  0.00    +0.000 OA
ATOM     16  N   UNL     1      -0.218  10.986  20.246  0.00  0.00    +0.000 N 
ATOM     17  H   UNL     1      -1.208  10.847  20.366  0.00  0.00    +0.000 HD
BRANCH  16  18
ATOM     18  C   UNL     1       0.664  10.037  20.966  0.00  0.00    +0.000 C 
BRANCH  18  19
ATOM     19  C   UNL     1       1.208   8.954  20.021  0.00  0.00    +0.000 A 
ATOM     20  C   UNL     1       1.686   7.721  20.509  0.00  0.00    +0.000 A 
ATOM     21  C   UNL     1       2.430   6.865  19.694  0.00  0.00    +0.000 A 
ATOM     22  C   UNL     1       2.696   7.219  18.377  0.00  0.00    +0.000 A 
ATOM     23 CL   UNL     1       3.723   6.225  17.420  0.00  0.00    +0.000 Cl
ATOM     24  C   UNL     1       2.172   8.396  17.849  0.00  0.00    +0.000 A 
ATOM     25  C   UNL     1       1.427   9.258  18.664  0.00  0.00    +0.000 A 
ENDBRANCH  18  19
BRANCH  18  26
ATOM     26  C   UNL     1      -0.015   9.347  22.196  0.00  0.00    +0.000 C 
ATOM     27  F   UNL     1      -0.714   8.245  21.826  0.00  0.00    +0.000 F 
ATOM     28  F   UNL     1       0.886   8.923  23.119  0.00  0.00    +0.000 F 
ATOM     29  F   UNL     1      -0.866  10.185  22.830  0.00  0.00    +0.000 F 
ENDBRANCH  18  26
ENDBRANCH  16  18
ENDBRANCH   9  14
BRANCH   1  30
ATOM     30  N   UNL     1      -5.759  18.156  22.065  0.00  0.00    +0.000 N 
ATOM     31  H   UNL     1      -6.761  18.055  22.188  0.00  0.00    +0.000 HD
ATOM     32  H   UNL     1      -5.502  18.483  21.138  0.00  0.00    +0.000 HD
ENDBRANCH   1  30
BRANCH   9  33
ATOM     33  N   UNL     1      -0.949  12.945  17.820  0.00  0.00    +0.000 NA
ATOM     34  H   UNL     1      -1.410  13.708  17.338  0.00  0.00    +0.000 HD
ATOM     35  H   UNL     1      -1.499  12.116  17.572  0.00  0.00    +0.000 HD
ENDBRANCH   9  33
TORSDOF 6
ENDMDL
MODEL 7
REMARK VINA RESULT:      -6.2      6.967     10.308
REMARK  Name = 
REMARK  6 active torsions:
REMARK  status: ('A' for Active; 'I' for Inactive)
REMARK    1  A    between atoms: N_1  and  C_2
REMARK    2  A    between atoms: C_10  and  N_11
REMARK    3  A    between atoms: C_10  and  C_12
REMARK    4  A    between atoms: N_14  and  C_15
REMARK    5  A    between atoms: C_15  and  C_16
REMARK    6  A    between atoms: C_15  and  C_23
REMARK                            x       y       z     vdW  Elec       q    Type
REMARK                         _______ _______ _______ _____ _____    ______ ____
ROOT
ATOM      1  C   UNL     1       6.024  15.631  20.261  0.00  0.00    +0.000 A 
ATOM      2  N   UNL     1       6.657  15.691  19.082  0.00  0.00    +0.000 NA
ATOM      3  C   UNL     1       5.980  15.205  18.037  0.00  0.00    +0.000 A 
ATOM      4  N   UNL     1       4.745  14.677  18.060  0.00  0.00    +0.000 NA
ATOM      5  C   UNL     1       4.099  14.642  19.247  0.00  0.00    +0.000 A 
ATOM      6  N   UNL     1       2.863  14.015  19.286  0.00  0.00    +0.000 N 
ATOM      7  C   UNL     1       2.575  12.971  18.314  0.00  0.00    +0.000 C 
ATOM      8  C   UNL     1       1.812  11.880  19.080  0.00  0.00    +0.000 C 
ATOM      9  C   UNL     1       0.508  12.441  19.699  0.00  0.00    +0.000 C 
ATOM     10  C   UNL     1       0.790  13.743  20.486  0.00  0.00    +0.000 C 
ATOM     11  C   UNL     1       1.678  14.741  19.734  0.00  0.00    +0.000 C 
ATOM     12  C   UNL     1       4.731  15.126  20.404  0.00  0.00    +0.000 A 
ATOM     13 CL   UNL     1       4.056  14.960  21.993  0.00  0.00    +0.000 Cl
ENDROOT
BRANCH   9  14
ATOM     14  C   UNL     1      -0.587  12.579  18.574  0.00  0.00    +0.000 C 
ATOM     15  O   UNL     1      -0.697  13.542  17.827  0.00  0.00    +0.000 OA
ATOM     16  N   UNL     1      -1.453  11.488  18.525  0.00  0.00    +0.000 N 
ATOM     17  H   UNL     1      -1.107  10.646  18.957  0.00  0.00    +0.000 HD
BRANCH  16  18
ATOM     18  C   UNL     1      -2.475  11.302  17.469  0.00  0.00    +0.000 C 
BRANCH  18  19
ATOM     19  C   UNL     1      -3.880  11.659  17.982  0.00  0.00    +0.000 A 
ATOM     20  C   UNL     1      -4.972  11.804  17.104  0.00  0.00    +0.000 A 
ATOM     21  C   UNL     1      -6.163  12.397  17.529  0.00  0.00    +0.000 A 
ATOM     22  C   UNL     1      -6.288  12.839  18.841  0.00  0.00    +0.000 A 
ATOM     23 CL   UNL     1      -7.706  13.685  19.323  0.00  0.00    +0.000 Cl
ATOM     24  C   UNL     1      -5.250  12.638  19.748  0.00  0.00    +0.000 A 
ATOM     25  C   UNL     1      -4.053  12.047  19.325  0.00  0.00    +0.000 A 
ENDBRANCH  18  19
BRANCH  18  26
ATOM     26  C   UNL     1      -2.506   9.861  16.860  0.00  0.00    +0.000 C 
ATOM     27  F   UNL     1      -3.405   9.070  17.496  0.00  0.00    +0.000 F 
ATOM     28  F   UNL     1      -2.867   9.856  15.551  0.00  0.00    +0.000 F 
ATOM     29  F   UNL     1      -1.297   9.261  16.939  0.00  0.00    +0.000 F 
ENDBRANCH  18  26
ENDBRANCH  16  18
ENDBRANCH   9  14
BRANCH   1  30
ATOM     30  N   UNL     1       6.748  16.142  21.346  0.00  0.00    +0.000 N 
ATOM     31  H   UNL     1       6.776  17.153  21.266  0.00  0.00    +0.000 HD
ATOM     32  H   UNL     1       7.669  15.721  21.416  0.00  0.00    +0.000 HD
ENDBRANCH   1  30
BRANCH   9  33
ATOM     33  N   UNL     1      -0.032  11.461  20.691  0.00  0.00    +0.000 NA
ATOM     34  H   UNL     1      -0.788  10.920  20.288  0.00  0.00    +0.000 HD
ATOM     35  H   UNL     1      -0.470  11.985  21.456  0.00  0.00    +0.000 HD
ENDBRANCH   9  33
TORSDOF 6
ENDMDL
MODEL 8
REMARK VINA RESULT:      -6.2      5.224      9.139
REMARK  Name = 
REMARK  6 active torsions:
REMARK  status: ('A' for Active; 'I' for Inactive)
REMARK    1  A    between atoms: N_1  and  C_2
REMARK    2  A    between atoms: C_10  and  N_11
REMARK    3  A    between atoms: C_10  and  C_12
REMARK    4  A    between atoms: N_14  and  C_15
REMARK    5  A    between atoms: C_15  and  C_16
REMARK    6  A    between atoms: C_15  and  C_23
REMARK                            x       y       z     vdW  Elec       q    Type
REMARK                         _______ _______ _______ _____ _____    ______ ____
ROOT
ATOM      1  C   UNL     1       3.228   4.139  19.509  0.00  0.00    +0.000 A 
ATOM      2  N   UNL     1       4.377   4.136  18.821  0.00  0.00    +0.000 NA
ATOM      3  C   UNL     1       4.742   5.311  18.298  0.00  0.00    +0.000 A 
ATOM      4  N   UNL     1       4.076   6.473  18.403  0.00  0.00    +0.000 NA
ATOM      5  C   UNL     1       2.930   6.478  19.121  0.00  0.00    +0.000 A 
ATOM      6  N   UNL     1       2.197   7.655  19.151  0.00  0.00    +0.000 N 
ATOM      7  C   UNL     1       2.318   8.585  18.038  0.00  0.00    +0.000 C 
ATOM      8  C   UNL     1       0.901   9.118  17.780  0.00  0.00    +0.000 C 
ATOM      9  C   UNL     1       0.331   9.822  19.036  0.00  0.00    +0.000 C 
ATOM     10  C   UNL     1       0.495   8.927  20.287  0.00  0.00    +0.000 C 
ATOM     11  C   UNL     1       1.887   8.302  20.423  0.00  0.00    +0.000 C 
ATOM     12  C   UNL     1       2.463   5.289  19.705  0.00  0.00    +0.000 A 
ATOM     13 CL   UNL     1       0.921   5.160  20.488  0.00  0.00    +0.000 Cl
ENDROOT
BRANCH   9  14
ATOM     14  C   UNL     1       0.971  11.257  19.167  0.00  0.00    +0.000 C 
ATOM     15  O   UNL     1       1.986  11.618  18.586  0.00  0.00    +0.000 OA
ATOM     16  N   UNL     1       0.271  12.085  20.042  0.00  0.00    +0.000 N 
ATOM     17  H   UNL     1      -0.680  11.809  20.224  0.00  0.00    +0.000 HD
BRANCH  16  18
ATOM     18  C   UNL     1       0.579  13.522  20.230  0.00  0.00    +0.000 C 
BRANCH  18  19
ATOM     19  C   UNL     1       0.171  14.001  21.633  0.00  0.00    +0.000 A 
ATOM     20  C   UNL     1      -0.764  13.292  22.412  0.00  0.00    +0.000 A 
ATOM     21  C   UNL     1      -1.339  13.868  23.548  0.00  0.00    +0.000 A 
ATOM     22  C   UNL     1      -0.979  15.155  23.929  0.00  0.00    +0.000 A 
ATOM     23 CL   UNL     1      -1.786  15.908  25.249  0.00  0.00    +0.000 Cl
ATOM     24  C   UNL     1      -0.003  15.849  23.219  0.00  0.00    +0.000 A 
ATOM     25  C   UNL     1       0.574  15.275  22.079  0.00  0.00    +0.000 A 
ENDBRANCH  18  19
BRANCH  18  26
ATOM     26  C   UNL     1      -0.078  14.458  19.161  0.00  0.00    +0.000 C 
ATOM     27  F   UNL     1      -1.202  15.048  19.637  0.00  0.00    +0.000 F 
ATOM     28  F   UNL     1       0.743  15.471  18.782  0.00  0.00    +0.000 F 
ATOM     29  F   UNL     1      -0.409  13.777  18.040  0.00  0.00    +0.000 F 
ENDBRANCH  18  26
ENDBRANCH  16  18
ENDBRANCH   9  14
BRANCH   1  30
ATOM     30  N   UNL     1       2.860   2.899  20.048  0.00  0.00    +0.000 N 
ATOM     31  H   UNL     1       3.301   2.167  19.502  0.00  0.00    +0.000 HD
ATOM     32  H   UNL     1       1.850   2.801  20.108  0.00  0.00    +0.000 HD
ENDBRANCH   1  30
BRANCH   9  33
ATOM     33  N   UNL     1      -1.139  10.035  18.861  0.00  0.00    +0.000 NA
ATOM     34  H   UNL     1      -1.322  10.671  18.094  0.00  0.00    +0.000 HD
ATOM     35  H   UNL     1      -1.494  10.524  19.690  0.00  0.00    +0.000 HD
ENDBRANCH   9  33
TORSDOF 6
ENDMDL
MODEL 9
REMARK VINA RESULT:      -6.1      5.224      9.222
REMARK  Name = 
REMARK  6 active torsions:
REMARK  status: ('A' for Active; 'I' for Inactive)
REMARK    1  A    between atoms: N_1  and  C_2
REMARK    2  A    between atoms: C_10  and  N_11
REMARK    3  A    between atoms: C_10  and  C_12
REMARK    4  A    between atoms: N_14  and  C_15
REMARK    5  A    between atoms: C_15  and  C_16
REMARK    6  A    between atoms: C_15  and  C_23
REMARK                            x       y       z     vdW  Elec       q    Type
REMARK                         _______ _______ _______ _____ _____    ______ ____
ROOT
ATOM      1  C   UNL     1       3.215   4.265  19.357  0.00  0.00    +0.000 A 
ATOM      2  N   UNL     1       4.308   4.283  18.582  0.00  0.00    +0.000 NA
ATOM      3  C   UNL     1       4.622   5.470  18.053  0.00  0.00    +0.000 A 
ATOM      4  N   UNL     1       3.959   6.624  18.229  0.00  0.00    +0.000 NA
ATOM      5  C   UNL     1       2.872   6.608  19.033  0.00  0.00    +0.000 A 
ATOM      6  N   UNL     1       2.136   7.778  19.140  0.00  0.00    +0.000 N 
ATOM      7  C   UNL     1       2.163   8.728  18.037  0.00  0.00    +0.000 C 
ATOM      8  C   UNL     1       0.727   9.253  17.899  0.00  0.00    +0.000 C 
ATOM      9  C   UNL     1       0.252   9.931  19.207  0.00  0.00    +0.000 C 
ATOM     10  C   UNL     1       0.518   9.017  20.427  0.00  0.00    +0.000 C 
ATOM     11  C   UNL     1       1.920   8.401  20.444  0.00  0.00    +0.000 C 
ATOM     12  C   UNL     1       2.460   5.406  19.631  0.00  0.00    +0.000 A 
ATOM     13 CL   UNL     1       0.984   5.251  20.528  0.00  0.00    +0.000 Cl
ENDROOT
BRANCH   9  14
ATOM     14  C   UNL     1       0.890  11.369  19.313  0.00  0.00    +0.000 C 
ATOM     15  O   UNL     1       1.962  11.689  18.816  0.00  0.00    +0.000 OA
ATOM     16  N   UNL     1       0.114  12.253  20.060  0.00  0.00    +0.000 N 
ATOM     17  H   UNL     1      -0.853  11.993  20.163  0.00  0.00    +0.000 HD
BRANCH  16  18
ATOM     18  C   UNL     1       0.416  13.698  20.189  0.00  0.00    +0.000 C 
BRANCH  18  19
ATOM     19  C   UNL     1      -0.208  14.287  21.464  0.00  0.00    +0.000 A 
ATOM     20  C   UNL     1       0.243  15.505  22.011  0.00  0.00    +0.000 A 
ATOM     21  C   UNL     1      -0.122  15.892  23.303  0.00  0.00    +0.000 A 
ATOM     22  C   UNL     1      -0.952  15.077  24.063  0.00  0.00    +0.000 A 
ATOM     23 CL   UNL     1      -1.289  15.493  25.697  0.00  0.00    +0.000 Cl
ATOM     24  C   UNL     1      -1.471  13.905  23.518  0.00  0.00    +0.000 A 
ATOM     25  C   UNL     1      -1.106  13.512  22.224  0.00  0.00    +0.000 A 
ENDBRANCH  18  19
BRANCH  18  26
ATOM     26  C   UNL     1      -0.035  14.554  18.959  0.00  0.00    +0.000 C 
ATOM     27  F   UNL     1      -0.506  13.773  17.955  0.00  0.00    +0.000 F 
ATOM     28  F   UNL     1      -1.039  15.415  19.263  0.00  0.00    +0.000 F 
ATOM     29  F   UNL     1       0.984  15.293  18.466  0.00  0.00    +0.000 F 
ENDBRANCH  18  26
ENDBRANCH  16  18
ENDBRANCH   9  14
BRANCH   1  30
ATOM     30  N   UNL     1       2.898   3.014  19.902  0.00  0.00    +0.000 N 
ATOM     31  H   UNL     1       1.949   3.050  20.258  0.00  0.00    +0.000 HD
ATOM     32  H   UNL     1       3.577   2.725  20.600  0.00  0.00    +0.000 HD
ENDBRANCH   1  30
BRANCH   9  33
ATOM     33  N   UNL     1      -1.229  10.135  19.150  0.00  0.00    +0.000 NA
ATOM     34  H   UNL     1      -1.472  11.087  19.400  0.00  0.00    +0.000 HD
ATOM     35  H   UNL     1      -1.661   9.559  19.881  0.00  0.00    +0.000 HD
ENDBRANCH   9  33
TORSDOF 6
ENDMDL
