MODEL 1
REMARK VINA RESULT:      -9.9      0.000      0.000
REMARK  Name = 
REMARK  1 active torsions:
REMARK  status: ('A' for Active; 'I' for Inactive)
REMARK    1  A    between atoms: C_8  and  C_9
REMARK                            x       y       z     vdW  Elec       q    Type
REMARK                         _______ _______ _______ _____ _____    ______ ____
ROOT
ATOM      1  C   UNL     1       1.395   8.215  20.124  0.00  0.00    +0.000 A 
ATOM      2  N   UNL     1       2.187   8.168  19.072  0.00  0.00    +0.000 NA
ATOM      3  C   UNL     1       2.737   6.904  19.041  0.00  0.00    +0.000 A 
ATOM      4  C   UNL     1       3.659   6.336  18.132  0.00  0.00    +0.000 A 
ATOM      5  C   UNL     1       4.128   7.140  17.072  0.00  0.00    +0.000 A 
ATOM      6  C   UNL     1       5.039   6.629  16.155  0.00  0.00    +0.000 A 
ATOM      7  C   UNL     1       5.479   5.319  16.295  0.00  0.00    +0.000 A 
ATOM      8 BR   UNL     1       6.720   4.612  15.054  0.00  0.00    +0.000 Br
ATOM      9  C   UNL     1       5.018   4.515  17.343  0.00  0.00    +0.000 A 
ATOM     10  C   UNL     1       4.090   4.994  18.301  0.00  0.00    +0.000 A 
ATOM     11  C   UNL     1       3.577   4.221  19.400  0.00  0.00    +0.000 A 
ATOM     12  C   UNL     1       3.937   2.876  19.659  0.00  0.00    +0.000 A 
ATOM     13  C   UNL     1       3.416   2.158  20.741  0.00  0.00    +0.000 A 
ATOM     14  C   UNL     1       2.511   2.756  21.609  0.00  0.00    +0.000 A 
ATOM     15  C   UNL     1       2.124   4.076  21.399  0.00  0.00    +0.000 A 
ATOM     16  C   UNL     1       2.649   4.801  20.308  0.00  0.00    +0.000 A 
ATOM     17  C   UNL     1       2.259   6.141  20.094  0.00  0.00    +0.000 A 
ATOM     18  N   UNL     1       1.407   6.990  20.756  0.00  0.00    +0.000 N 
ATOM     19  H   UNL     1       0.862   6.762  21.575  0.00  0.00    +0.000 HD
ENDROOT
BRANCH   1  27
ATOM     20  F   UNL     1       1.352   9.052  22.811  0.00  0.00    +0.000 F 
ATOM     21  C   UNL     1       0.592   9.724  21.930  0.00  0.00    +0.000 A 
ATOM     22  C   UNL     1      -0.178  10.780  22.419  0.00  0.00    +0.000 A 
ATOM     23  C   UNL     1      -0.972  11.516  21.548  0.00  0.00    +0.000 A 
ATOM     24  C   UNL     1      -0.983  11.190  20.193  0.00  0.00    +0.000 A 
ATOM     25  C   UNL     1      -0.209  10.124  19.705  0.00  0.00    +0.000 A 
ATOM     26 CL   UNL     1      -0.274   9.866  17.993  0.00  0.00    +0.000 Cl
ATOM     27  C   UNL     1       0.592   9.360  20.572  0.00  0.00    +0.000 A 
ENDBRANCH   1  27
TORSDOF 1
ENDMDL
MODEL 2
REMARK VINA RESULT:      -9.6      1.476      1.749
REMARK  Name = 
REMARK  1 active torsions:
REMARK  status: ('A' for Active; 'I' for Inactive)
REMARK    1  A    between atoms: C_8  and  C_9
REMARK                            x       y       z     vdW  Elec       q    Type
REMARK                         _______ _______ _______ _____ _____    ______ ____
ROOT
ATOM      1  C   UNL     1       1.432   8.361  19.782  0.00  0.00    +0.000 A 
ATOM      2  N   UNL     1       2.240   8.257  18.746  0.00  0.00    +0.000 NA
ATOM      3  C   UNL     1       2.774   6.987  18.782  0.00  0.00    +0.000 A 
ATOM      4  C   UNL     1       3.703   6.367  17.916  0.00  0.00    +0.000 A 
ATOM      5  C   UNL     1       4.199   7.115  16.828  0.00  0.00    +0.000 A 
ATOM      6  C   UNL     1       5.118   6.551  15.950  0.00  0.00    +0.000 A 
ATOM      7  C   UNL     1       5.538   5.244  16.157  0.00  0.00    +0.000 A 
ATOM      8 BR   UNL     1       6.791   4.466  14.970  0.00  0.00    +0.000 Br
ATOM      9  C   UNL     1       5.051   4.494  17.233  0.00  0.00    +0.000 A 
ATOM     10  C   UNL     1       4.114   5.028  18.153  0.00  0.00    +0.000 A 
ATOM     11  C   UNL     1       3.574   4.313  19.277  0.00  0.00    +0.000 A 
ATOM     12  C   UNL     1       3.913   2.977  19.603  0.00  0.00    +0.000 A 
ATOM     13  C   UNL     1       3.366   2.315  20.708  0.00  0.00    +0.000 A 
ATOM     14  C   UNL     1       2.455   2.963  21.533  0.00  0.00    +0.000 A 
ATOM     15  C   UNL     1       2.088   4.277  21.257  0.00  0.00    +0.000 A 
ATOM     16  C   UNL     1       2.640   4.945  20.143  0.00  0.00    +0.000 A 
ATOM     17  C   UNL     1       2.270   6.278  19.861  0.00  0.00    +0.000 A 
ATOM     18  N   UNL     1       1.418   7.167  20.470  0.00  0.00    +0.000 N 
ATOM     19  H   UNL     1       0.858   6.984  21.289  0.00  0.00    +0.000 HD
ENDROOT
BRANCH   1  27
ATOM     20  F   UNL     1      -0.170   9.750  17.931  0.00  0.00    +0.000 F 
ATOM     21  C   UNL     1      -0.132  10.203  19.195  0.00  0.00    +0.000 A 
ATOM     22  C   UNL     1      -0.879  11.344  19.492  0.00  0.00    +0.000 A 
ATOM     23  C   UNL     1      -0.885  11.848  20.787  0.00  0.00    +0.000 A 
ATOM     24  C   UNL     1      -0.145  11.200  21.774  0.00  0.00    +0.000 A 
ATOM     25  C   UNL     1       0.609  10.054  21.471  0.00  0.00    +0.000 A 
ATOM     26 CL   UNL     1       1.434   9.317  22.805  0.00  0.00    +0.000 Cl
ATOM     27  C   UNL     1       0.636   9.536  20.164  0.00  0.00    +0.000 A 
ENDBRANCH   1  27
TORSDOF 1
ENDMDL
MODEL 3
REMARK VINA RESULT:      -8.9      1.038      1.085
REMARK  Name = 
REMARK  1 active torsions:
REMARK  status: ('A' for Active; 'I' for Inactive)
REMARK    1  A    between atoms: C_8  and  C_9
REMARK                            x       y       z     vdW  Elec       q    Type
REMARK                         _______ _______ _______ _____ _____    ______ ____
ROOT
ATOM      1  C   UNL     1       1.598   8.646  19.544  0.00  0.00    +0.000 A 
ATOM      2  N   UNL     1       2.382   8.449  18.502  0.00  0.00    +0.000 NA
ATOM      3  C   UNL     1       2.838   7.151  18.586  0.00  0.00    +0.000 A 
ATOM      4  C   UNL     1       3.714   6.440  17.734  0.00  0.00    +0.000 A 
ATOM      5  C   UNL     1       4.237   7.110  16.609  0.00  0.00    +0.000 A 
ATOM      6  C   UNL     1       5.105   6.455  15.743  0.00  0.00    +0.000 A 
ATOM      7  C   UNL     1       5.450   5.135  16.000  0.00  0.00    +0.000 A 
ATOM      8 BR   UNL     1       6.633   4.232  14.831  0.00  0.00    +0.000 Br
ATOM      9  C   UNL     1       4.935   4.461  17.114  0.00  0.00    +0.000 A 
ATOM     10  C   UNL     1       4.047   5.089  18.023  0.00  0.00    +0.000 A 
ATOM     11  C   UNL     1       3.483   4.456  19.184  0.00  0.00    +0.000 A 
ATOM     12  C   UNL     1       3.745   3.117  19.562  0.00  0.00    +0.000 A 
ATOM     13  C   UNL     1       3.176   2.537  20.702  0.00  0.00    +0.000 A 
ATOM     14  C   UNL     1       2.320   3.273  21.510  0.00  0.00    +0.000 A 
ATOM     15  C   UNL     1       2.029   4.594  21.183  0.00  0.00    +0.000 A 
ATOM     16  C   UNL     1       2.602   5.180  20.034  0.00  0.00    +0.000 A 
ATOM     17  C   UNL     1       2.310   6.520  19.700  0.00  0.00    +0.000 A 
ATOM     18  N   UNL     1       1.523   7.485  20.282  0.00  0.00    +0.000 N 
ATOM     19  H   UNL     1       0.966   7.370  21.116  0.00  0.00    +0.000 HD
ENDROOT
BRANCH   1  27
ATOM     20  F   UNL     1      -0.386   8.721  21.539  0.00  0.00    +0.000 F 
ATOM     21  C   UNL     1      -0.114   9.859  20.879  0.00  0.00    +0.000 A 
ATOM     22  C   UNL     1      -0.851  10.993  21.221  0.00  0.00    +0.000 A 
ATOM     23  C   UNL     1      -0.602  12.199  20.577  0.00  0.00    +0.000 A 
ATOM     24  C   UNL     1       0.389  12.258  19.599  0.00  0.00    +0.000 A 
ATOM     25  C   UNL     1       1.127  11.113  19.254  0.00  0.00    +0.000 A 
ATOM     26 CL   UNL     1       2.365  11.343  18.064  0.00  0.00    +0.000 Cl
ATOM     27  C   UNL     1       0.881   9.882  19.886  0.00  0.00    +0.000 A 
ENDBRANCH   1  27
TORSDOF 1
ENDMDL
MODEL 4
REMARK VINA RESULT:      -8.1      1.980      2.375
REMARK  Name = 
REMARK  1 active torsions:
REMARK  status: ('A' for Active; 'I' for Inactive)
REMARK    1  A    between atoms: C_8  and  C_9
REMARK                            x       y       z     vdW  Elec       q    Type
REMARK                         _______ _______ _______ _____ _____    ______ ____
ROOT
ATOM      1  C   UNL     1       1.755   9.599  18.423  0.00  0.00    +0.000 A 
ATOM      2  N   UNL     1       2.587   9.165  17.497  0.00  0.00    +0.000 NA
ATOM      3  C   UNL     1       2.906   7.864  17.825  0.00  0.00    +0.000 A 
ATOM      4  C   UNL     1       3.765   6.948  17.176  0.00  0.00    +0.000 A 
ATOM      5  C   UNL     1       4.430   7.375  16.007  0.00  0.00    +0.000 A 
ATOM      6  C   UNL     1       5.289   6.512  15.335  0.00  0.00    +0.000 A 
ATOM      7  C   UNL     1       5.482   5.229  15.828  0.00  0.00    +0.000 A 
ATOM      8 BR   UNL     1       6.650   4.046  14.924  0.00  0.00    +0.000 Br
ATOM      9  C   UNL     1       4.825   4.797  16.986  0.00  0.00    +0.000 A 
ATOM     10  C   UNL     1       3.941   5.642  17.703  0.00  0.00    +0.000 A 
ATOM     11  C   UNL     1       3.237   5.261  18.898  0.00  0.00    +0.000 A 
ATOM     12  C   UNL     1       3.338   3.986  19.505  0.00  0.00    +0.000 A 
ATOM     13  C   UNL     1       2.636   3.655  20.670  0.00  0.00    +0.000 A 
ATOM     14  C   UNL     1       1.801   4.587  21.274  0.00  0.00    +0.000 A 
ATOM     15  C   UNL     1       1.667   5.855  20.717  0.00  0.00    +0.000 A 
ATOM     16  C   UNL     1       2.374   6.189  19.543  0.00  0.00    +0.000 A 
ATOM     17  C   UNL     1       2.240   7.475  18.976  0.00  0.00    +0.000 A 
ATOM     18  N   UNL     1       1.513   8.587  19.328  0.00  0.00    +0.000 N 
ATOM     19  H   UNL     1       0.890   8.662  20.118  0.00  0.00    +0.000 HD
ENDROOT
BRANCH   1  27
ATOM     20  F   UNL     1       3.259  11.958  18.123  0.00  0.00    +0.000 F 
ATOM     21  C   UNL     1       1.942  12.077  18.363  0.00  0.00    +0.000 A 
ATOM     22  C   UNL     1       1.421  13.368  18.463  0.00  0.00    +0.000 A 
ATOM     23  C   UNL     1       0.063  13.548  18.698  0.00  0.00    +0.000 A 
ATOM     24  C   UNL     1      -0.761  12.431  18.825  0.00  0.00    +0.000 A 
ATOM     25  C   UNL     1      -0.232  11.134  18.728  0.00  0.00    +0.000 A 
ATOM     26 CL   UNL     1      -1.378   9.840  18.848  0.00  0.00    +0.000 Cl
ATOM     27  C   UNL     1       1.141  10.931  18.501  0.00  0.00    +0.000 A 
ENDBRANCH   1  27
TORSDOF 1
ENDMDL
MODEL 5
REMARK VINA RESULT:      -7.7      4.023      7.297
REMARK  Name = 
REMARK  1 active torsions:
REMARK  status: ('A' for Active; 'I' for Inactive)
REMARK    1  A    between atoms: C_8  and  C_9
REMARK                            x       y       z     vdW  Elec       q    Type
REMARK                         _______ _______ _______ _____ _____    ______ ____
ROOT
ATOM      1  C   UNL     1       5.000   4.989  16.042  0.00  0.00    +0.000 A 
ATOM      2  N   UNL     1       4.410   6.121  16.372  0.00  0.00    +0.000 NA
ATOM      3  C   UNL     1       3.774   5.903  17.576  0.00  0.00    +0.000 A 
ATOM      4  C   UNL     1       2.988   6.779  18.359  0.00  0.00    +0.000 A 
ATOM      5  C   UNL     1       2.785   8.093  17.887  0.00  0.00    +0.000 A 
ATOM      6  C   UNL     1       2.017   8.990  18.619  0.00  0.00    +0.000 A 
ATOM      7  C   UNL     1       1.453   8.578  19.819  0.00  0.00    +0.000 A 
ATOM      8 BR   UNL     1       0.403   9.789  20.825  0.00  0.00    +0.000 Br
ATOM      9  C   UNL     1       1.650   7.276  20.296  0.00  0.00    +0.000 A 
ATOM     10  C   UNL     1       2.426   6.328  19.583  0.00  0.00    +0.000 A 
ATOM     11  C   UNL     1       2.666   4.978  20.016  0.00  0.00    +0.000 A 
ATOM     12  C   UNL     1       2.157   4.429  21.217  0.00  0.00    +0.000 A 
ATOM     13  C   UNL     1       2.414   3.108  21.603  0.00  0.00    +0.000 A 
ATOM     14  C   UNL     1       3.192   2.283  20.802  0.00  0.00    +0.000 A 
ATOM     15  C   UNL     1       3.717   2.774  19.610  0.00  0.00    +0.000 A 
ATOM     16  C   UNL     1       3.459   4.105  19.221  0.00  0.00    +0.000 A 
ATOM     17  C   UNL     1       3.989   4.606  18.012  0.00  0.00    +0.000 A 
ATOM     18  N   UNL     1       4.774   4.054  17.029  0.00  0.00    +0.000 N 
ATOM     19  H   UNL     1       5.141   3.114  17.023  0.00  0.00    +0.000 HD
ENDROOT
BRANCH   1  27
ATOM     20  F   UNL     1       4.042   3.407  13.921  0.00  0.00    +0.000 F 
ATOM     21  C   UNL     1       5.279   3.919  13.815  0.00  0.00    +0.000 A 
ATOM     22  C   UNL     1       6.007   3.611  12.665  0.00  0.00    +0.000 A 
ATOM     23  C   UNL     1       7.288   4.124  12.500  0.00  0.00    +0.000 A 
ATOM     24  C   UNL     1       7.826   4.945  13.488  0.00  0.00    +0.000 A 
ATOM     25  C   UNL     1       7.092   5.250  14.647  0.00  0.00    +0.000 A 
ATOM     26 CL   UNL     1       7.860   6.328  15.765  0.00  0.00    +0.000 Cl
ATOM     27  C   UNL     1       5.800   4.732  14.837  0.00  0.00    +0.000 A 
ENDBRANCH   1  27
TORSDOF 1
ENDMDL
MODEL 6
REMARK VINA RESULT:      -7.5      4.885      7.529
REMARK  Name = 
REMARK  1 active torsions:
REMARK  status: ('A' for Active; 'I' for Inactive)
REMARK    1  A    between atoms: C_8  and  C_9
REMARK                            x       y       z     vdW  Elec       q    Type
REMARK                         _______ _______ _______ _____ _____    ______ ____
ROOT
ATOM      1  C   UNL     1      -2.576  13.158  21.250  0.00  0.00    +0.000 A 
ATOM      2  N   UNL     1      -1.447  12.481  21.201  0.00  0.00    +0.000 NA
ATOM      3  C   UNL     1      -1.461  11.764  20.024  0.00  0.00    +0.000 A 
ATOM      4  C   UNL     1      -0.504  10.869  19.493  0.00  0.00    +0.000 A 
ATOM      5  C   UNL     1       0.669  10.631  20.239  0.00  0.00    +0.000 A 
ATOM      6  C   UNL     1       1.638   9.757  19.761  0.00  0.00    +0.000 A 
ATOM      7  C   UNL     1       1.438   9.124  18.542  0.00  0.00    +0.000 A 
ATOM      8 BR   UNL     1       2.749   7.930  17.881  0.00  0.00    +0.000 Br
ATOM      9  C   UNL     1       0.278   9.355  17.794  0.00  0.00    +0.000 A 
ATOM     10  C   UNL     1      -0.737  10.238  18.242  0.00  0.00    +0.000 A 
ATOM     11  C   UNL     1      -1.950  10.520  17.524  0.00  0.00    +0.000 A 
ATOM     12  C   UNL     1      -2.280   9.949  16.271  0.00  0.00    +0.000 A 
ATOM     13  C   UNL     1      -3.474  10.248  15.604  0.00  0.00    +0.000 A 
ATOM     14  C   UNL     1      -4.386  11.134  16.163  0.00  0.00    +0.000 A 
ATOM     15  C   UNL     1      -4.110  11.723  17.393  0.00  0.00    +0.000 A 
ATOM     16  C   UNL     1      -2.907  11.421  18.066  0.00  0.00    +0.000 A 
ATOM     17  C   UNL     1      -2.624  12.017  19.314  0.00  0.00    +0.000 A 
ATOM     18  N   UNL     1      -3.306  12.908  20.108  0.00  0.00    +0.000 N 
ATOM     19  H   UNL     1      -4.199  13.327  19.895  0.00  0.00    +0.000 HD
ENDROOT
BRANCH   1  27
ATOM     20  F   UNL     1      -3.260  12.224  23.815  0.00  0.00    +0.000 F 
ATOM     21  C   UNL     1      -3.362  13.543  23.577  0.00  0.00    +0.000 A 
ATOM     22  C   UNL     1      -3.818  14.351  24.620  0.00  0.00    +0.000 A 
ATOM     23  C   UNL     1      -3.931  15.724  24.430  0.00  0.00    +0.000 A 
ATOM     24  C   UNL     1      -3.579  16.274  23.199  0.00  0.00    +0.000 A 
ATOM     25  C   UNL     1      -3.124  15.456  22.151  0.00  0.00    +0.000 A 
ATOM     26 CL   UNL     1      -2.669  16.278  20.696  0.00  0.00    +0.000 Cl
ATOM     27  C   UNL     1      -3.014  14.065  22.319  0.00  0.00    +0.000 A 
ENDBRANCH   1  27
TORSDOF 1
ENDMDL
MODEL 7
REMARK VINA RESULT:      -7.5      5.204      7.943
REMARK  Name = 
REMARK  1 active torsions:
REMARK  status: ('A' for Active; 'I' for Inactive)
REMARK    1  A    between atoms: C_8  and  C_9
REMARK                            x       y       z     vdW  Elec       q    Type
REMARK                         _______ _______ _______ _____ _____    ______ ____
ROOT
ATOM      1  C   UNL     1      -3.440  13.071  20.909  0.00  0.00    +0.000 A 
ATOM      2  N   UNL     1      -2.282  12.449  21.004  0.00  0.00    +0.000 NA
ATOM      3  C   UNL     1      -2.105  11.753  19.827  0.00  0.00    +0.000 A 
ATOM      4  C   UNL     1      -1.042  10.915  19.418  0.00  0.00    +0.000 A 
ATOM      5  C   UNL     1       0.032  10.720  20.312  0.00  0.00    +0.000 A 
ATOM      6  C   UNL     1       1.098   9.902  19.958  0.00  0.00    +0.000 A 
ATOM      7  C   UNL     1       1.093   9.281  18.716  0.00  0.00    +0.000 A 
ATOM      8 BR   UNL     1       2.538   8.163  18.223  0.00  0.00    +0.000 Br
ATOM      9  C   UNL     1       0.032   9.470  17.823  0.00  0.00    +0.000 A 
ATOM     10  C   UNL     1      -1.075  10.295  18.141  0.00  0.00    +0.000 A 
ATOM     11  C   UNL     1      -2.196  10.530  17.271  0.00  0.00    +0.000 A 
ATOM     12  C   UNL     1      -2.328   9.966  15.979  0.00  0.00    +0.000 A 
ATOM     13  C   UNL     1      -3.435  10.219  15.162  0.00  0.00    +0.000 A 
ATOM     14  C   UNL     1      -4.457  11.050  15.605  0.00  0.00    +0.000 A 
ATOM     15  C   UNL     1      -4.376  11.630  16.867  0.00  0.00    +0.000 A 
ATOM     16  C   UNL     1      -3.259  11.375  17.691  0.00  0.00    +0.000 A 
ATOM     17  C   UNL     1      -3.175  11.962  18.972  0.00  0.00    +0.000 A 
ATOM     18  N   UNL     1      -3.999  12.805  19.677  0.00  0.00    +0.000 N 
ATOM     19  H   UNL     1      -4.876  13.185  19.351  0.00  0.00    +0.000 HD
ENDROOT
BRANCH   1  27
ATOM     20  F   UNL     1      -5.820  12.358  22.231  0.00  0.00    +0.000 F 
ATOM     21  C   UNL     1      -5.260  13.540  22.537  0.00  0.00    +0.000 A 
ATOM     22  C   UNL     1      -5.913  14.337  23.478  0.00  0.00    +0.000 A 
ATOM     23  C   UNL     1      -5.371  15.565  23.839  0.00  0.00    +0.000 A 
ATOM     24  C   UNL     1      -4.175  15.979  23.257  0.00  0.00    +0.000 A 
ATOM     25  C   UNL     1      -3.522  15.176  22.307  0.00  0.00    +0.000 A 
ATOM     26 CL   UNL     1      -2.016  15.788  21.707  0.00  0.00    +0.000 Cl
ATOM     27  C   UNL     1      -4.061  13.937  21.920  0.00  0.00    +0.000 A 
ENDBRANCH   1  27
TORSDOF 1
ENDMDL
MODEL 8
REMARK VINA RESULT:      -7.5      7.585     10.792
REMARK  Name = 
REMARK  1 active torsions:
REMARK  status: ('A' for Active; 'I' for Inactive)
REMARK    1  A    between atoms: C_8  and  C_9
REMARK                            x       y       z     vdW  Elec       q    Type
REMARK                         _______ _______ _______ _____ _____    ______ ____
ROOT
ATOM      1  C   UNL     1      -3.586  11.880  19.285  0.00  0.00    +0.000 A 
ATOM      2  N   UNL     1      -2.695  12.453  20.070  0.00  0.00    +0.000 NA
ATOM      3  C   UNL     1      -3.370  12.883  21.193  0.00  0.00    +0.000 A 
ATOM      4  C   UNL     1      -2.893  13.568  22.333  0.00  0.00    +0.000 A 
ATOM      5  C   UNL     1      -1.521  13.893  22.387  0.00  0.00    +0.000 A 
ATOM      6  C   UNL     1      -1.004  14.570  23.486  0.00  0.00    +0.000 A 
ATOM      7  C   UNL     1      -1.854  14.921  24.526  0.00  0.00    +0.000 A 
ATOM      8 BR   UNL     1      -1.163  15.845  26.026  0.00  0.00    +0.000 Br
ATOM      9  C   UNL     1      -3.216  14.602  24.481  0.00  0.00    +0.000 A 
ATOM     10  C   UNL     1      -3.786  13.913  23.382  0.00  0.00    +0.000 A 
ATOM     11  C   UNL     1      -5.175  13.556  23.272  0.00  0.00    +0.000 A 
ATOM     12  C   UNL     1      -6.148  13.848  24.259  0.00  0.00    +0.000 A 
ATOM     13  C   UNL     1      -7.492  13.484  24.114  0.00  0.00    +0.000 A 
ATOM     14  C   UNL     1      -7.916  12.811  22.976  0.00  0.00    +0.000 A 
ATOM     15  C   UNL     1      -7.000  12.499  21.977  0.00  0.00    +0.000 A 
ATOM     16  C   UNL     1      -5.645  12.866  22.121  0.00  0.00    +0.000 A 
ATOM     17  C   UNL     1      -4.713  12.552  21.109  0.00  0.00    +0.000 A 
ATOM     18  N   UNL     1      -4.819  11.912  19.898  0.00  0.00    +0.000 N 
ATOM     19  H   UNL     1      -5.663  11.514  19.510  0.00  0.00    +0.000 HD
ENDROOT
BRANCH   1  27
ATOM     20  F   UNL     1      -1.459  10.090  18.841  0.00  0.00    +0.000 F 
ATOM     21  C   UNL     1      -2.252  10.397  17.800  0.00  0.00    +0.000 A 
ATOM     22  C   UNL     1      -1.948   9.817  16.567  0.00  0.00    +0.000 A 
ATOM     23  C   UNL     1      -2.743  10.092  15.461  0.00  0.00    +0.000 A 
ATOM     24  C   UNL     1      -3.838  10.942  15.601  0.00  0.00    +0.000 A 
ATOM     25  C   UNL     1      -4.138  11.527  16.843  0.00  0.00    +0.000 A 
ATOM     26 CL   UNL     1      -5.559  12.517  16.887  0.00  0.00    +0.000 Cl
ATOM     27  C   UNL     1      -3.339  11.270  17.971  0.00  0.00    +0.000 A 
ENDBRANCH   1  27
TORSDOF 1
ENDMDL
MODEL 9
REMARK VINA RESULT:      -7.5      5.105      7.760
REMARK  Name = 
REMARK  1 active torsions:
REMARK  status: ('A' for Active; 'I' for Inactive)
REMARK    1  A    between atoms: C_8  and  C_9
REMARK                            x       y       z     vdW  Elec       q    Type
REMARK                         _______ _______ _______ _____ _____    ______ ____
ROOT
ATOM      1  C   UNL     1      -2.600  13.341  21.257  0.00  0.00    +0.000 A 
ATOM      2  N   UNL     1      -1.471  12.661  21.214  0.00  0.00    +0.000 NA
ATOM      3  C   UNL     1      -1.504  11.907  20.060  0.00  0.00    +0.000 A 
ATOM      4  C   UNL     1      -0.555  10.995  19.543  0.00  0.00    +0.000 A 
ATOM      5  C   UNL     1       0.628  10.779  20.280  0.00  0.00    +0.000 A 
ATOM      6  C   UNL     1       1.590   9.889  19.816  0.00  0.00    +0.000 A 
ATOM      7  C   UNL     1       1.371   9.218  18.620  0.00  0.00    +0.000 A 
ATOM      8 BR   UNL     1       2.672   8.002  17.979  0.00  0.00    +0.000 Br
ATOM      9  C   UNL     1       0.201   9.427  17.883  0.00  0.00    +0.000 A 
ATOM     10  C   UNL     1      -0.806  10.325  18.317  0.00  0.00    +0.000 A 
ATOM     11  C   UNL     1      -2.030  10.585  17.608  0.00  0.00    +0.000 A 
ATOM     12  C   UNL     1      -2.379   9.975  16.379  0.00  0.00    +0.000 A 
ATOM     13  C   UNL     1      -3.582  10.255  15.720  0.00  0.00    +0.000 A 
ATOM     14  C   UNL     1      -4.485  11.159  16.264  0.00  0.00    +0.000 A 
ATOM     15  C   UNL     1      -4.190  11.786  17.471  0.00  0.00    +0.000 A 
ATOM     16  C   UNL     1      -2.978  11.505  18.136  0.00  0.00    +0.000 A 
ATOM     17  C   UNL     1      -2.677  12.139  19.360  0.00  0.00    +0.000 A 
ATOM     18  N   UNL     1      -3.346  13.056  20.135  0.00  0.00    +0.000 N 
ATOM     19  H   UNL     1      -4.242  13.469  19.921  0.00  0.00    +0.000 HD
ENDROOT
BRANCH   1  27
ATOM     20  F   UNL     1      -2.580  16.128  20.861  0.00  0.00    +0.000 F 
ATOM     21  C   UNL     1      -2.975  15.665  22.059  0.00  0.00    +0.000 A 
ATOM     22  C   UNL     1      -3.329  16.606  23.027  0.00  0.00    +0.000 A 
ATOM     23  C   UNL     1      -3.755  16.180  24.280  0.00  0.00    +0.000 A 
ATOM     24  C   UNL     1      -3.828  14.815  24.549  0.00  0.00    +0.000 A 
ATOM     25  C   UNL     1      -3.466  13.871  23.573  0.00  0.00    +0.000 A 
ATOM     26 CL   UNL     1      -3.659  12.209  24.023  0.00  0.00    +0.000 Cl
ATOM     27  C   UNL     1      -3.021  14.282  22.304  0.00  0.00    +0.000 A 
ENDBRANCH   1  27
TORSDOF 1
ENDMDL
