MODEL 1
REMARK VINA RESULT:      -7.5      0.000      0.000
REMARK  Name = 
REMARK  14 active torsions:
REMARK  status: ('A' for Active; 'I' for Inactive)
REMARK    1  A    between atoms: C_1  and  C_2
REMARK    2  A    between atoms: C_2  and  C_3
REMARK    3  A    between atoms: C_3  and  C_4
REMARK    4  A    between atoms: C_4  and  C_5
REMARK    5  A    between atoms: C_5  and  C_6
REMARK    6  A    between atoms: C_6  and  C_7
REMARK    7  A    between atoms: C_7  and  C_8
REMARK    8  A    between atoms: C_8  and  C_9
REMARK    9  A    between atoms: C_9  and  C_10
REMARK   10  A    between atoms: C_10  and  C_11
REMARK   11  A    between atoms: C_11  and  C_12
REMARK   12  A    between atoms: C_15  and  C_16
REMARK   13  A    between atoms: C_18  and  C_19
REMARK   14  A    between atoms: C_25  and  O_26
REMARK                            x       y       z     vdW  Elec       q    Type
REMARK                         _______ _______ _______ _____ _____    ______ ____
ROOT
ATOM      1  C   UNL     1       2.323   6.425  19.956  0.00  0.00    +0.000 C 
ATOM      2  N   UNL     1       3.396   6.032  19.344  0.00  0.00    +0.000 NA
ATOM      3  C   UNL     1       3.535   4.703  19.676  0.00  0.00    +0.000 C 
ATOM      4  C   UNL     1       4.505   3.896  19.252  0.00  0.00    +0.000 C 
ATOM      5  C   UNL     1       2.434   4.343  20.537  0.00  0.00    +0.000 C 
ATOM      6  C   UNL     1       1.650   5.399  20.757  0.00  0.00    +0.000 C 
ENDROOT
BRANCH   4   7
ATOM      7  C   UNL     1       5.532   4.318  18.365  0.00  0.00    +0.000 A 
ATOM      8  N   UNL     1       5.463   4.082  17.000  0.00  0.00    +0.000 N 
ATOM      9  C   UNL     1       6.593   4.555  16.375  0.00  0.00    +0.000 A 
ATOM     10  C   UNL     1       7.407   5.079  17.359  0.00  0.00    +0.000 A 
ATOM     11  C   UNL     1       6.739   4.939  18.583  0.00  0.00    +0.000 A 
ATOM     12  H   UNL     1       4.683   3.607  16.554  0.00  0.00    +0.000 HD
BRANCH   9  13
ATOM     13  C   UNL     1       6.829   4.504  14.968  0.00  0.00    +0.000 A 
ATOM     14  C   UNL     1       6.251   3.744  13.976  0.00  0.00    +0.000 A 
ATOM     15  C   UNL     1       6.829   4.130  12.739  0.00  0.00    +0.000 A 
ATOM     16  C   UNL     1       7.748   5.117  13.007  0.00  0.00    +0.000 A 
ATOM     17  N   UNL     1       7.739   5.339  14.357  0.00  0.00    +0.000 N 
ATOM     18  H   UNL     1       8.298   6.026  14.837  0.00  0.00    +0.000 HD
ENDBRANCH   9  13
BRANCH  11  19
ATOM     19  O   UNL     1       7.160   5.313  19.797  0.00  0.00    +0.000 OA
ATOM     20  H   UNL     1       7.626   4.573  20.220  0.00  0.00    +0.000 HD
ENDBRANCH  11  19
ENDBRANCH   4   7
BRANCH   1  21
ATOM     21  C   UNL     1       1.812   7.827  19.875  0.00  0.00    +0.000 C 
BRANCH  21  22
ATOM     22  C   UNL     1       2.046   8.387  18.478  0.00  0.00    +0.000 C 
BRANCH  22  23
ATOM     23  C   UNL     1       1.032   9.475  18.161  0.00  0.00    +0.000 C 
BRANCH  23  24
ATOM     24  C   UNL     1       1.622  10.847  18.449  0.00  0.00    +0.000 C 
BRANCH  24  25
ATOM     25  C   UNL     1       0.739  11.606  19.425  0.00  0.00    +0.000 C 
BRANCH  25  26
ATOM     26  C   UNL     1      -0.512  10.800  19.734  0.00  0.00    +0.000 C 
BRANCH  26  27
ATOM     27  C   UNL     1      -1.752  11.618  19.420  0.00  0.00    +0.000 C 
BRANCH  27  28
ATOM     28  C   UNL     1      -1.939  11.727  17.916  0.00  0.00    +0.000 C 
BRANCH  28  29
ATOM     29  C   UNL     1      -3.042  10.786  17.456  0.00  0.00    +0.000 C 
BRANCH  29  31
ATOM     30  C   UNL     1      -2.959  10.414  14.991  0.00  0.00    +0.000 C 
ATOM     31  C   UNL     1      -2.536   9.877  16.344  0.00  0.00    +0.000 C 
ENDBRANCH  29  31
ENDBRANCH  28  29
ENDBRANCH  27  28
ENDBRANCH  26  27
ENDBRANCH  25  26
ENDBRANCH  24  25
ENDBRANCH  23  24
ENDBRANCH  22  23
ENDBRANCH  21  22
ENDBRANCH   1  21
TORSDOF 13
ENDMDL
MODEL 2
REMARK VINA RESULT:      -7.2      3.115      9.370
REMARK  Name = 
REMARK  14 active torsions:
REMARK  status: ('A' for Active; 'I' for Inactive)
REMARK    1  A    between atoms: C_1  and  C_2
REMARK    2  A    between atoms: C_2  and  C_3
REMARK    3  A    between atoms: C_3  and  C_4
REMARK    4  A    between atoms: C_4  and  C_5
REMARK    5  A    between atoms: C_5  and  C_6
REMARK    6  A    between atoms: C_6  and  C_7
REMARK    7  A    between atoms: C_7  and  C_8
REMARK    8  A    between atoms: C_8  and  C_9
REMARK    9  A    between atoms: C_9  and  C_10
REMARK   10  A    between atoms: C_10  and  C_11
REMARK   11  A    between atoms: C_11  and  C_12
REMARK   12  A    between atoms: C_15  and  C_16
REMARK   13  A    between atoms: C_18  and  C_19
REMARK   14  A    between atoms: C_25  and  O_26
REMARK                            x       y       z     vdW  Elec       q    Type
REMARK                         _______ _______ _______ _____ _____    ______ ____
ROOT
ATOM      1  C   UNL     1       2.177   6.968  19.668  0.00  0.00    +0.000 C 
ATOM      2  N   UNL     1       1.493   8.057  19.502  0.00  0.00    +0.000 NA
ATOM      3  C   UNL     1       2.027   8.649  18.380  0.00  0.00    +0.000 C 
ATOM      4  C   UNL     1       1.612   9.793  17.837  0.00  0.00    +0.000 C 
ATOM      5  C   UNL     1       3.087   7.802  17.891  0.00  0.00    +0.000 C 
ATOM      6  C   UNL     1       3.233   6.736  18.680  0.00  0.00    +0.000 C 
ENDROOT
BRANCH   4   7
ATOM      7  C   UNL     1       0.526  10.548  18.354  0.00  0.00    +0.000 A 
ATOM      8  N   UNL     1      -0.752  10.452  17.825  0.00  0.00    +0.000 N 
ATOM      9  C   UNL     1      -1.607  11.310  18.477  0.00  0.00    +0.000 A 
ATOM     10  C   UNL     1      -0.858  11.981  19.422  0.00  0.00    +0.000 A 
ATOM     11  C   UNL     1       0.456  11.496  19.348  0.00  0.00    +0.000 A 
ATOM     12  H   UNL     1      -0.991   9.839  17.049  0.00  0.00    +0.000 HD
BRANCH   9  13
ATOM     13  C   UNL     1      -3.002  11.435  18.203  0.00  0.00    +0.000 A 
ATOM     14  C   UNL     1      -3.799  10.840  17.250  0.00  0.00    +0.000 A 
ATOM     15  C   UNL     1      -5.130  11.286  17.457  0.00  0.00    +0.000 A 
ATOM     16  C   UNL     1      -5.113  12.144  18.531  0.00  0.00    +0.000 A 
ATOM     17  N   UNL     1      -3.822  12.226  18.978  0.00  0.00    +0.000 N 
ATOM     18  H   UNL     1      -3.514  12.765  19.771  0.00  0.00    +0.000 HD
ENDBRANCH   9  13
BRANCH  11  19
ATOM     19  O   UNL     1       1.511  11.867  20.082  0.00  0.00    +0.000 OA
ATOM     20  H   UNL     1       1.261  12.609  20.656  0.00  0.00    +0.000 HD
ENDBRANCH  11  19
ENDBRANCH   4   7
BRANCH   1  21
ATOM     21  C   UNL     1       1.929   6.021  20.798  0.00  0.00    +0.000 C 
BRANCH  21  22
ATOM     22  C   UNL     1       2.304   4.605  20.383  0.00  0.00    +0.000 C 
BRANCH  22  23
ATOM     23  C   UNL     1       1.155   3.646  20.653  0.00  0.00    +0.000 C 
BRANCH  23  24
ATOM     24  C   UNL     1       0.793   2.886  19.386  0.00  0.00    +0.000 C 
BRANCH  24  25
ATOM     25  C   UNL     1       1.624   3.384  18.217  0.00  0.00    +0.000 C 
BRANCH  25  26
ATOM     26  C   UNL     1       2.460   2.251  17.649  0.00  0.00    +0.000 C 
BRANCH  26  27
ATOM     27  C   UNL     1       3.928   2.643  17.627  0.00  0.00    +0.000 C 
BRANCH  27  28
ATOM     28  C   UNL     1       4.120   3.902  16.798  0.00  0.00    +0.000 C 
BRANCH  28  29
ATOM     29  C   UNL     1       5.534   4.432  16.970  0.00  0.00    +0.000 C 
BRANCH  29  31
ATOM     30  C   UNL     1       5.604   4.326  14.479  0.00  0.00    +0.000 C 
ATOM     31  C   UNL     1       6.385   4.085  15.756  0.00  0.00    +0.000 C 
ENDBRANCH  29  31
ENDBRANCH  28  29
ENDBRANCH  27  28
ENDBRANCH  26  27
ENDBRANCH  25  26
ENDBRANCH  24  25
ENDBRANCH  23  24
ENDBRANCH  22  23
ENDBRANCH  21  22
ENDBRANCH   1  21
TORSDOF 13
ENDMDL
MODEL 3
REMARK VINA RESULT:      -7.2      2.863      8.989
REMARK  Name = 
REMARK  14 active torsions:
REMARK  status: ('A' for Active; 'I' for Inactive)
REMARK    1  A    between atoms: C_1  and  C_2
REMARK    2  A    between atoms: C_2  and  C_3
REMARK    3  A    between atoms: C_3  and  C_4
REMARK    4  A    between atoms: C_4  and  C_5
REMARK    5  A    between atoms: C_5  and  C_6
REMARK    6  A    between atoms: C_6  and  C_7
REMARK    7  A    between atoms: C_7  and  C_8
REMARK    8  A    between atoms: C_8  and  C_9
REMARK    9  A    between atoms: C_9  and  C_10
REMARK   10  A    between atoms: C_10  and  C_11
REMARK   11  A    between atoms: C_11  and  C_12
REMARK   12  A    between atoms: C_15  and  C_16
REMARK   13  A    between atoms: C_18  and  C_19
REMARK   14  A    between atoms: C_25  and  O_26
REMARK                            x       y       z     vdW  Elec       q    Type
REMARK                         _______ _______ _______ _____ _____    ______ ____
ROOT
ATOM      1  C   UNL     1       2.291   6.200  19.911  0.00  0.00    +0.000 C 
ATOM      2  N   UNL     1       1.629   7.280  19.637  0.00  0.00    +0.000 NA
ATOM      3  C   UNL     1       2.351   7.903  18.644  0.00  0.00    +0.000 C 
ATOM      4  C   UNL     1       2.023   9.049  18.051  0.00  0.00    +0.000 C 
ATOM      5  C   UNL     1       3.501   7.083  18.351  0.00  0.00    +0.000 C 
ATOM      6  C   UNL     1       3.518   6.005  19.135  0.00  0.00    +0.000 C 
ENDROOT
BRANCH   4   7
ATOM      7  C   UNL     1       0.844   9.776  18.367  0.00  0.00    +0.000 A 
ATOM      8  N   UNL     1      -0.233   9.841  17.496  0.00  0.00    +0.000 N 
ATOM      9  C   UNL     1      -1.227  10.633  18.021  0.00  0.00    +0.000 A 
ATOM     10  C   UNL     1      -0.768  11.101  19.236  0.00  0.00    +0.000 A 
ATOM     11  C   UNL     1       0.507  10.558  19.447  0.00  0.00    +0.000 A 
ATOM     12  H   UNL     1      -0.250   9.373  16.593  0.00  0.00    +0.000 HD
BRANCH   9  13
ATOM     13  C   UNL     1      -2.486  10.883  17.397  0.00  0.00    +0.000 A 
ATOM     14  C   UNL     1      -3.764  10.924  17.909  0.00  0.00    +0.000 A 
ATOM     15  C   UNL     1      -4.645  11.263  16.851  0.00  0.00    +0.000 A 
ATOM     16  C   UNL     1      -3.885  11.420  15.717  0.00  0.00    +0.000 A 
ATOM     17  N   UNL     1      -2.579  11.191  16.056  0.00  0.00    +0.000 N 
ATOM     18  H   UNL     1      -1.794  11.258  15.429  0.00  0.00    +0.000 HD
ENDBRANCH   9  13
BRANCH  11  19
ATOM     19  O   UNL     1       1.316  10.745  20.497  0.00  0.00    +0.000 OA
ATOM     20  H   UNL     1       1.324  11.686  20.735  0.00  0.00    +0.000 HD
ENDBRANCH  11  19
ENDBRANCH   4   7
BRANCH   1  21
ATOM     21  C   UNL     1       1.854   5.227  20.959  0.00  0.00    +0.000 C 
BRANCH  21  22
ATOM     22  C   UNL     1       2.307   3.822  20.586  0.00  0.00    +0.000 C 
BRANCH  22  23
ATOM     23  C   UNL     1       1.107   2.934  20.294  0.00  0.00    +0.000 C 
BRANCH  23  24
ATOM     24  C   UNL     1       0.967   2.710  18.796  0.00  0.00    +0.000 C 
BRANCH  24  25
ATOM     25  C   UNL     1       2.283   2.225  18.211  0.00  0.00    +0.000 C 
BRANCH  25  26
ATOM     26  C   UNL     1       2.772   3.194  17.149  0.00  0.00    +0.000 C 
BRANCH  26  27
ATOM     27  C   UNL     1       4.290   3.252  17.153  0.00  0.00    +0.000 C 
BRANCH  27  28
ATOM     28  C   UNL     1       4.774   4.325  16.192  0.00  0.00    +0.000 C 
BRANCH  28  29
ATOM     29  C   UNL     1       5.951   3.809  15.381  0.00  0.00    +0.000 C 
BRANCH  29  31
ATOM     30  C   UNL     1       6.898   5.777  16.585  0.00  0.00    +0.000 C 
ATOM     31  C   UNL     1       7.125   4.776  15.470  0.00  0.00    +0.000 C 
ENDBRANCH  29  31
ENDBRANCH  28  29
ENDBRANCH  27  28
ENDBRANCH  26  27
ENDBRANCH  25  26
ENDBRANCH  24  25
ENDBRANCH  23  24
ENDBRANCH  22  23
ENDBRANCH  21  22
ENDBRANCH   1  21
TORSDOF 13
ENDMDL
MODEL 4
REMARK VINA RESULT:      -7.0      1.050      1.352
REMARK  Name = 
REMARK  14 active torsions:
REMARK  status: ('A' for Active; 'I' for Inactive)
REMARK    1  A    between atoms: C_1  and  C_2
REMARK    2  A    between atoms: C_2  and  C_3
REMARK    3  A    between atoms: C_3  and  C_4
REMARK    4  A    between atoms: C_4  and  C_5
REMARK    5  A    between atoms: C_5  and  C_6
REMARK    6  A    between atoms: C_6  and  C_7
REMARK    7  A    between atoms: C_7  and  C_8
REMARK    8  A    between atoms: C_8  and  C_9
REMARK    9  A    between atoms: C_9  and  C_10
REMARK   10  A    between atoms: C_10  and  C_11
REMARK   11  A    between atoms: C_11  and  C_12
REMARK   12  A    between atoms: C_15  and  C_16
REMARK   13  A    between atoms: C_18  and  C_19
REMARK   14  A    between atoms: C_25  and  O_26
REMARK                            x       y       z     vdW  Elec       q    Type
REMARK                         _______ _______ _______ _____ _____    ______ ____
ROOT
ATOM      1  C   UNL     1       2.038   4.985  20.482  0.00  0.00    +0.000 C 
ATOM      2  N   UNL     1       3.092   4.909  19.733  0.00  0.00    +0.000 NA
ATOM      3  C   UNL     1       3.466   3.584  19.768  0.00  0.00    +0.000 C 
ATOM      4  C   UNL     1       4.502   3.054  19.120  0.00  0.00    +0.000 C 
ATOM      5  C   UNL     1       2.525   2.880  20.604  0.00  0.00    +0.000 C 
ATOM      6  C   UNL     1       1.614   3.722  21.092  0.00  0.00    +0.000 C 
ENDROOT
BRANCH   4   7
ATOM      7  C   UNL     1       5.358   3.811  18.276  0.00  0.00    +0.000 A 
ATOM      8  N   UNL     1       5.448   3.566  16.914  0.00  0.00    +0.000 N 
ATOM      9  C   UNL     1       6.370   4.407  16.336  0.00  0.00    +0.000 A 
ATOM     10  C   UNL     1       6.894   5.186  17.348  0.00  0.00    +0.000 A 
ATOM     11  C   UNL     1       6.255   4.819  18.541  0.00  0.00    +0.000 A 
ATOM     12  H   UNL     1       4.910   2.846  16.439  0.00  0.00    +0.000 HD
BRANCH   9  13
ATOM     13  C   UNL     1       6.680   4.442  14.943  0.00  0.00    +0.000 A 
ATOM     14  C   UNL     1       6.132   3.774  13.871  0.00  0.00    +0.000 A 
ATOM     15  C   UNL     1       6.791   4.220  12.697  0.00  0.00    +0.000 A 
ATOM     16  C   UNL     1       7.728   5.150  13.081  0.00  0.00    +0.000 A 
ATOM     17  N   UNL     1       7.652   5.280  14.441  0.00  0.00    +0.000 N 
ATOM     18  H   UNL     1       8.207   5.911  14.996  0.00  0.00    +0.000 HD
ENDBRANCH   9  13
BRANCH  11  19
ATOM     19  O   UNL     1       6.455   5.318  19.766  0.00  0.00    +0.000 OA
ATOM     20  H   UNL     1       7.406   5.326  19.962  0.00  0.00    +0.000 HD
ENDBRANCH  11  19
ENDBRANCH   4   7
BRANCH   1  21
ATOM     21  C   UNL     1       1.312   6.267  20.732  0.00  0.00    +0.000 C 
BRANCH  21  22
ATOM     22  C   UNL     1       2.041   7.419  20.053  0.00  0.00    +0.000 C 
BRANCH  22  23
ATOM     23  C   UNL     1       1.166   8.663  20.024  0.00  0.00    +0.000 C 
BRANCH  23  24
ATOM     24  C   UNL     1       0.921   9.169  21.437  0.00  0.00    +0.000 C 
BRANCH  24  25
ATOM     25  C   UNL     1       0.398  10.594  21.403  0.00  0.00    +0.000 C 
BRANCH  25  26
ATOM     26  C   UNL     1      -0.081  10.943  20.004  0.00  0.00    +0.000 C 
BRANCH  26  27
ATOM     27  C   UNL     1      -1.394  11.703  20.075  0.00  0.00    +0.000 C 
BRANCH  27  28
ATOM     28  C   UNL     1      -2.057  11.728  18.708  0.00  0.00    +0.000 C 
BRANCH  28  29
ATOM     29  C   UNL     1      -1.781  10.429  17.968  0.00  0.00    +0.000 C 
BRANCH  29  31
ATOM     30  C   UNL     1      -4.010  10.876  16.941  0.00  0.00    +0.000 C 
ATOM     31  C   UNL     1      -3.083   9.806  17.482  0.00  0.00    +0.000 C 
ENDBRANCH  29  31
ENDBRANCH  28  29
ENDBRANCH  27  28
ENDBRANCH  26  27
ENDBRANCH  25  26
ENDBRANCH  24  25
ENDBRANCH  23  24
ENDBRANCH  22  23
ENDBRANCH  21  22
ENDBRANCH   1  21
TORSDOF 13
ENDMDL
MODEL 5
REMARK VINA RESULT:      -7.0      0.939      1.228
REMARK  Name = 
REMARK  14 active torsions:
REMARK  status: ('A' for Active; 'I' for Inactive)
REMARK    1  A    between atoms: C_1  and  C_2
REMARK    2  A    between atoms: C_2  and  C_3
REMARK    3  A    between atoms: C_3  and  C_4
REMARK    4  A    between atoms: C_4  and  C_5
REMARK    5  A    between atoms: C_5  and  C_6
REMARK    6  A    between atoms: C_6  and  C_7
REMARK    7  A    between atoms: C_7  and  C_8
REMARK    8  A    between atoms: C_8  and  C_9
REMARK    9  A    between atoms: C_9  and  C_10
REMARK   10  A    between atoms: C_10  and  C_11
REMARK   11  A    between atoms: C_11  and  C_12
REMARK   12  A    between atoms: C_15  and  C_16
REMARK   13  A    between atoms: C_18  and  C_19
REMARK   14  A    between atoms: C_25  and  O_26
REMARK                            x       y       z     vdW  Elec       q    Type
REMARK                         _______ _______ _______ _____ _____    ______ ____
ROOT
ATOM      1  C   UNL     1       2.334   6.486  19.889  0.00  0.00    +0.000 C 
ATOM      2  N   UNL     1       3.415   6.086  19.296  0.00  0.00    +0.000 NA
ATOM      3  C   UNL     1       3.564   4.768  19.666  0.00  0.00    +0.000 C 
ATOM      4  C   UNL     1       4.544   3.959  19.271  0.00  0.00    +0.000 C 
ATOM      5  C   UNL     1       2.461   4.423  20.530  0.00  0.00    +0.000 C 
ATOM      6  C   UNL     1       1.666   5.477  20.715  0.00  0.00    +0.000 C 
ENDROOT
BRANCH   4   7
ATOM      7  C   UNL     1       5.573   4.364  18.378  0.00  0.00    +0.000 A 
ATOM      8  N   UNL     1       5.494   4.128  17.014  0.00  0.00    +0.000 N 
ATOM      9  C   UNL     1       6.628   4.584  16.383  0.00  0.00    +0.000 A 
ATOM     10  C   UNL     1       7.454   5.098  17.363  0.00  0.00    +0.000 A 
ATOM     11  C   UNL     1       6.789   4.969  18.590  0.00  0.00    +0.000 A 
ATOM     12  H   UNL     1       4.705   3.664  16.572  0.00  0.00    +0.000 HD
BRANCH   9  13
ATOM     13  C   UNL     1       6.856   4.528  14.975  0.00  0.00    +0.000 A 
ATOM     14  C   UNL     1       6.259   3.779  13.986  0.00  0.00    +0.000 A 
ATOM     15  C   UNL     1       6.839   4.154  12.747  0.00  0.00    +0.000 A 
ATOM     16  C   UNL     1       7.779   5.122  13.010  0.00  0.00    +0.000 A 
ATOM     17  N   UNL     1       7.781   5.344  14.361  0.00  0.00    +0.000 N 
ATOM     18  H   UNL     1       8.355   6.020  14.838  0.00  0.00    +0.000 HD
ENDBRANCH   9  13
BRANCH  11  19
ATOM     19  O   UNL     1       7.222   5.338  19.802  0.00  0.00    +0.000 OA
ATOM     20  H   UNL     1       6.729   4.853  20.483  0.00  0.00    +0.000 HD
ENDBRANCH  11  19
ENDBRANCH   4   7
BRANCH   1  21
ATOM     21  C   UNL     1       1.811   7.881  19.765  0.00  0.00    +0.000 C 
BRANCH  21  22
ATOM     22  C   UNL     1       2.018   8.390  18.345  0.00  0.00    +0.000 C 
BRANCH  22  23
ATOM     23  C   UNL     1       1.700   9.874  18.258  0.00  0.00    +0.000 C 
BRANCH  23  24
ATOM     24  C   UNL     1       0.275  10.137  18.721  0.00  0.00    +0.000 C 
BRANCH  24  25
ATOM     25  C   UNL     1       0.234  11.345  19.641  0.00  0.00    +0.000 C 
BRANCH  25  26
ATOM     26  C   UNL     1      -0.872  12.294  19.211  0.00  0.00    +0.000 C 
BRANCH  26  27
ATOM     27  C   UNL     1      -1.627  11.715  18.027  0.00  0.00    +0.000 C 
BRANCH  27  28
ATOM     28  C   UNL     1      -3.068  11.429  18.416  0.00  0.00    +0.000 C 
BRANCH  28  29
ATOM     29  C   UNL     1      -3.937  11.334  17.173  0.00  0.00    +0.000 C 
BRANCH  29  31
ATOM     30  C   UNL     1      -6.102  12.568  17.280  0.00  0.00    +0.000 C 
ATOM     31  C   UNL     1      -5.408  11.249  17.556  0.00  0.00    +0.000 C 
ENDBRANCH  29  31
ENDBRANCH  28  29
ENDBRANCH  27  28
ENDBRANCH  26  27
ENDBRANCH  25  26
ENDBRANCH  24  25
ENDBRANCH  23  24
ENDBRANCH  22  23
ENDBRANCH  21  22
ENDBRANCH   1  21
TORSDOF 13
ENDMDL
MODEL 6
REMARK VINA RESULT:      -6.9      2.538      8.279
REMARK  Name = 
REMARK  14 active torsions:
REMARK  status: ('A' for Active; 'I' for Inactive)
REMARK    1  A    between atoms: C_1  and  C_2
REMARK    2  A    between atoms: C_2  and  C_3
REMARK    3  A    between atoms: C_3  and  C_4
REMARK    4  A    between atoms: C_4  and  C_5
REMARK    5  A    between atoms: C_5  and  C_6
REMARK    6  A    between atoms: C_6  and  C_7
REMARK    7  A    between atoms: C_7  and  C_8
REMARK    8  A    between atoms: C_8  and  C_9
REMARK    9  A    between atoms: C_9  and  C_10
REMARK   10  A    between atoms: C_10  and  C_11
REMARK   11  A    between atoms: C_11  and  C_12
REMARK   12  A    between atoms: C_15  and  C_16
REMARK   13  A    between atoms: C_18  and  C_19
REMARK   14  A    between atoms: C_25  and  O_26
REMARK                            x       y       z     vdW  Elec       q    Type
REMARK                         _______ _______ _______ _____ _____    ______ ____
ROOT
ATOM      1  C   UNL     1       1.857   3.643  19.346  0.00  0.00    +0.000 C 
ATOM      2  N   UNL     1       1.810   4.926  19.171  0.00  0.00    +0.000 NA
ATOM      3  C   UNL     1       2.001   5.468  20.422  0.00  0.00    +0.000 C 
ATOM      4  C   UNL     1       2.041   6.769  20.705  0.00  0.00    +0.000 C 
ATOM      5  C   UNL     1       2.174   4.381  21.355  0.00  0.00    +0.000 C 
ATOM      6  C   UNL     1       2.075   3.209  20.728  0.00  0.00    +0.000 C 
ENDROOT
BRANCH   4   7
ATOM      7  C   UNL     1       1.906   7.782  19.718  0.00  0.00    +0.000 A 
ATOM      8  N   UNL     1       1.069   8.872  19.896  0.00  0.00    +0.000 N 
ATOM      9  C   UNL     1       1.092   9.681  18.783  0.00  0.00    +0.000 A 
ATOM     10  C   UNL     1       1.940   9.085  17.872  0.00  0.00    +0.000 A 
ATOM     11  C   UNL     1       2.447   7.919  18.461  0.00  0.00    +0.000 A 
ATOM     12  H   UNL     1       0.512   9.018  20.734  0.00  0.00    +0.000 HD
BRANCH   9  13
ATOM     13  C   UNL     1       0.370  10.905  18.650  0.00  0.00    +0.000 A 
ATOM     14  C   UNL     1      -0.978  11.179  18.723  0.00  0.00    +0.000 A 
ATOM     15  C   UNL     1      -1.146  12.578  18.564  0.00  0.00    +0.000 A 
ATOM     16  C   UNL     1       0.104  13.125  18.396  0.00  0.00    +0.000 A 
ATOM     17  N   UNL     1       1.016  12.106  18.452  0.00  0.00    +0.000 N 
ATOM     18  H   UNL     1       2.014  12.215  18.383  0.00  0.00    +0.000 HD
ENDBRANCH   9  13
BRANCH  11  19
ATOM     19  O   UNL     1       3.305   7.038  17.933  0.00  0.00    +0.000 OA
ATOM     20  H   UNL     1       2.899   6.156  17.926  0.00  0.00    +0.000 HD
ENDBRANCH  11  19
ENDBRANCH   4   7
BRANCH   1  21
ATOM     21  C   UNL     1       1.678   2.666  18.228  0.00  0.00    +0.000 C 
BRANCH  21  22
ATOM     22  C   UNL     1       3.023   2.062  17.846  0.00  0.00    +0.000 C 
BRANCH  22  23
ATOM     23  C   UNL     1       4.113   3.122  17.875  0.00  0.00    +0.000 C 
BRANCH  23  24
ATOM     24  C   UNL     1       4.147   3.882  16.558  0.00  0.00    +0.000 C 
BRANCH  24  25
ATOM     25  C   UNL     1       5.486   3.681  15.869  0.00  0.00    +0.000 C 
BRANCH  25  26
ATOM     26  C   UNL     1       5.911   4.960  15.169  0.00  0.00    +0.000 C 
BRANCH  26  27
ATOM     27  C   UNL     1       7.085   5.590  15.898  0.00  0.00    +0.000 C 
BRANCH  27  28
ATOM     28  C   UNL     1       6.584   6.545  16.969  0.00  0.00    +0.000 C 
BRANCH  28  29
ATOM     29  C   UNL     1       7.715   6.910  17.916  0.00  0.00    +0.000 C 
BRANCH  29  31
ATOM     30  C   UNL     1       6.376   5.426  19.409  0.00  0.00    +0.000 C 
ATOM     31  C   UNL     1       7.767   5.936  19.085  0.00  0.00    +0.000 C 
ENDBRANCH  29  31
ENDBRANCH  28  29
ENDBRANCH  27  28
ENDBRANCH  26  27
ENDBRANCH  25  26
ENDBRANCH  24  25
ENDBRANCH  23  24
ENDBRANCH  22  23
ENDBRANCH  21  22
ENDBRANCH   1  21
TORSDOF 13
ENDMDL
MODEL 7
REMARK VINA RESULT:      -6.9      1.044      1.348
REMARK  Name = 
REMARK  14 active torsions:
REMARK  status: ('A' for Active; 'I' for Inactive)
REMARK    1  A    between atoms: C_1  and  C_2
REMARK    2  A    between atoms: C_2  and  C_3
REMARK    3  A    between atoms: C_3  and  C_4
REMARK    4  A    between atoms: C_4  and  C_5
REMARK    5  A    between atoms: C_5  and  C_6
REMARK    6  A    between atoms: C_6  and  C_7
REMARK    7  A    between atoms: C_7  and  C_8
REMARK    8  A    between atoms: C_8  and  C_9
REMARK    9  A    between atoms: C_9  and  C_10
REMARK   10  A    between atoms: C_10  and  C_11
REMARK   11  A    between atoms: C_11  and  C_12
REMARK   12  A    between atoms: C_15  and  C_16
REMARK   13  A    between atoms: C_18  and  C_19
REMARK   14  A    between atoms: C_25  and  O_26
REMARK                            x       y       z     vdW  Elec       q    Type
REMARK                         _______ _______ _______ _____ _____    ______ ____
ROOT
ATOM      1  C   UNL     1       2.102   5.832  20.090  0.00  0.00    +0.000 C 
ATOM      2  N   UNL     1       3.102   5.512  19.330  0.00  0.00    +0.000 NA
ATOM      3  C   UNL     1       2.977   4.158  19.120  0.00  0.00    +0.000 C 
ATOM      4  C   UNL     1       3.792   3.410  18.378  0.00  0.00    +0.000 C 
ATOM      5  C   UNL     1       1.801   3.706  19.823  0.00  0.00    +0.000 C 
ATOM      6  C   UNL     1       1.222   4.722  20.464  0.00  0.00    +0.000 C 
ENDROOT
BRANCH   4   7
ATOM      7  C   UNL     1       4.908   3.942  17.678  0.00  0.00    +0.000 A 
ATOM      8  N   UNL     1       5.043   3.808  16.304  0.00  0.00    +0.000 N 
ATOM      9  C   UNL     1       6.223   4.374  15.881  0.00  0.00    +0.000 A 
ATOM     10  C   UNL     1       6.863   4.857  17.005  0.00  0.00    +0.000 A 
ATOM     11  C   UNL     1       6.039   4.595  18.109  0.00  0.00    +0.000 A 
ATOM     12  H   UNL     1       4.359   3.336  15.719  0.00  0.00    +0.000 HD
BRANCH   9  13
ATOM     13  C   UNL     1       6.654   4.441  14.522  0.00  0.00    +0.000 A 
ATOM     14  C   UNL     1       6.248   3.748  13.403  0.00  0.00    +0.000 A 
ATOM     15  C   UNL     1       6.979   4.246  12.294  0.00  0.00    +0.000 A 
ATOM     16  C   UNL     1       7.816   5.230  12.763  0.00  0.00    +0.000 A 
ATOM     17  N   UNL     1       7.611   5.344  14.111  0.00  0.00    +0.000 N 
ATOM     18  H   UNL     1       8.072   6.004  14.716  0.00  0.00    +0.000 HD
ENDBRANCH   9  13
BRANCH  11  19
ATOM     19  O   UNL     1       6.267   4.893  19.393  0.00  0.00    +0.000 OA
ATOM     20  H   UNL     1       5.575   5.493  19.714  0.00  0.00    +0.000 HD
ENDBRANCH  11  19
ENDBRANCH   4   7
BRANCH   1  21
ATOM     21  C   UNL     1       1.866   7.226  20.575  0.00  0.00    +0.000 C 
BRANCH  21  22
ATOM     22  C   UNL     1       2.062   8.214  19.433  0.00  0.00    +0.000 C 
BRANCH  22  23
ATOM     23  C   UNL     1       0.944   9.246  19.421  0.00  0.00    +0.000 C 
BRANCH  23  24
ATOM     24  C   UNL     1       0.246   9.284  20.772  0.00  0.00    +0.000 C 
BRANCH  24  25
ATOM     25  C   UNL     1       0.375  10.664  21.393  0.00  0.00    +0.000 C 
BRANCH  25  26
ATOM     26  C   UNL     1      -0.727  11.575  20.878  0.00  0.00    +0.000 C 
BRANCH  26  27
ATOM     27  C   UNL     1      -0.130  12.708  20.061  0.00  0.00    +0.000 C 
BRANCH  27  28
ATOM     28  C   UNL     1      -0.852  12.827  18.729  0.00  0.00    +0.000 C 
BRANCH  28  29
ATOM     29  C   UNL     1      -2.043  11.884  18.692  0.00  0.00    +0.000 C 
BRANCH  29  31
ATOM     30  C   UNL     1      -2.255   9.863  17.245  0.00  0.00    +0.000 C 
ATOM     31  C   UNL     1      -2.279  11.379  17.275  0.00  0.00    +0.000 C 
ENDBRANCH  29  31
ENDBRANCH  28  29
ENDBRANCH  27  28
ENDBRANCH  26  27
ENDBRANCH  25  26
ENDBRANCH  24  25
ENDBRANCH  23  24
ENDBRANCH  22  23
ENDBRANCH  21  22
ENDBRANCH   1  21
TORSDOF 13
ENDMDL
MODEL 8
REMARK VINA RESULT:      -6.9      1.465      2.131
REMARK  Name = 
REMARK  14 active torsions:
REMARK  status: ('A' for Active; 'I' for Inactive)
REMARK    1  A    between atoms: C_1  and  C_2
REMARK    2  A    between atoms: C_2  and  C_3
REMARK    3  A    between atoms: C_3  and  C_4
REMARK    4  A    between atoms: C_4  and  C_5
REMARK    5  A    between atoms: C_5  and  C_6
REMARK    6  A    between atoms: C_6  and  C_7
REMARK    7  A    between atoms: C_7  and  C_8
REMARK    8  A    between atoms: C_8  and  C_9
REMARK    9  A    between atoms: C_9  and  C_10
REMARK   10  A    between atoms: C_10  and  C_11
REMARK   11  A    between atoms: C_11  and  C_12
REMARK   12  A    between atoms: C_15  and  C_16
REMARK   13  A    between atoms: C_18  and  C_19
REMARK   14  A    between atoms: C_25  and  O_26
REMARK                            x       y       z     vdW  Elec       q    Type
REMARK                         _______ _______ _______ _____ _____    ______ ____
ROOT
ATOM      1  C   UNL     1       2.295   7.160  19.561  0.00  0.00    +0.000 C 
ATOM      2  N   UNL     1       3.368   6.602  19.093  0.00  0.00    +0.000 NA
ATOM      3  C   UNL     1       3.422   5.365  19.693  0.00  0.00    +0.000 C 
ATOM      4  C   UNL     1       4.363   4.445  19.488  0.00  0.00    +0.000 C 
ATOM      5  C   UNL     1       2.272   5.238  20.555  0.00  0.00    +0.000 C 
ATOM      6  C   UNL     1       1.538   6.351  20.519  0.00  0.00    +0.000 C 
ENDROOT
BRANCH   4   7
ATOM      7  C   UNL     1       5.444   4.630  18.585  0.00  0.00    +0.000 A 
ATOM      8  N   UNL     1       5.304   4.420  17.222  0.00  0.00    +0.000 N 
ATOM      9  C   UNL     1       6.501   4.630  16.579  0.00  0.00    +0.000 A 
ATOM     10  C   UNL     1       7.426   4.956  17.549  0.00  0.00    +0.000 A 
ATOM     11  C   UNL     1       6.763   4.965  18.784  0.00  0.00    +0.000 A 
ATOM     12  H   UNL     1       4.430   4.132  16.788  0.00  0.00    +0.000 HD
BRANCH   9  13
ATOM     13  C   UNL     1       6.697   4.532  15.168  0.00  0.00    +0.000 A 
ATOM     14  C   UNL     1       6.040   3.797  14.207  0.00  0.00    +0.000 A 
ATOM     15  C   UNL     1       6.615   4.113  12.949  0.00  0.00    +0.000 A 
ATOM     16  C   UNL     1       7.611   5.033  13.173  0.00  0.00    +0.000 A 
ATOM     17  N   UNL     1       7.653   5.283  14.518  0.00  0.00    +0.000 N 
ATOM     18  H   UNL     1       8.272   5.936  14.970  0.00  0.00    +0.000 HD
ENDBRANCH   9  13
BRANCH  11  19
ATOM     19  O   UNL     1       7.276   5.232  19.991  0.00  0.00    +0.000 OA
ATOM     20  H   UNL     1       6.662   5.799  20.486  0.00  0.00    +0.000 HD
ENDBRANCH  11  19
ENDBRANCH   4   7
BRANCH   1  21
ATOM     21  C   UNL     1       1.864   8.538  19.173  0.00  0.00    +0.000 C 
BRANCH  21  22
ATOM     22  C   UNL     1       0.813   9.048  20.149  0.00  0.00    +0.000 C 
BRANCH  22  23
ATOM     23  C   UNL     1       0.441  10.488  19.829  0.00  0.00    +0.000 C 
BRANCH  23  24
ATOM     24  C   UNL     1      -0.990  10.564  19.321  0.00  0.00    +0.000 C 
BRANCH  24  25
ATOM     25  C   UNL     1      -1.051  10.159  17.858  0.00  0.00    +0.000 C 
BRANCH  25  26
ATOM     26  C   UNL     1      -2.245  10.812  17.183  0.00  0.00    +0.000 C 
BRANCH  26  27
ATOM     27  C   UNL     1      -3.537  10.209  17.707  0.00  0.00    +0.000 C 
BRANCH  27  28
ATOM     28  C   UNL     1      -4.428  11.298  18.281  0.00  0.00    +0.000 C 
BRANCH  28  29
ATOM     29  C   UNL     1      -5.850  11.136  17.769  0.00  0.00    +0.000 C 
BRANCH  29  31
ATOM     30  C   UNL     1      -6.575  11.340  20.147  0.00  0.00    +0.000 C 
ATOM     31  C   UNL     1      -6.745  10.561  18.858  0.00  0.00    +0.000 C 
ENDBRANCH  29  31
ENDBRANCH  28  29
ENDBRANCH  27  28
ENDBRANCH  26  27
ENDBRANCH  25  26
ENDBRANCH  24  25
ENDBRANCH  23  24
ENDBRANCH  22  23
ENDBRANCH  21  22
ENDBRANCH   1  21
TORSDOF 13
ENDMDL
MODEL 9
REMARK VINA RESULT:      -6.8      3.489      9.567
REMARK  Name = 
REMARK  14 active torsions:
REMARK  status: ('A' for Active; 'I' for Inactive)
REMARK    1  A    between atoms: C_1  and  C_2
REMARK    2  A    between atoms: C_2  and  C_3
REMARK    3  A    between atoms: C_3  and  C_4
REMARK    4  A    between atoms: C_4  and  C_5
REMARK    5  A    between atoms: C_5  and  C_6
REMARK    6  A    between atoms: C_6  and  C_7
REMARK    7  A    between atoms: C_7  and  C_8
REMARK    8  A    between atoms: C_8  and  C_9
REMARK    9  A    between atoms: C_9  and  C_10
REMARK   10  A    between atoms: C_10  and  C_11
REMARK   11  A    between atoms: C_11  and  C_12
REMARK   12  A    between atoms: C_15  and  C_16
REMARK   13  A    between atoms: C_18  and  C_19
REMARK   14  A    between atoms: C_25  and  O_26
REMARK                            x       y       z     vdW  Elec       q    Type
REMARK                         _______ _______ _______ _____ _____    ______ ____
ROOT
ATOM      1  C   UNL     1       2.011   7.172  19.736  0.00  0.00    +0.000 C 
ATOM      2  N   UNL     1       1.636   8.413  19.713  0.00  0.00    +0.000 NA
ATOM      3  C   UNL     1       2.024   8.884  18.479  0.00  0.00    +0.000 C 
ATOM      4  C   UNL     1       1.823  10.120  18.024  0.00  0.00    +0.000 C 
ATOM      5  C   UNL     1       2.657   7.800  17.769  0.00  0.00    +0.000 C 
ATOM      6  C   UNL     1       2.688   6.702  18.525  0.00  0.00    +0.000 C 
ENDROOT
BRANCH   4   7
ATOM      7  C   UNL     1       1.147  11.121  18.772  0.00  0.00    +0.000 A 
ATOM      8  N   UNL     1       0.236  10.803  19.767  0.00  0.00    +0.000 N 
ATOM      9  C   UNL     1      -0.301  11.948  20.308  0.00  0.00    +0.000 A 
ATOM     10  C   UNL     1       0.259  13.013  19.633  0.00  0.00    +0.000 A 
ATOM     11  C   UNL     1       1.161  12.494  18.693  0.00  0.00    +0.000 A 
ATOM     12  H   UNL     1       0.002   9.848  20.026  0.00  0.00    +0.000 HD
BRANCH   9  13
ATOM     13  C   UNL     1      -1.246  11.978  21.378  0.00  0.00    +0.000 A 
ATOM     14  C   UNL     1      -1.203  11.441  22.645  0.00  0.00    +0.000 A 
ATOM     15  C   UNL     1      -2.395  11.815  23.317  0.00  0.00    +0.000 A 
ATOM     16  C   UNL     1      -3.139  12.570  22.442  0.00  0.00    +0.000 A 
ATOM     17  N   UNL     1      -2.435  12.667  21.272  0.00  0.00    +0.000 N 
ATOM     18  H   UNL     1      -2.727  13.183  20.459  0.00  0.00    +0.000 HD
ENDBRANCH   9  13
BRANCH  11  19
ATOM     19  O   UNL     1       1.924  13.170  17.826  0.00  0.00    +0.000 OA
ATOM     20  H   UNL     1       1.773  14.123  17.937  0.00  0.00    +0.000 HD
ENDBRANCH  11  19
ENDBRANCH   4   7
BRANCH   1  21
ATOM     21  C   UNL     1       1.792   6.282  20.917  0.00  0.00    +0.000 C 
BRANCH  21  22
ATOM     22  C   UNL     1       2.294   4.878  20.610  0.00  0.00    +0.000 C 
BRANCH  22  23
ATOM     23  C   UNL     1       1.135   3.894  20.566  0.00  0.00    +0.000 C 
BRANCH  23  24
ATOM     24  C   UNL     1       1.021   3.272  19.183  0.00  0.00    +0.000 C 
BRANCH  24  25
ATOM     25  C   UNL     1       2.009   2.127  19.037  0.00  0.00    +0.000 C 
BRANCH  25  26
ATOM     26  C   UNL     1       2.583   2.106  17.631  0.00  0.00    +0.000 C 
BRANCH  26  27
ATOM     27  C   UNL     1       3.116   3.480  17.263  0.00  0.00    +0.000 C 
BRANCH  27  28
ATOM     28  C   UNL     1       4.607   3.555  17.548  0.00  0.00    +0.000 C 
BRANCH  28  29
ATOM     29  C   UNL     1       5.180   4.853  17.001  0.00  0.00    +0.000 C 
BRANCH  29  31
ATOM     30  C   UNL     1       6.203   3.837  14.965  0.00  0.00    +0.000 C 
ATOM     31  C   UNL     1       5.182   4.833  15.478  0.00  0.00    +0.000 C 
ENDBRANCH  29  31
ENDBRANCH  28  29
ENDBRANCH  27  28
ENDBRANCH  26  27
ENDBRANCH  25  26
ENDBRANCH  24  25
ENDBRANCH  23  24
ENDBRANCH  22  23
ENDBRANCH  21  22
ENDBRANCH   1  21
TORSDOF 13
ENDMDL
