MODEL 1
REMARK VINA RESULT:      -6.6      0.000      0.000
REMARK  Name = 
REMARK  14 active torsions:
REMARK  status: ('A' for Active; 'I' for Inactive)
REMARK    1  A    between atoms: C_2  and  C_3
REMARK    2  A    between atoms: C_3  and  O_4
REMARK    3  A    between atoms: C_3  and  C_11
REMARK    4  A    between atoms: O_4  and  C_5
REMARK    5  A    between atoms: C_5  and  O_7
REMARK    6  A    between atoms: O_7  and  C_8
REMARK    7  A    between atoms: C_8  and  C_9
REMARK    8  A    between atoms: C_9  and  C_10
REMARK    9  A    between atoms: C_14  and  O_15
REMARK   10  A    between atoms: O_15  and  C_16
REMARK   11  A    between atoms: C_16  and  O_18
REMARK   12  A    between atoms: O_18  and  C_19
REMARK   13  A    between atoms: C_19  and  C_20
REMARK   14  A    between atoms: C_20  and  C_21
REMARK                            x       y       z     vdW  Elec       q    Type
REMARK                         _______ _______ _______ _____ _____    ______ ____
ROOT
ATOM      1  C   UNL     1       4.923   5.965  18.017  0.00  0.00    +0.000 A 
ATOM      2  C   UNL     1       4.986   5.157  19.167  0.00  0.00    +0.000 A 
ATOM      3  C   UNL     1       3.839   4.925  19.933  0.00  0.00    +0.000 A 
ATOM      4  C   UNL     1       2.623   5.499  19.557  0.00  0.00    +0.000 A 
ATOM      5  C   UNL     1       2.546   6.315  18.435  0.00  0.00    +0.000 A 
ATOM      6  C   UNL     1       3.691   6.560  17.680  0.00  0.00    +0.000 A 
ENDROOT
BRANCH   1   7
ATOM      7  C   UNL     1       6.149   6.178  17.141  0.00  0.00    +0.000 C 
BRANCH   7   9
ATOM      8  C   UNL     1       7.940   7.921  17.716  0.00  0.00    +0.000 C 
ATOM      9  C   UNL     1       6.713   7.579  17.294  0.00  0.00    +0.000 C 
ENDBRANCH   7   9
BRANCH   7  10
ATOM     10  O   UNL     1       5.837   5.942  15.755  0.00  0.00    +0.000 OA
BRANCH  10  11
ATOM     11  C   UNL     1       6.703   5.144  15.088  0.00  0.00    +0.000 C 
ATOM     12  O   UNL     1       7.848   5.429  14.772  0.00  0.00    +0.000 OA
BRANCH  11  13
ATOM     13  O   UNL     1       6.048   4.001  14.757  0.00  0.00    +0.000 OA
BRANCH  13  14
ATOM     14  C   UNL     1       5.355   4.019  13.502  0.00  0.00    +0.000 C 
BRANCH  14  15
ATOM     15  C   UNL     1       6.058   3.154  12.464  0.00  0.00    +0.000 C 
ATOM     16  C   UNL     1       7.073   3.976  11.681  0.00  0.00    +0.000 C 
ENDBRANCH  14  15
ENDBRANCH  13  14
ENDBRANCH  11  13
ENDBRANCH  10  11
ENDBRANCH   7  10
ENDBRANCH   1   7
BRANCH   4  17
ATOM     17  O   UNL     1       1.490   5.144  20.315  0.00  0.00    +0.000 OA
BRANCH  17  18
ATOM     18  C   UNL     1       1.087   3.815  20.380  0.00  0.00    +0.000 C 
ATOM     19  O   UNL     1       1.185   3.058  21.336  0.00  0.00    +0.000 OA
BRANCH  18  20
ATOM     20  O   UNL     1       0.687   3.442  19.134  0.00  0.00    +0.000 OA
BRANCH  20  21
ATOM     21  C   UNL     1       1.193   2.166  18.738  0.00  0.00    +0.000 C 
BRANCH  21  22
ATOM     22  C   UNL     1       2.377   2.265  17.787  0.00  0.00    +0.000 C 
ATOM     23  C   UNL     1       3.578   1.550  18.393  0.00  0.00    +0.000 C 
ENDBRANCH  21  22
ENDBRANCH  20  21
ENDBRANCH  18  20
ENDBRANCH  17  18
ENDBRANCH   4  17
TORSDOF 12
ENDMDL
MODEL 2
REMARK VINA RESULT:      -6.4      0.868      1.191
REMARK  Name = 
REMARK  14 active torsions:
REMARK  status: ('A' for Active; 'I' for Inactive)
REMARK    1  A    between atoms: C_2  and  C_3
REMARK    2  A    between atoms: C_3  and  O_4
REMARK    3  A    between atoms: C_3  and  C_11
REMARK    4  A    between atoms: O_4  and  C_5
REMARK    5  A    between atoms: C_5  and  O_7
REMARK    6  A    between atoms: O_7  and  C_8
REMARK    7  A    between atoms: C_8  and  C_9
REMARK    8  A    between atoms: C_9  and  C_10
REMARK    9  A    between atoms: C_14  and  O_15
REMARK   10  A    between atoms: O_15  and  C_16
REMARK   11  A    between atoms: C_16  and  O_18
REMARK   12  A    between atoms: O_18  and  C_19
REMARK   13  A    between atoms: C_19  and  C_20
REMARK   14  A    between atoms: C_20  and  C_21
REMARK                            x       y       z     vdW  Elec       q    Type
REMARK                         _______ _______ _______ _____ _____    ______ ____
ROOT
ATOM      1  C   UNL     1       5.450   6.084  17.706  0.00  0.00    +0.000 A 
ATOM      2  C   UNL     1       5.435   5.307  18.879  0.00  0.00    +0.000 A 
ATOM      3  C   UNL     1       4.274   5.215  19.653  0.00  0.00    +0.000 A 
ATOM      4  C   UNL     1       3.122   5.900  19.262  0.00  0.00    +0.000 A 
ATOM      5  C   UNL     1       3.124   6.688  18.117  0.00  0.00    +0.000 A 
ATOM      6  C   UNL     1       4.284   6.792  17.354  0.00  0.00    +0.000 A 
ENDROOT
BRANCH   1   7
ATOM      7  C   UNL     1       6.688   6.144  16.822  0.00  0.00    +0.000 C 
BRANCH   7   9
ATOM      8  C   UNL     1       8.038   7.957  18.034  0.00  0.00    +0.000 C 
ATOM      9  C   UNL     1       7.407   7.475  16.952  0.00  0.00    +0.000 C 
ENDBRANCH   7   9
BRANCH   7  10
ATOM     10  O   UNL     1       6.344   5.925  15.441  0.00  0.00    +0.000 OA
BRANCH  10  11
ATOM     11  C   UNL     1       6.473   4.652  15.002  0.00  0.00    +0.000 C 
ATOM     12  O   UNL     1       6.261   3.640  15.652  0.00  0.00    +0.000 OA
BRANCH  11  13
ATOM     13  O   UNL     1       6.962   4.694  13.735  0.00  0.00    +0.000 OA
BRANCH  13  14
ATOM     14  C   UNL     1       6.457   3.697  12.837  0.00  0.00    +0.000 C 
BRANCH  14  15
ATOM     15  C   UNL     1       4.940   3.772  12.717  0.00  0.00    +0.000 C 
ATOM     16  C   UNL     1       4.476   3.160  11.402  0.00  0.00    +0.000 C 
ENDBRANCH  14  15
ENDBRANCH  13  14
ENDBRANCH  11  13
ENDBRANCH  10  11
ENDBRANCH   7  10
ENDBRANCH   1   7
BRANCH   4  17
ATOM     17  O   UNL     1       1.961   5.685  20.031  0.00  0.00    +0.000 OA
BRANCH  17  18
ATOM     18  C   UNL     1       1.609   4.395  20.412  0.00  0.00    +0.000 C 
ATOM     19  O   UNL     1       1.785   3.872  21.503  0.00  0.00    +0.000 OA
BRANCH  18  20
ATOM     20  O   UNL     1       1.158   3.745  19.305  0.00  0.00    +0.000 OA
BRANCH  20  21
ATOM     21  C   UNL     1       1.538   2.368  19.264  0.00  0.00    +0.000 C 
BRANCH  21  22
ATOM     22  C   UNL     1       2.612   2.078  18.227  0.00  0.00    +0.000 C 
ATOM     23  C   UNL     1       2.580   3.151  17.147  0.00  0.00    +0.000 C 
ENDBRANCH  21  22
ENDBRANCH  20  21
ENDBRANCH  18  20
ENDBRANCH  17  18
ENDBRANCH   4  17
TORSDOF 12
ENDMDL
MODEL 3
REMARK VINA RESULT:      -6.4      1.453      2.379
REMARK  Name = 
REMARK  14 active torsions:
REMARK  status: ('A' for Active; 'I' for Inactive)
REMARK    1  A    between atoms: C_2  and  C_3
REMARK    2  A    between atoms: C_3  and  O_4
REMARK    3  A    between atoms: C_3  and  C_11
REMARK    4  A    between atoms: O_4  and  C_5
REMARK    5  A    between atoms: C_5  and  O_7
REMARK    6  A    between atoms: O_7  and  C_8
REMARK    7  A    between atoms: C_8  and  C_9
REMARK    8  A    between atoms: C_9  and  C_10
REMARK    9  A    between atoms: C_14  and  O_15
REMARK   10  A    between atoms: O_15  and  C_16
REMARK   11  A    between atoms: C_16  and  O_18
REMARK   12  A    between atoms: O_18  and  C_19
REMARK   13  A    between atoms: C_19  and  C_20
REMARK   14  A    between atoms: C_20  and  C_21
REMARK                            x       y       z     vdW  Elec       q    Type
REMARK                         _______ _______ _______ _____ _____    ______ ____
ROOT
ATOM      1  C   UNL     1       5.658   4.391  17.322  0.00  0.00    +0.000 A 
ATOM      2  C   UNL     1       5.822   4.101  18.689  0.00  0.00    +0.000 A 
ATOM      3  C   UNL     1       4.827   3.414  19.391  0.00  0.00    +0.000 A 
ATOM      4  C   UNL     1       3.662   3.014  18.734  0.00  0.00    +0.000 A 
ATOM      5  C   UNL     1       3.474   3.309  17.389  0.00  0.00    +0.000 A 
ATOM      6  C   UNL     1       4.458   4.007  16.692  0.00  0.00    +0.000 A 
ENDROOT
BRANCH   1   7
ATOM      7  C   UNL     1       6.758   5.086  16.531  0.00  0.00    +0.000 C 
BRANCH   7   9
ATOM      8  C   UNL     1       6.716   7.513  17.357  0.00  0.00    +0.000 C 
ATOM      9  C   UNL     1       7.291   6.305  17.262  0.00  0.00    +0.000 C 
ENDBRANCH   7   9
BRANCH   7  10
ATOM     10  O   UNL     1       6.282   5.483  15.231  0.00  0.00    +0.000 OA
BRANCH  10  11
ATOM     11  C   UNL     1       6.988   5.007  14.180  0.00  0.00    +0.000 C 
ATOM     12  O   UNL     1       7.980   5.520  13.686  0.00  0.00    +0.000 OA
BRANCH  11  13
ATOM     13  O   UNL     1       6.350   3.901  13.714  0.00  0.00    +0.000 OA
BRANCH  13  14
ATOM     14  C   UNL     1       6.504   3.635  12.313  0.00  0.00    +0.000 C 
BRANCH  14  15
ATOM     15  C   UNL     1       5.415   2.700  11.802  0.00  0.00    +0.000 C 
ATOM     16  C   UNL     1       6.016   1.376  11.351  0.00  0.00    +0.000 C 
ENDBRANCH  14  15
ENDBRANCH  13  14
ENDBRANCH  11  13
ENDBRANCH  10  11
ENDBRANCH   7  10
ENDBRANCH   1   7
BRANCH   4  17
ATOM     17  O   UNL     1       2.746   2.240  19.474  0.00  0.00    +0.000 OA
BRANCH  17  18
ATOM     18  C   UNL     1       2.320   2.674  20.723  0.00  0.00    +0.000 C 
ATOM     19  O   UNL     1       2.895   2.530  21.793  0.00  0.00    +0.000 OA
BRANCH  18  20
ATOM     20  O   UNL     1       1.062   3.172  20.582  0.00  0.00    +0.000 OA
BRANCH  20  21
ATOM     21  C   UNL     1       1.029   4.454  19.951  0.00  0.00    +0.000 C 
BRANCH  21  22
ATOM     22  C   UNL     1       1.842   5.503  20.696  0.00  0.00    +0.000 C 
ATOM     23  C   UNL     1       2.472   6.464  19.696  0.00  0.00    +0.000 C 
ENDBRANCH  21  22
ENDBRANCH  20  21
ENDBRANCH  18  20
ENDBRANCH  17  18
ENDBRANCH   4  17
TORSDOF 12
ENDMDL
MODEL 4
REMARK VINA RESULT:      -6.4      1.252      6.235
REMARK  Name = 
REMARK  14 active torsions:
REMARK  status: ('A' for Active; 'I' for Inactive)
REMARK    1  A    between atoms: C_2  and  C_3
REMARK    2  A    between atoms: C_3  and  O_4
REMARK    3  A    between atoms: C_3  and  C_11
REMARK    4  A    between atoms: O_4  and  C_5
REMARK    5  A    between atoms: C_5  and  O_7
REMARK    6  A    between atoms: O_7  and  C_8
REMARK    7  A    between atoms: C_8  and  C_9
REMARK    8  A    between atoms: C_9  and  C_10
REMARK    9  A    between atoms: C_14  and  O_15
REMARK   10  A    between atoms: O_15  and  C_16
REMARK   11  A    between atoms: C_16  and  O_18
REMARK   12  A    between atoms: O_18  and  C_19
REMARK   13  A    between atoms: C_19  and  C_20
REMARK   14  A    between atoms: C_20  and  C_21
REMARK                            x       y       z     vdW  Elec       q    Type
REMARK                         _______ _______ _______ _____ _____    ______ ____
ROOT
ATOM      1  C   UNL     1       3.351   5.882  19.151  0.00  0.00    +0.000 A 
ATOM      2  C   UNL     1       3.195   6.578  17.938  0.00  0.00    +0.000 A 
ATOM      3  C   UNL     1       4.289   6.781  17.091  0.00  0.00    +0.000 A 
ATOM      4  C   UNL     1       5.546   6.292  17.451  0.00  0.00    +0.000 A 
ATOM      5  C   UNL     1       5.724   5.619  18.653  0.00  0.00    +0.000 A 
ATOM      6  C   UNL     1       4.638   5.430  19.505  0.00  0.00    +0.000 A 
ENDROOT
BRANCH   1   7
ATOM      7  C   UNL     1       2.158   5.603  20.054  0.00  0.00    +0.000 C 
BRANCH   7   9
ATOM      8  C   UNL     1       1.715   8.111  20.351  0.00  0.00    +0.000 C 
ATOM      9  C   UNL     1       1.715   6.848  20.802  0.00  0.00    +0.000 C 
ENDBRANCH   7   9
BRANCH   7  10
ATOM     10  O   UNL     1       2.465   4.564  21.003  0.00  0.00    +0.000 OA
BRANCH  10  11
ATOM     11  C   UNL     1       1.904   3.359  20.752  0.00  0.00    +0.000 C 
ATOM     12  O   UNL     1       0.732   3.059  20.924  0.00  0.00    +0.000 OA
BRANCH  11  13
ATOM     13  O   UNL     1       2.890   2.512  20.355  0.00  0.00    +0.000 OA
BRANCH  13  14
ATOM     14  C   UNL     1       2.643   1.791  19.140  0.00  0.00    +0.000 C 
BRANCH  14  15
ATOM     15  C   UNL     1       3.531   2.290  18.007  0.00  0.00    +0.000 C 
ATOM     16  C   UNL     1       2.724   3.124  17.021  0.00  0.00    +0.000 C 
ENDBRANCH  14  15
ENDBRANCH  13  14
ENDBRANCH  11  13
ENDBRANCH  10  11
ENDBRANCH   7  10
ENDBRANCH   1   7
BRANCH   4  17
ATOM     17  O   UNL     1       6.582   6.444  16.508  0.00  0.00    +0.000 OA
BRANCH  17  18
ATOM     18  C   UNL     1       7.024   5.345  15.779  0.00  0.00    +0.000 C 
ATOM     19  O   UNL     1       7.875   4.532  16.111  0.00  0.00    +0.000 OA
BRANCH  18  20
ATOM     20  O   UNL     1       6.447   5.405  14.549  0.00  0.00    +0.000 OA
BRANCH  20  21
ATOM     21  C   UNL     1       5.793   4.191  14.173  0.00  0.00    +0.000 C 
BRANCH  21  22
ATOM     22  C   UNL     1       6.268   3.650  12.832  0.00  0.00    +0.000 C 
ATOM     23  C   UNL     1       5.065   3.249  11.989  0.00  0.00    +0.000 C 
ENDBRANCH  21  22
ENDBRANCH  20  21
ENDBRANCH  18  20
ENDBRANCH  17  18
ENDBRANCH   4  17
TORSDOF 12
ENDMDL
MODEL 5
REMARK VINA RESULT:      -6.3      1.344      6.410
REMARK  Name = 
REMARK  14 active torsions:
REMARK  status: ('A' for Active; 'I' for Inactive)
REMARK    1  A    between atoms: C_2  and  C_3
REMARK    2  A    between atoms: C_3  and  O_4
REMARK    3  A    between atoms: C_3  and  C_11
REMARK    4  A    between atoms: O_4  and  C_5
REMARK    5  A    between atoms: C_5  and  O_7
REMARK    6  A    between atoms: O_7  and  C_8
REMARK    7  A    between atoms: C_8  and  C_9
REMARK    8  A    between atoms: C_9  and  C_10
REMARK    9  A    between atoms: C_14  and  O_15
REMARK   10  A    between atoms: O_15  and  C_16
REMARK   11  A    between atoms: C_16  and  O_18
REMARK   12  A    between atoms: O_18  and  C_19
REMARK   13  A    between atoms: C_19  and  C_20
REMARK   14  A    between atoms: C_20  and  C_21
REMARK                            x       y       z     vdW  Elec       q    Type
REMARK                         _______ _______ _______ _____ _____    ______ ____
ROOT
ATOM      1  C   UNL     1       3.341   6.074  19.087  0.00  0.00    +0.000 A 
ATOM      2  C   UNL     1       4.498   5.381  19.489  0.00  0.00    +0.000 A 
ATOM      3  C   UNL     1       5.643   5.387  18.686  0.00  0.00    +0.000 A 
ATOM      4  C   UNL     1       5.640   6.083  17.476  0.00  0.00    +0.000 A 
ATOM      5  C   UNL     1       4.501   6.758  17.054  0.00  0.00    +0.000 A 
ATOM      6  C   UNL     1       3.355   6.740  17.845  0.00  0.00    +0.000 A 
ENDROOT
BRANCH   1   7
ATOM      7  C   UNL     1       2.109   6.125  19.978  0.00  0.00    +0.000 C 
BRANCH   7   9
ATOM      8  C   UNL     1       1.079   7.974  21.426  0.00  0.00    +0.000 C 
ATOM      9  C   UNL     1       1.729   7.552  20.331  0.00  0.00    +0.000 C 
ENDBRANCH   7   9
BRANCH   7  10
ATOM     10  O   UNL     1       2.322   5.378  21.191  0.00  0.00    +0.000 OA
BRANCH  10  11
ATOM     11  C   UNL     1       1.848   4.111  21.187  0.00  0.00    +0.000 C 
ATOM     12  O   UNL     1       2.251   3.189  21.880  0.00  0.00    +0.000 OA
BRANCH  11  13
ATOM     13  O   UNL     1       0.901   4.020  20.217  0.00  0.00    +0.000 OA
BRANCH  13  14
ATOM     14  C   UNL     1       0.894   2.800  19.463  0.00  0.00    +0.000 C 
BRANCH  14  15
ATOM     15  C   UNL     1       1.713   2.930  18.185  0.00  0.00    +0.000 C 
ATOM     16  C   UNL     1       2.957   2.055  18.256  0.00  0.00    +0.000 C 
ENDBRANCH  14  15
ENDBRANCH  13  14
ENDBRANCH  11  13
ENDBRANCH  10  11
ENDBRANCH   7  10
ENDBRANCH   1   7
BRANCH   4  17
ATOM     17  O   UNL     1       6.856   6.132  16.766  0.00  0.00    +0.000 OA
BRANCH  17  18
ATOM     18  C   UNL     1       7.272   5.031  16.026  0.00  0.00    +0.000 C 
ATOM     19  O   UNL     1       7.989   4.114  16.404  0.00  0.00    +0.000 OA
BRANCH  18  20
ATOM     20  O   UNL     1       6.862   5.216  14.743  0.00  0.00    +0.000 OA
BRANCH  20  21
ATOM     21  C   UNL     1       5.852   4.290  14.334  0.00  0.00    +0.000 C 
BRANCH  21  22
ATOM     22  C   UNL     1       6.179   3.597  13.018  0.00  0.00    +0.000 C 
ATOM     23  C   UNL     1       7.171   4.443  12.230  0.00  0.00    +0.000 C 
ENDBRANCH  21  22
ENDBRANCH  20  21
ENDBRANCH  18  20
ENDBRANCH  17  18
ENDBRANCH   4  17
TORSDOF 12
ENDMDL
MODEL 6
REMARK VINA RESULT:      -6.3      1.370      2.525
REMARK  Name = 
REMARK  14 active torsions:
REMARK  status: ('A' for Active; 'I' for Inactive)
REMARK    1  A    between atoms: C_2  and  C_3
REMARK    2  A    between atoms: C_3  and  O_4
REMARK    3  A    between atoms: C_3  and  C_11
REMARK    4  A    between atoms: O_4  and  C_5
REMARK    5  A    between atoms: C_5  and  O_7
REMARK    6  A    between atoms: O_7  and  C_8
REMARK    7  A    between atoms: C_8  and  C_9
REMARK    8  A    between atoms: C_9  and  C_10
REMARK    9  A    between atoms: C_14  and  O_15
REMARK   10  A    between atoms: O_15  and  C_16
REMARK   11  A    between atoms: C_16  and  O_18
REMARK   12  A    between atoms: O_18  and  C_19
REMARK   13  A    between atoms: C_19  and  C_20
REMARK   14  A    between atoms: C_20  and  C_21
REMARK                            x       y       z     vdW  Elec       q    Type
REMARK                         _______ _______ _______ _____ _____    ______ ____
ROOT
ATOM      1  C   UNL     1       5.545   4.632  17.296  0.00  0.00    +0.000 A 
ATOM      2  C   UNL     1       4.375   4.130  16.695  0.00  0.00    +0.000 A 
ATOM      3  C   UNL     1       3.480   3.347  17.431  0.00  0.00    +0.000 A 
ATOM      4  C   UNL     1       3.747   3.059  18.771  0.00  0.00    +0.000 A 
ATOM      5  C   UNL     1       4.906   3.530  19.376  0.00  0.00    +0.000 A 
ATOM      6  C   UNL     1       5.806   4.296  18.640  0.00  0.00    +0.000 A 
ENDROOT
BRANCH   1   7
ATOM      7  C   UNL     1       6.497   5.534  16.525  0.00  0.00    +0.000 C 
BRANCH   7   9
ATOM      8  C   UNL     1       7.569   7.642  17.517  0.00  0.00    +0.000 C 
ATOM      9  C   UNL     1       6.507   6.947  17.081  0.00  0.00    +0.000 C 
ENDBRANCH   7   9
BRANCH   7  10
ATOM     10  O   UNL     1       6.145   5.576  15.129  0.00  0.00    +0.000 OA
BRANCH  10  11
ATOM     11  C   UNL     1       7.043   5.021  14.283  0.00  0.00    +0.000 C 
ATOM     12  O   UNL     1       8.087   5.530  13.905  0.00  0.00    +0.000 OA
BRANCH  11  13
ATOM     13  O   UNL     1       6.540   3.833  13.858  0.00  0.00    +0.000 OA
BRANCH  13  14
ATOM     14  C   UNL     1       5.362   3.908  13.044  0.00  0.00    +0.000 C 
BRANCH  14  15
ATOM     15  C   UNL     1       5.383   2.862  11.936  0.00  0.00    +0.000 C 
ATOM     16  C   UNL     1       6.814   2.566  11.508  0.00  0.00    +0.000 C 
ENDBRANCH  14  15
ENDBRANCH  13  14
ENDBRANCH  11  13
ENDBRANCH  10  11
ENDBRANCH   7  10
ENDBRANCH   1   7
BRANCH   4  17
ATOM     17  O   UNL     1       2.757   2.351  19.480  0.00  0.00    +0.000 OA
BRANCH  17  18
ATOM     18  C   UNL     1       2.171   2.916  20.606  0.00  0.00    +0.000 C 
ATOM     19  O   UNL     1       2.364   2.608  21.774  0.00  0.00    +0.000 OA
BRANCH  18  20
ATOM     20  O   UNL     1       1.218   3.790  20.183  0.00  0.00    +0.000 OA
BRANCH  20  21
ATOM     21  C   UNL     1       1.381   5.106  20.716  0.00  0.00    +0.000 C 
BRANCH  21  22
ATOM     22  C   UNL     1       2.242   6.001  19.837  0.00  0.00    +0.000 C 
ATOM     23  C   UNL     1       1.984   7.460  20.190  0.00  0.00    +0.000 C 
ENDBRANCH  21  22
ENDBRANCH  20  21
ENDBRANCH  18  20
ENDBRANCH  17  18
ENDBRANCH   4  17
TORSDOF 12
ENDMDL
MODEL 7
REMARK VINA RESULT:      -6.1      1.365      2.081
REMARK  Name = 
REMARK  14 active torsions:
REMARK  status: ('A' for Active; 'I' for Inactive)
REMARK    1  A    between atoms: C_2  and  C_3
REMARK    2  A    between atoms: C_3  and  O_4
REMARK    3  A    between atoms: C_3  and  C_11
REMARK    4  A    between atoms: O_4  and  C_5
REMARK    5  A    between atoms: C_5  and  O_7
REMARK    6  A    between atoms: O_7  and  C_8
REMARK    7  A    between atoms: C_8  and  C_9
REMARK    8  A    between atoms: C_9  and  C_10
REMARK    9  A    between atoms: C_14  and  O_15
REMARK   10  A    between atoms: O_15  and  C_16
REMARK   11  A    between atoms: C_16  and  O_18
REMARK   12  A    between atoms: O_18  and  C_19
REMARK   13  A    between atoms: C_19  and  C_20
REMARK   14  A    between atoms: C_20  and  C_21
REMARK                            x       y       z     vdW  Elec       q    Type
REMARK                         _______ _______ _______ _____ _____    ______ ____
ROOT
ATOM      1  C   UNL     1       5.047   4.805  17.307  0.00  0.00    +0.000 A 
ATOM      2  C   UNL     1       4.127   5.821  17.625  0.00  0.00    +0.000 A 
ATOM      3  C   UNL     1       2.772   5.522  17.794  0.00  0.00    +0.000 A 
ATOM      4  C   UNL     1       2.326   4.207  17.645  0.00  0.00    +0.000 A 
ATOM      5  C   UNL     1       3.217   3.193  17.313  0.00  0.00    +0.000 A 
ATOM      6  C   UNL     1       4.565   3.493  17.129  0.00  0.00    +0.000 A 
ENDROOT
BRANCH   1   7
ATOM      7  C   UNL     1       6.534   5.106  17.179  0.00  0.00    +0.000 C 
BRANCH   7   9
ATOM      8  C   UNL     1       7.609   7.362  17.753  0.00  0.00    +0.000 C 
ATOM      9  C   UNL     1       6.794   6.593  17.016  0.00  0.00    +0.000 C 
ENDBRANCH   7   9
BRANCH   7  10
ATOM     10  O   UNL     1       7.105   4.399  16.062  0.00  0.00    +0.000 OA
BRANCH  10  11
ATOM     11  C   UNL     1       7.104   5.067  14.885  0.00  0.00    +0.000 C 
ATOM     12  O   UNL     1       8.057   5.644  14.383  0.00  0.00    +0.000 OA
BRANCH  11  13
ATOM     13  O   UNL     1       5.836   5.056  14.399  0.00  0.00    +0.000 OA
BRANCH  13  14
ATOM     14  C   UNL     1       5.444   3.866  13.702  0.00  0.00    +0.000 C 
BRANCH  14  15
ATOM     15  C   UNL     1       6.381   3.568  12.538  0.00  0.00    +0.000 C 
ATOM     16  C   UNL     1       5.782   2.503  11.628  0.00  0.00    +0.000 C 
ENDBRANCH  14  15
ENDBRANCH  13  14
ENDBRANCH  11  13
ENDBRANCH  10  11
ENDBRANCH   7  10
ENDBRANCH   1   7
BRANCH   4  17
ATOM     17  O   UNL     1       0.968   3.959  17.927  0.00  0.00    +0.000 OA
BRANCH  17  18
ATOM     18  C   UNL     1       0.619   3.045  18.915  0.00  0.00    +0.000 C 
ATOM     19  O   UNL     1       0.219   1.900  18.755  0.00  0.00    +0.000 OA
BRANCH  18  20
ATOM     20  O   UNL     1       0.659   3.693  20.111  0.00  0.00    +0.000 OA
BRANCH  20  21
ATOM     21  C   UNL     1       1.279   2.928  21.147  0.00  0.00    +0.000 C 
BRANCH  21  22
ATOM     22  C   UNL     1       2.704   3.373  21.443  0.00  0.00    +0.000 C 
ATOM     23  C   UNL     1       3.685   2.394  20.812  0.00  0.00    +0.000 C 
ENDBRANCH  21  22
ENDBRANCH  20  21
ENDBRANCH  18  20
ENDBRANCH  17  18
ENDBRANCH   4  17
TORSDOF 12
ENDMDL
MODEL 8
REMARK VINA RESULT:      -6.1      1.544      6.668
REMARK  Name = 
REMARK  14 active torsions:
REMARK  status: ('A' for Active; 'I' for Inactive)
REMARK    1  A    between atoms: C_2  and  C_3
REMARK    2  A    between atoms: C_3  and  O_4
REMARK    3  A    between atoms: C_3  and  C_11
REMARK    4  A    between atoms: O_4  and  C_5
REMARK    5  A    between atoms: C_5  and  O_7
REMARK    6  A    between atoms: O_7  and  C_8
REMARK    7  A    between atoms: C_8  and  C_9
REMARK    8  A    between atoms: C_9  and  C_10
REMARK    9  A    between atoms: C_14  and  O_15
REMARK   10  A    between atoms: O_15  and  C_16
REMARK   11  A    between atoms: C_16  and  O_18
REMARK   12  A    between atoms: O_18  and  C_19
REMARK   13  A    between atoms: C_19  and  C_20
REMARK   14  A    between atoms: C_20  and  C_21
REMARK                            x       y       z     vdW  Elec       q    Type
REMARK                         _______ _______ _______ _____ _____    ______ ____
ROOT
ATOM      1  C   UNL     1       4.335   5.664  17.873  0.00  0.00    +0.000 A 
ATOM      2  C   UNL     1       4.435   6.193  16.573  0.00  0.00    +0.000 A 
ATOM      3  C   UNL     1       5.545   5.903  15.773  0.00  0.00    +0.000 A 
ATOM      4  C   UNL     1       6.562   5.085  16.267  0.00  0.00    +0.000 A 
ATOM      5  C   UNL     1       6.490   4.568  17.555  0.00  0.00    +0.000 A 
ATOM      6  C   UNL     1       5.393   4.869  18.358  0.00  0.00    +0.000 A 
ENDROOT
BRANCH   1   7
ATOM      7  C   UNL     1       3.105   5.922  18.732  0.00  0.00    +0.000 C 
BRANCH   7   9
ATOM      8  C   UNL     1       2.059   8.154  18.024  0.00  0.00    +0.000 C 
ATOM      9  C   UNL     1       2.805   7.406  18.851  0.00  0.00    +0.000 C 
ENDBRANCH   7   9
BRANCH   7  10
ATOM     10  O   UNL     1       3.274   5.365  20.049  0.00  0.00    +0.000 OA
BRANCH  10  11
ATOM     11  C   UNL     1       2.155   4.860  20.618  0.00  0.00    +0.000 C 
ATOM     12  O   UNL     1       1.068   5.413  20.686  0.00  0.00    +0.000 OA
BRANCH  11  13
ATOM     13  O   UNL     1       2.473   3.663  21.176  0.00  0.00    +0.000 OA
BRANCH  13  14
ATOM     14  C   UNL     1       3.231   2.770  20.350  0.00  0.00    +0.000 C 
BRANCH  14  15
ATOM     15  C   UNL     1       2.372   2.168  19.245  0.00  0.00    +0.000 C 
ATOM     16  C   UNL     1       3.208   1.908  17.999  0.00  0.00    +0.000 C 
ENDBRANCH  14  15
ENDBRANCH  13  14
ENDBRANCH  11  13
ENDBRANCH  10  11
ENDBRANCH   7  10
ENDBRANCH   1   7
BRANCH   4  17
ATOM     17  O   UNL     1       7.601   4.752  15.375  0.00  0.00    +0.000 OA
BRANCH  17  18
ATOM     18  C   UNL     1       7.398   4.851  14.004  0.00  0.00    +0.000 C 
ATOM     19  O   UNL     1       7.849   5.701  13.248  0.00  0.00    +0.000 OA
BRANCH  18  20
ATOM     20  O   UNL     1       6.478   3.912  13.653  0.00  0.00    +0.000 OA
BRANCH  20  21
ATOM     21  C   UNL     1       6.565   3.522  12.280  0.00  0.00    +0.000 C 
BRANCH  21  22
ATOM     22  C   UNL     1       5.462   2.558  11.865  0.00  0.00    +0.000 C 
ATOM     23  C   UNL     1       4.207   3.343  11.509  0.00  0.00    +0.000 C 
ENDBRANCH  21  22
ENDBRANCH  20  21
ENDBRANCH  18  20
ENDBRANCH  17  18
ENDBRANCH   4  17
TORSDOF 12
ENDMDL
MODEL 9
REMARK VINA RESULT:      -6.1      1.481      6.365
REMARK  Name = 
REMARK  14 active torsions:
REMARK  status: ('A' for Active; 'I' for Inactive)
REMARK    1  A    between atoms: C_2  and  C_3
REMARK    2  A    between atoms: C_3  and  O_4
REMARK    3  A    between atoms: C_3  and  C_11
REMARK    4  A    between atoms: O_4  and  C_5
REMARK    5  A    between atoms: C_5  and  O_7
REMARK    6  A    between atoms: O_7  and  C_8
REMARK    7  A    between atoms: C_8  and  C_9
REMARK    8  A    between atoms: C_9  and  C_10
REMARK    9  A    between atoms: C_14  and  O_15
REMARK   10  A    between atoms: O_15  and  C_16
REMARK   11  A    between atoms: C_16  and  O_18
REMARK   12  A    between atoms: O_18  and  C_19
REMARK   13  A    between atoms: C_19  and  C_20
REMARK   14  A    between atoms: C_20  and  C_21
REMARK                            x       y       z     vdW  Elec       q    Type
REMARK                         _______ _______ _______ _____ _____    ______ ____
ROOT
ATOM      1  C   UNL     1       2.896   6.146  19.270  0.00  0.00    +0.000 A 
ATOM      2  C   UNL     1       4.129   5.468  19.273  0.00  0.00    +0.000 A 
ATOM      3  C   UNL     1       5.062   5.690  18.256  0.00  0.00    +0.000 A 
ATOM      4  C   UNL     1       4.771   6.590  17.229  0.00  0.00    +0.000 A 
ATOM      5  C   UNL     1       3.551   7.255  17.199  0.00  0.00    +0.000 A 
ATOM      6  C   UNL     1       2.614   7.022  18.203  0.00  0.00    +0.000 A 
ENDROOT
BRANCH   1   7
ATOM      7  C   UNL     1       1.895   5.959  20.401  0.00  0.00    +0.000 C 
BRANCH   7   9
ATOM      8  C   UNL     1       0.638   8.082  21.101  0.00  0.00    +0.000 C 
ATOM      9  C   UNL     1       1.683   7.243  21.182  0.00  0.00    +0.000 C 
ENDBRANCH   7   9
BRANCH   7  10
ATOM     10  O   UNL     1       2.329   4.923  21.302  0.00  0.00    +0.000 OA
BRANCH  10  11
ATOM     11  C   UNL     1       1.629   3.766  21.244  0.00  0.00    +0.000 C 
ATOM     12  O   UNL     1       1.757   2.808  21.991  0.00  0.00    +0.000 OA
BRANCH  11  13
ATOM     13  O   UNL     1       0.817   3.823  20.157  0.00  0.00    +0.000 OA
BRANCH  13  14
ATOM     14  C   UNL     1       0.856   2.683  19.287  0.00  0.00    +0.000 C 
BRANCH  14  15
ATOM     15  C   UNL     1       1.756   2.931  18.084  0.00  0.00    +0.000 C 
ATOM     16  C   UNL     1       2.986   2.036  18.141  0.00  0.00    +0.000 C 
ENDBRANCH  14  15
ENDBRANCH  13  14
ENDBRANCH  11  13
ENDBRANCH  10  11
ENDBRANCH   7  10
ENDBRANCH   1   7
BRANCH   4  17
ATOM     17  O   UNL     1       5.794   6.842  16.293  0.00  0.00    +0.000 OA
BRANCH  17  18
ATOM     18  C   UNL     1       7.107   6.493  16.589  0.00  0.00    +0.000 C 
ATOM     19  O   UNL     1       7.971   7.210  17.073  0.00  0.00    +0.000 OA
BRANCH  18  20
ATOM     20  O   UNL     1       7.320   5.239  16.108  0.00  0.00    +0.000 OA
BRANCH  20  21
ATOM     21  C   UNL     1       7.160   5.142  14.691  0.00  0.00    +0.000 C 
BRANCH  21  22
ATOM     22  C   UNL     1       6.189   4.045  14.276  0.00  0.00    +0.000 C 
ATOM     23  C   UNL     1       5.622   3.371  15.519  0.00  0.00    +0.000 C 
ENDBRANCH  21  22
ENDBRANCH  20  21
ENDBRANCH  18  20
ENDBRANCH  17  18
ENDBRANCH   4  17
TORSDOF 12
ENDMDL
