MODEL 1
REMARK VINA RESULT:      -6.0      0.000      0.000
REMARK  Name = 
REMARK  7 active torsions:
REMARK  status: ('A' for Active; 'I' for Inactive)
REMARK    1  A    between atoms: C_2  and  C_3
REMARK    2  A    between atoms: C_3  and  N_4
REMARK    3  A    between atoms: N_4  and  C_5
REMARK    4  A    between atoms: C_5  and  C_6
REMARK    5  A    between atoms: C_5  and  C_7
REMARK    6  A    between atoms: C_7  and  C_8
REMARK    7  A    between atoms: C_12  and  O_13
REMARK                            x       y       z     vdW  Elec       q    Type
REMARK                         _______ _______ _______ _____ _____    ______ ____
ROOT
ATOM      1  C   UNL     1       5.500   3.621  16.242  0.00  0.00    +0.000 C 
ENDROOT
BRANCH   1   2
ATOM      2  C   UNL     1       4.303   4.197  16.965  0.00  0.00    +0.000 A 
ATOM      3  C   UNL     1       4.287   5.556  17.325  0.00  0.00    +0.000 A 
ATOM      4  C   UNL     1       3.147   6.133  17.883  0.00  0.00    +0.000 A 
ATOM      5  C   UNL     1       2.015   5.352  18.110  0.00  0.00    +0.000 A 
ATOM      6  C   UNL     1       2.035   4.002  17.768  0.00  0.00    +0.000 A 
ATOM      7  C   UNL     1       3.166   3.422  17.199  0.00  0.00    +0.000 A 
BRANCH   6   8
ATOM      8  O   UNL     1       0.947   3.205  17.966  0.00  0.00    +0.000 OA
ATOM      9  H   UNL     1       1.142   2.325  17.600  0.00  0.00    +0.000 HD
ENDBRANCH   6   8
ENDBRANCH   1   2
BRANCH   1  10
ATOM     10  C   UNL     1       6.624   4.667  16.050  0.00  0.00    +0.000 C 
ATOM     11  C   UNL     1       7.010   4.752  14.567  0.00  0.00    +0.000 C 
BRANCH  10  12
ATOM     12  N   UNL     1       7.788   4.303  16.883  0.00  0.00    +0.000 NA
ATOM     13  H   UNL     1       7.753   3.298  17.064  0.00  0.00    +0.000 HD
BRANCH  12  14
ATOM     14  C   UNL     1       7.753   4.963  18.166  0.00  0.00    +0.000 C 
BRANCH  14  16
ATOM     15  C   UNL     1       7.767   7.769  17.840  0.00  0.00    +0.000 C 
ATOM     16  C   UNL     1       7.761   6.473  17.990  0.00  0.00    +0.000 C 
ENDBRANCH  14  16
ENDBRANCH  12  14
ENDBRANCH  10  12
ENDBRANCH   1  10
TORSDOF 6
ENDMDL
MODEL 2
REMARK VINA RESULT:      -5.7      3.162      5.547
REMARK  Name = 
REMARK  7 active torsions:
REMARK  status: ('A' for Active; 'I' for Inactive)
REMARK    1  A    between atoms: C_2  and  C_3
REMARK    2  A    between atoms: C_3  and  N_4
REMARK    3  A    between atoms: N_4  and  C_5
REMARK    4  A    between atoms: C_5  and  C_6
REMARK    5  A    between atoms: C_5  and  C_7
REMARK    6  A    between atoms: C_7  and  C_8
REMARK    7  A    between atoms: C_12  and  O_13
REMARK                            x       y       z     vdW  Elec       q    Type
REMARK                         _______ _______ _______ _____ _____    ______ ____
ROOT
ATOM      1  C   UNL     1       3.517   5.600  18.101  0.00  0.00    +0.000 C 
ENDROOT
BRANCH   1   2
ATOM      2  C   UNL     1       5.013   5.813  18.156  0.00  0.00    +0.000 A 
ATOM      3  C   UNL     1       5.661   6.514  17.123  0.00  0.00    +0.000 A 
ATOM      4  C   UNL     1       7.017   6.824  17.212  0.00  0.00    +0.000 A 
ATOM      5  C   UNL     1       7.749   6.417  18.327  0.00  0.00    +0.000 A 
ATOM      6  C   UNL     1       7.112   5.708  19.343  0.00  0.00    +0.000 A 
ATOM      7  C   UNL     1       5.755   5.405  19.266  0.00  0.00    +0.000 A 
BRANCH   6   8
ATOM      8  O   UNL     1       7.789   5.298  20.452  0.00  0.00    +0.000 OA
ATOM      9  H   UNL     1       8.141   6.083  20.904  0.00  0.00    +0.000 HD
ENDBRANCH   6   8
ENDBRANCH   1   2
BRANCH   1  10
ATOM     10  C   UNL     1       3.133   4.112  18.283  0.00  0.00    +0.000 C 
ATOM     11  C   UNL     1       3.858   3.254  17.237  0.00  0.00    +0.000 C 
BRANCH  10  12
ATOM     12  N   UNL     1       1.668   3.960  18.173  0.00  0.00    +0.000 NA
ATOM     13  H   UNL     1       1.225   4.734  18.673  0.00  0.00    +0.000 HD
BRANCH  12  14
ATOM     14  C   UNL     1       1.209   2.741  18.794  0.00  0.00    +0.000 C 
BRANCH  14  16
ATOM     15  C   UNL     1       1.663   2.816  21.580  0.00  0.00    +0.000 C 
ATOM     16  C   UNL     1       1.453   2.781  20.294  0.00  0.00    +0.000 C 
ENDBRANCH  14  16
ENDBRANCH  12  14
ENDBRANCH  10  12
ENDBRANCH   1  10
TORSDOF 6
ENDMDL
MODEL 3
REMARK VINA RESULT:      -5.7      1.460      2.928
REMARK  Name = 
REMARK  7 active torsions:
REMARK  status: ('A' for Active; 'I' for Inactive)
REMARK    1  A    between atoms: C_2  and  C_3
REMARK    2  A    between atoms: C_3  and  N_4
REMARK    3  A    between atoms: N_4  and  C_5
REMARK    4  A    between atoms: C_5  and  C_6
REMARK    5  A    between atoms: C_5  and  C_7
REMARK    6  A    between atoms: C_7  and  C_8
REMARK    7  A    between atoms: C_12  and  O_13
REMARK                            x       y       z     vdW  Elec       q    Type
REMARK                         _______ _______ _______ _____ _____    ______ ____
ROOT
ATOM      1  C   UNL     1       5.409   5.617  17.879  0.00  0.00    +0.000 C 
ENDROOT
BRANCH   1   2
ATOM      2  C   UNL     1       4.171   4.756  18.002  0.00  0.00    +0.000 A 
ATOM      3  C   UNL     1       2.897   5.330  17.843  0.00  0.00    +0.000 A 
ATOM      4  C   UNL     1       1.753   4.534  17.834  0.00  0.00    +0.000 A 
ATOM      5  C   UNL     1       1.865   3.156  18.007  0.00  0.00    +0.000 A 
ATOM      6  C   UNL     1       3.125   2.588  18.182  0.00  0.00    +0.000 A 
ATOM      7  C   UNL     1       4.274   3.375  18.179  0.00  0.00    +0.000 A 
BRANCH   6   8
ATOM      8  O   UNL     1       3.280   1.244  18.347  0.00  0.00    +0.000 OA
ATOM      9  H   UNL     1       4.166   0.997  18.034  0.00  0.00    +0.000 HD
ENDBRANCH   6   8
ENDBRANCH   1   2
BRANCH   1  10
ATOM     10  C   UNL     1       6.703   4.827  18.190  0.00  0.00    +0.000 C 
ATOM     11  C   UNL     1       7.632   5.674  19.070  0.00  0.00    +0.000 C 
BRANCH  10  12
ATOM     12  N   UNL     1       7.367   4.445  16.928  0.00  0.00    +0.000 NA
ATOM     13  H   UNL     1       8.376   4.548  17.051  0.00  0.00    +0.000 HD
BRANCH  12  14
ATOM     14  C   UNL     1       6.986   5.314  15.841  0.00  0.00    +0.000 C 
BRANCH  14  16
ATOM     15  C   UNL     1       6.114   3.803  13.620  0.00  0.00    +0.000 C 
ATOM     16  C   UNL     1       6.517   4.501  14.645  0.00  0.00    +0.000 C 
ENDBRANCH  14  16
ENDBRANCH  12  14
ENDBRANCH  10  12
ENDBRANCH   1  10
TORSDOF 6
ENDMDL
MODEL 4
REMARK VINA RESULT:      -5.7      1.961      3.247
REMARK  Name = 
REMARK  7 active torsions:
REMARK  status: ('A' for Active; 'I' for Inactive)
REMARK    1  A    between atoms: C_2  and  C_3
REMARK    2  A    between atoms: C_3  and  N_4
REMARK    3  A    between atoms: N_4  and  C_5
REMARK    4  A    between atoms: C_5  and  C_6
REMARK    5  A    between atoms: C_5  and  C_7
REMARK    6  A    between atoms: C_7  and  C_8
REMARK    7  A    between atoms: C_12  and  O_13
REMARK                            x       y       z     vdW  Elec       q    Type
REMARK                         _______ _______ _______ _____ _____    ______ ____
ROOT
ATOM      1  C   UNL     1       4.976   5.460  19.138  0.00  0.00    +0.000 C 
ENDROOT
BRANCH   1   2
ATOM      2  C   UNL     1       4.008   4.364  18.751  0.00  0.00    +0.000 A 
ATOM      3  C   UNL     1       2.736   4.696  18.249  0.00  0.00    +0.000 A 
ATOM      4  C   UNL     1       1.876   3.707  17.776  0.00  0.00    +0.000 A 
ATOM      5  C   UNL     1       2.267   2.370  17.819  0.00  0.00    +0.000 A 
ATOM      6  C   UNL     1       3.520   2.038  18.331  0.00  0.00    +0.000 A 
ATOM      7  C   UNL     1       4.389   3.023  18.794  0.00  0.00    +0.000 A 
BRANCH   6   8
ATOM      8  O   UNL     1       3.944   0.744  18.384  0.00  0.00    +0.000 OA
ATOM      9  H   UNL     1       3.698   0.307  17.552  0.00  0.00    +0.000 HD
ENDBRANCH   6   8
ENDBRANCH   1   2
BRANCH   1  10
ATOM     10  C   UNL     1       6.128   5.608  18.115  0.00  0.00    +0.000 C 
ATOM     11  C   UNL     1       7.473   5.686  18.850  0.00  0.00    +0.000 C 
BRANCH  10  12
ATOM     12  N   UNL     1       5.904   6.811  17.287  0.00  0.00    +0.000 NA
ATOM     13  H   UNL     1       5.346   7.475  17.827  0.00  0.00    +0.000 HD
BRANCH  12  14
ATOM     14  C   UNL     1       5.153   6.504  16.093  0.00  0.00    +0.000 C 
BRANCH  14  16
ATOM     15  C   UNL     1       5.990   4.039  14.999  0.00  0.00    +0.000 C 
ATOM     16  C   UNL     1       5.603   5.177  15.505  0.00  0.00    +0.000 C 
ENDBRANCH  14  16
ENDBRANCH  12  14
ENDBRANCH  10  12
ENDBRANCH   1  10
TORSDOF 6
ENDMDL
MODEL 5
REMARK VINA RESULT:      -5.7      1.531      2.997
REMARK  Name = 
REMARK  7 active torsions:
REMARK  status: ('A' for Active; 'I' for Inactive)
REMARK    1  A    between atoms: C_2  and  C_3
REMARK    2  A    between atoms: C_3  and  N_4
REMARK    3  A    between atoms: N_4  and  C_5
REMARK    4  A    between atoms: C_5  and  C_6
REMARK    5  A    between atoms: C_5  and  C_7
REMARK    6  A    between atoms: C_7  and  C_8
REMARK    7  A    between atoms: C_12  and  O_13
REMARK                            x       y       z     vdW  Elec       q    Type
REMARK                         _______ _______ _______ _____ _____    ______ ____
ROOT
ATOM      1  C   UNL     1       4.032   4.828  17.059  0.00  0.00    +0.000 C 
ENDROOT
BRANCH   1   2
ATOM      2  C   UNL     1       3.014   4.359  18.075  0.00  0.00    +0.000 A 
ATOM      3  C   UNL     1       2.855   5.060  19.284  0.00  0.00    +0.000 A 
ATOM      4  C   UNL     1       1.843   4.717  20.179  0.00  0.00    +0.000 A 
ATOM      5  C   UNL     1       0.991   3.654  19.887  0.00  0.00    +0.000 A 
ATOM      6  C   UNL     1       1.158   2.949  18.697  0.00  0.00    +0.000 A 
ATOM      7  C   UNL     1       2.159   3.293  17.793  0.00  0.00    +0.000 A 
BRANCH   6   8
ATOM      8  O   UNL     1       0.341   1.907  18.370  0.00  0.00    +0.000 OA
ATOM      9  H   UNL     1       0.897   1.137  18.162  0.00  0.00    +0.000 HD
ENDBRANCH   6   8
ENDBRANCH   1   2
BRANCH   1  10
ATOM     10  C   UNL     1       5.482   4.699  17.583  0.00  0.00    +0.000 C 
ATOM     11  C   UNL     1       6.122   6.089  17.694  0.00  0.00    +0.000 C 
BRANCH  10  12
ATOM     12  N   UNL     1       6.260   3.825  16.682  0.00  0.00    +0.000 NA
ATOM     13  H   UNL     1       7.013   3.394  17.222  0.00  0.00    +0.000 HD
BRANCH  12  14
ATOM     14  C   UNL     1       6.883   4.576  15.618  0.00  0.00    +0.000 C 
BRANCH  14  16
ATOM     15  C   UNL     1       5.995   3.652  13.101  0.00  0.00    +0.000 C 
ATOM     16  C   UNL     1       6.405   4.078  14.263  0.00  0.00    +0.000 C 
ENDBRANCH  14  16
ENDBRANCH  12  14
ENDBRANCH  10  12
ENDBRANCH   1  10
TORSDOF 6
ENDMDL
MODEL 6
REMARK VINA RESULT:      -5.6      1.549      2.018
REMARK  Name = 
REMARK  7 active torsions:
REMARK  status: ('A' for Active; 'I' for Inactive)
REMARK    1  A    between atoms: C_2  and  C_3
REMARK    2  A    between atoms: C_3  and  N_4
REMARK    3  A    between atoms: N_4  and  C_5
REMARK    4  A    between atoms: C_5  and  C_6
REMARK    5  A    between atoms: C_5  and  C_7
REMARK    6  A    between atoms: C_7  and  C_8
REMARK    7  A    between atoms: C_12  and  O_13
REMARK                            x       y       z     vdW  Elec       q    Type
REMARK                         _______ _______ _______ _____ _____    ______ ____
ROOT
ATOM      1  C   UNL     1       4.713   3.549  16.735  0.00  0.00    +0.000 C 
ENDROOT
BRANCH   1   2
ATOM      2  C   UNL     1       3.549   3.875  17.644  0.00  0.00    +0.000 A 
ATOM      3  C   UNL     1       2.342   3.165  17.522  0.00  0.00    +0.000 A 
ATOM      4  C   UNL     1       1.301   3.366  18.426  0.00  0.00    +0.000 A 
ATOM      5  C   UNL     1       1.445   4.299  19.452  0.00  0.00    +0.000 A 
ATOM      6  C   UNL     1       2.635   5.016  19.564  0.00  0.00    +0.000 A 
ATOM      7  C   UNL     1       3.683   4.810  18.672  0.00  0.00    +0.000 A 
BRANCH   6   8
ATOM      8  O   UNL     1       2.819   5.931  20.557  0.00  0.00    +0.000 OA
ATOM      9  H   UNL     1       3.067   5.457  21.368  0.00  0.00    +0.000 HD
ENDBRANCH   6   8
ENDBRANCH   1   2
BRANCH   1  10
ATOM     10  C   UNL     1       5.684   4.744  16.578  0.00  0.00    +0.000 C 
ATOM     11  C   UNL     1       5.678   5.235  15.124  0.00  0.00    +0.000 C 
BRANCH  10  12
ATOM     12  N   UNL     1       7.041   4.340  16.998  0.00  0.00    +0.000 NA
ATOM     13  H   UNL     1       7.021   3.347  17.238  0.00  0.00    +0.000 HD
BRANCH  12  14
ATOM     14  C   UNL     1       7.468   5.050  18.179  0.00  0.00    +0.000 C 
BRANCH  14  16
ATOM     15  C   UNL     1       7.680   7.816  17.651  0.00  0.00    +0.000 C 
ATOM     16  C   UNL     1       7.583   6.539  17.895  0.00  0.00    +0.000 C 
ENDBRANCH  14  16
ENDBRANCH  12  14
ENDBRANCH  10  12
ENDBRANCH   1  10
TORSDOF 6
ENDMDL
MODEL 7
REMARK VINA RESULT:      -5.6      3.086      5.284
REMARK  Name = 
REMARK  7 active torsions:
REMARK  status: ('A' for Active; 'I' for Inactive)
REMARK    1  A    between atoms: C_2  and  C_3
REMARK    2  A    between atoms: C_3  and  N_4
REMARK    3  A    between atoms: N_4  and  C_5
REMARK    4  A    between atoms: C_5  and  C_6
REMARK    5  A    between atoms: C_5  and  C_7
REMARK    6  A    between atoms: C_7  and  C_8
REMARK    7  A    between atoms: C_12  and  O_13
REMARK                            x       y       z     vdW  Elec       q    Type
REMARK                         _______ _______ _______ _____ _____    ______ ____
ROOT
ATOM      1  C   UNL     1       4.849   4.285  17.052  0.00  0.00    +0.000 C 
ENDROOT
BRANCH   1   2
ATOM      2  C   UNL     1       5.996   5.129  17.559  0.00  0.00    +0.000 A 
ATOM      3  C   UNL     1       6.431   6.242  16.817  0.00  0.00    +0.000 A 
ATOM      4  C   UNL     1       7.404   7.102  17.324  0.00  0.00    +0.000 A 
ATOM      5  C   UNL     1       7.972   6.846  18.571  0.00  0.00    +0.000 A 
ATOM      6  C   UNL     1       7.554   5.735  19.300  0.00  0.00    +0.000 A 
ATOM      7  C   UNL     1       6.573   4.879  18.805  0.00  0.00    +0.000 A 
BRANCH   6   8
ATOM      8  O   UNL     1       8.079   5.454  20.526  0.00  0.00    +0.000 OA
ATOM      9  H   UNL     1       7.457   4.876  21.000  0.00  0.00    +0.000 HD
ENDBRANCH   6   8
ENDBRANCH   1   2
BRANCH   1  10
ATOM     10  C   UNL     1       3.996   3.705  18.206  0.00  0.00    +0.000 C 
ATOM     11  C   UNL     1       3.405   2.352  17.789  0.00  0.00    +0.000 C 
BRANCH  10  12
ATOM     12  N   UNL     1       2.931   4.663  18.566  0.00  0.00    +0.000 NA
ATOM     13  H   UNL     1       3.057   5.510  18.007  0.00  0.00    +0.000 HD
BRANCH  12  14
ATOM     14  C   UNL     1       3.014   5.058  19.951  0.00  0.00    +0.000 C 
BRANCH  14  16
ATOM     15  C   UNL     1       1.847   3.094  21.613  0.00  0.00    +0.000 C 
ATOM     16  C   UNL     1       2.386   4.001  20.846  0.00  0.00    +0.000 C 
ENDBRANCH  14  16
ENDBRANCH  12  14
ENDBRANCH  10  12
ENDBRANCH   1  10
TORSDOF 6
ENDMDL
MODEL 8
REMARK VINA RESULT:      -5.6      1.830      2.098
REMARK  Name = 
REMARK  7 active torsions:
REMARK  status: ('A' for Active; 'I' for Inactive)
REMARK    1  A    between atoms: C_2  and  C_3
REMARK    2  A    between atoms: C_3  and  N_4
REMARK    3  A    between atoms: N_4  and  C_5
REMARK    4  A    between atoms: C_5  and  C_6
REMARK    5  A    between atoms: C_5  and  C_7
REMARK    6  A    between atoms: C_7  and  C_8
REMARK    7  A    between atoms: C_12  and  O_13
REMARK                            x       y       z     vdW  Elec       q    Type
REMARK                         _______ _______ _______ _____ _____    ______ ____
ROOT
ATOM      1  C   UNL     1       5.207   4.413  17.985  0.00  0.00    +0.000 C 
ENDROOT
BRANCH   1   2
ATOM      2  C   UNL     1       4.281   5.563  18.311  0.00  0.00    +0.000 A 
ATOM      3  C   UNL     1       4.141   6.631  17.406  0.00  0.00    +0.000 A 
ATOM      4  C   UNL     1       3.205   7.639  17.631  0.00  0.00    +0.000 A 
ATOM      5  C   UNL     1       2.412   7.605  18.777  0.00  0.00    +0.000 A 
ATOM      6  C   UNL     1       2.561   6.557  19.682  0.00  0.00    +0.000 A 
ATOM      7  C   UNL     1       3.485   5.540  19.457  0.00  0.00    +0.000 A 
BRANCH   6   8
ATOM      8  O   UNL     1       1.800   6.482  20.811  0.00  0.00    +0.000 OA
ATOM      9  H   UNL     1       1.715   7.376  21.182  0.00  0.00    +0.000 HD
ENDBRANCH   6   8
ENDBRANCH   1   2
BRANCH   1  10
ATOM     10  C   UNL     1       6.212   4.773  16.865  0.00  0.00    +0.000 C 
ATOM     11  C   UNL     1       6.000   3.851  15.657  0.00  0.00    +0.000 C 
BRANCH  10  12
ATOM     12  N   UNL     1       7.591   4.664  17.382  0.00  0.00    +0.000 NA
ATOM     13  H   UNL     1       7.737   3.708  17.713  0.00  0.00    +0.000 HD
BRANCH  12  14
ATOM     14  C   UNL     1       7.808   5.537  18.511  0.00  0.00    +0.000 C 
BRANCH  14  16
ATOM     15  C   UNL     1       7.805   8.239  17.692  0.00  0.00    +0.000 C 
ATOM     16  C   UNL     1       7.806   6.991  18.070  0.00  0.00    +0.000 C 
ENDBRANCH  14  16
ENDBRANCH  12  14
ENDBRANCH  10  12
ENDBRANCH   1  10
TORSDOF 6
ENDMDL
MODEL 9
REMARK VINA RESULT:      -5.6      3.209      5.570
REMARK  Name = 
REMARK  7 active torsions:
REMARK  status: ('A' for Active; 'I' for Inactive)
REMARK    1  A    between atoms: C_2  and  C_3
REMARK    2  A    between atoms: C_3  and  N_4
REMARK    3  A    between atoms: N_4  and  C_5
REMARK    4  A    between atoms: C_5  and  C_6
REMARK    5  A    between atoms: C_5  and  C_7
REMARK    6  A    between atoms: C_7  and  C_8
REMARK    7  A    between atoms: C_12  and  O_13
REMARK                            x       y       z     vdW  Elec       q    Type
REMARK                         _______ _______ _______ _____ _____    ______ ____
ROOT
ATOM      1  C   UNL     1       3.180   5.205  17.714  0.00  0.00    +0.000 C 
ENDROOT
BRANCH   1   2
ATOM      2  C   UNL     1       4.657   5.473  17.894  0.00  0.00    +0.000 A 
ATOM      3  C   UNL     1       5.250   5.320  19.160  0.00  0.00    +0.000 A 
ATOM      4  C   UNL     1       6.629   5.444  19.322  0.00  0.00    +0.000 A 
ATOM      5  C   UNL     1       7.431   5.748  18.223  0.00  0.00    +0.000 A 
ATOM      6  C   UNL     1       6.843   5.916  16.971  0.00  0.00    +0.000 A 
ATOM      7  C   UNL     1       5.467   5.780  16.800  0.00  0.00    +0.000 A 
BRANCH   6   8
ATOM      8  O   UNL     1       7.592   6.206  15.870  0.00  0.00    +0.000 OA
ATOM      9  H   UNL     1       8.514   5.962  16.054  0.00  0.00    +0.000 HD
ENDBRANCH   6   8
ENDBRANCH   1   2
BRANCH   1  10
ATOM     10  C   UNL     1       2.783   3.786  18.186  0.00  0.00    +0.000 C 
ATOM     11  C   UNL     1       3.591   2.734  17.414  0.00  0.00    +0.000 C 
BRANCH  10  12
ATOM     12  N   UNL     1       1.332   3.587  17.995  0.00  0.00    +0.000 NA
ATOM     13  H   UNL     1       0.852   4.453  18.247  0.00  0.00    +0.000 HD
BRANCH  12  14
ATOM     14  C   UNL     1       0.817   2.553  18.861  0.00  0.00    +0.000 C 
BRANCH  14  16
ATOM     15  C   UNL     1       1.622   3.002  21.530  0.00  0.00    +0.000 C 
ATOM     16  C   UNL     1       1.250   2.794  20.297  0.00  0.00    +0.000 C 
ENDBRANCH  14  16
ENDBRANCH  12  14
ENDBRANCH  10  12
ENDBRANCH   1  10
TORSDOF 6
ENDMDL
