MODEL 1
REMARK VINA RESULT:      -8.3      0.000      0.000
REMARK  Name = 
REMARK  11 active torsions:
REMARK  status: ('A' for Active; 'I' for Inactive)
REMARK    1  A    between atoms: C_1  and  C_2
REMARK    2  A    between atoms: C_2  and  C_3
REMARK    3  A    between atoms: C_3  and  C_4
REMARK    4  A    between atoms: C_7  and  C_8
REMARK    5  A    between atoms: C_10  and  C_11
REMARK    6  A    between atoms: C_14  and  C_15
REMARK    7  A    between atoms: N_17  and  C_18
REMARK    8  A    between atoms: C_18  and  C_19
REMARK    9  A    between atoms: C_18  and  C_20
REMARK   10  A    between atoms: C_22  and  C_23
REMARK   11  A    between atoms: C_23  and  C_24
REMARK                            x       y       z     vdW  Elec       q    Type
REMARK                         _______ _______ _______ _____ _____    ______ ____
ROOT
ATOM      1  C   UNL     1       2.879   6.969  18.500  0.00  0.00    +0.000 A 
ATOM      2  C   UNL     1       2.653   8.091  17.679  0.00  0.00    +0.000 A 
ATOM      3  C   UNL     1       1.860   9.164  18.103  0.00  0.00    +0.000 A 
ATOM      4  C   UNL     1       1.259   9.143  19.365  0.00  0.00    +0.000 A 
ATOM      5  C   UNL     1       1.549   8.093  20.233  0.00  0.00    +0.000 A 
ATOM      6  C   UNL     1       2.399   7.056  19.818  0.00  0.00    +0.000 A 
ENDROOT
BRANCH   1  13
ATOM      7  C   UNL     1       2.908   4.550  17.621  0.00  0.00    +0.000 A 
ATOM      8  C   UNL     1       3.746   3.579  17.084  0.00  0.00    +0.000 A 
ATOM      9  N   UNL     1       5.054   3.741  16.828  0.00  0.00    +0.000 NA
ATOM     10  C   UNL     1       5.564   4.938  17.135  0.00  0.00    +0.000 A 
ATOM     11  C   UNL     1       7.007   5.184  16.825  0.00  0.00    +0.000 C 
ATOM     12  N   UNL     1       4.863   5.942  17.688  0.00  0.00    +0.000 NA
ATOM     13  C   UNL     1       3.539   5.753  17.945  0.00  0.00    +0.000 A 
BRANCH   7  14
ATOM     14  C   UNL     1       1.455   4.186  17.800  0.00  0.00    +0.000 C 
BRANCH  14  16
ATOM     15  C   UNL     1       0.975   3.669  20.278  0.00  0.00    +0.000 C 
ATOM     16  C   UNL     1       1.102   3.136  18.862  0.00  0.00    +0.000 C 
ENDBRANCH  14  16
ENDBRANCH   7  14
ENDBRANCH   1  13
BRANCH   4  17
ATOM     17  C   UNL     1       0.273  10.208  19.691  0.00  0.00    +0.000 C 
ATOM     18  O   UNL     1      -0.330  10.167  20.760  0.00  0.00    +0.000 OA
ATOM     19  N   UNL     1       0.070  11.203  18.763  0.00  0.00    +0.000 N 
ATOM     20  H   UNL     1       0.505  11.175  17.850  0.00  0.00    +0.000 HD
BRANCH  19  21
ATOM     21  C   UNL     1      -0.917  12.250  19.009  0.00  0.00    +0.000 C 
ATOM     22  C   UNL     1      -0.423  13.597  18.483  0.00  0.00    +0.000 C 
BRANCH  21  23
ATOM     23  C   UNL     1      -2.212  11.874  18.373  0.00  0.00    +0.000 A 
ATOM     24  N   UNL     1      -3.429  11.820  18.885  0.00  0.00    +0.000 NA
ATOM     25  C   UNL     1      -4.176  11.434  17.790  0.00  0.00    +0.000 A 
ATOM     26  N   UNL     1      -3.467  11.241  16.670  0.00  0.00    +0.000 NA
ATOM     27  O   UNL     1      -2.161  11.538  17.050  0.00  0.00    +0.000 OA
BRANCH  25  28
ATOM     28  C   UNL     1      -5.640  11.241  17.855  0.00  0.00    +0.000 C 
ATOM     29  C   UNL     1      -6.402  12.445  17.325  0.00  0.00    +0.000 C 
ENDBRANCH  25  28
ENDBRANCH  21  23
ENDBRANCH  19  21
ENDBRANCH   4  17
TORSDOF 7
ENDMDL
MODEL 2
REMARK VINA RESULT:      -8.1      2.899      9.167
REMARK  Name = 
REMARK  11 active torsions:
REMARK  status: ('A' for Active; 'I' for Inactive)
REMARK    1  A    between atoms: C_1  and  C_2
REMARK    2  A    between atoms: C_2  and  C_3
REMARK    3  A    between atoms: C_3  and  C_4
REMARK    4  A    between atoms: C_7  and  C_8
REMARK    5  A    between atoms: C_10  and  C_11
REMARK    6  A    between atoms: C_14  and  C_15
REMARK    7  A    between atoms: N_17  and  C_18
REMARK    8  A    between atoms: C_18  and  C_19
REMARK    9  A    between atoms: C_18  and  C_20
REMARK   10  A    between atoms: C_22  and  C_23
REMARK   11  A    between atoms: C_23  and  C_24
REMARK                            x       y       z     vdW  Elec       q    Type
REMARK                         _______ _______ _______ _____ _____    ______ ____
ROOT
ATOM      1  C   UNL     1       1.219   9.946  18.876  0.00  0.00    +0.000 A 
ATOM      2  C   UNL     1       1.713   9.276  17.740  0.00  0.00    +0.000 A 
ATOM      3  C   UNL     1       2.251   7.986  17.824  0.00  0.00    +0.000 A 
ATOM      4  C   UNL     1       2.318   7.327  19.055  0.00  0.00    +0.000 A 
ATOM      5  C   UNL     1       1.743   7.928  20.174  0.00  0.00    +0.000 A 
ATOM      6  C   UNL     1       1.149   9.194  20.061  0.00  0.00    +0.000 A 
ENDROOT
BRANCH   1  13
ATOM      7  C   UNL     1      -0.426  11.926  18.916  0.00  0.00    +0.000 A 
ATOM      8  C   UNL     1      -0.488  13.313  18.840  0.00  0.00    +0.000 A 
ATOM      9  N   UNL     1       0.570  14.130  18.713  0.00  0.00    +0.000 NA
ATOM     10  C   UNL     1       1.764  13.531  18.646  0.00  0.00    +0.000 A 
ATOM     11  C   UNL     1       2.978  14.399  18.551  0.00  0.00    +0.000 C 
ATOM     12  N   UNL     1       1.947  12.199  18.674  0.00  0.00    +0.000 NA
ATOM     13  C   UNL     1       0.859  11.391  18.797  0.00  0.00    +0.000 A 
BRANCH   7  14
ATOM     14  C   UNL     1      -1.728  11.186  19.095  0.00  0.00    +0.000 C 
BRANCH  14  16
ATOM     15  C   UNL     1      -2.039   9.894  16.888  0.00  0.00    +0.000 C 
ATOM     16  C   UNL     1      -2.588  10.931  17.850  0.00  0.00    +0.000 C 
ENDBRANCH  14  16
ENDBRANCH   7  14
ENDBRANCH   1  13
BRANCH   4  17
ATOM     17  C   UNL     1       3.071   6.047  19.127  0.00  0.00    +0.000 C 
ATOM     18  O   UNL     1       3.091   5.415  20.180  0.00  0.00    +0.000 OA
ATOM     19  N   UNL     1       3.730   5.624  17.996  0.00  0.00    +0.000 N 
ATOM     20  H   UNL     1       3.781   6.198  17.164  0.00  0.00    +0.000 HD
BRANCH  19  21
ATOM     21  C   UNL     1       4.522   4.398  18.019  0.00  0.00    +0.000 C 
ATOM     22  C   UNL     1       3.626   3.169  17.863  0.00  0.00    +0.000 C 
BRANCH  21  23
ATOM     23  C   UNL     1       5.549   4.448  16.940  0.00  0.00    +0.000 A 
ATOM     24  N   UNL     1       5.406   4.484  15.627  0.00  0.00    +0.000 NA
ATOM     25  C   UNL     1       6.719   4.546  15.204  0.00  0.00    +0.000 A 
ATOM     26  N   UNL     1       7.625   4.531  16.190  0.00  0.00    +0.000 NA
ATOM     27  O   UNL     1       6.853   4.472  17.348  0.00  0.00    +0.000 OA
BRANCH  25  28
ATOM     28  C   UNL     1       7.090   4.615  13.775  0.00  0.00    +0.000 C 
ATOM     29  C   UNL     1       6.228   3.706  12.914  0.00  0.00    +0.000 C 
ENDBRANCH  25  28
ENDBRANCH  21  23
ENDBRANCH  19  21
ENDBRANCH   4  17
TORSDOF 7
ENDMDL
MODEL 3
REMARK VINA RESULT:      -8.1      2.853      9.475
REMARK  Name = 
REMARK  11 active torsions:
REMARK  status: ('A' for Active; 'I' for Inactive)
REMARK    1  A    between atoms: C_1  and  C_2
REMARK    2  A    between atoms: C_2  and  C_3
REMARK    3  A    between atoms: C_3  and  C_4
REMARK    4  A    between atoms: C_7  and  C_8
REMARK    5  A    between atoms: C_10  and  C_11
REMARK    6  A    between atoms: C_14  and  C_15
REMARK    7  A    between atoms: N_17  and  C_18
REMARK    8  A    between atoms: C_18  and  C_19
REMARK    9  A    between atoms: C_18  and  C_20
REMARK   10  A    between atoms: C_22  and  C_23
REMARK   11  A    between atoms: C_23  and  C_24
REMARK                            x       y       z     vdW  Elec       q    Type
REMARK                         _______ _______ _______ _____ _____    ______ ____
ROOT
ATOM      1  C   UNL     1       0.875   9.557  19.008  0.00  0.00    +0.000 A 
ATOM      2  C   UNL     1       1.149   8.752  20.131  0.00  0.00    +0.000 A 
ATOM      3  C   UNL     1       2.032   7.668  20.060  0.00  0.00    +0.000 A 
ATOM      4  C   UNL     1       2.665   7.350  18.855  0.00  0.00    +0.000 A 
ATOM      5  C   UNL     1       2.489   8.191  17.758  0.00  0.00    +0.000 A 
ATOM      6  C   UNL     1       1.652   9.312  17.863  0.00  0.00    +0.000 A 
ENDROOT
BRANCH   1  13
ATOM      7  C   UNL     1      -0.152  11.841  19.606  0.00  0.00    +0.000 A 
ATOM      8  C   UNL     1      -1.315  12.595  19.489  0.00  0.00    +0.000 A 
ATOM      9  N   UNL     1      -2.435  12.197  18.866  0.00  0.00    +0.000 NA
ATOM     10  C   UNL     1      -2.403  10.971  18.334  0.00  0.00    +0.000 A 
ATOM     11  C   UNL     1      -3.611  10.499  17.588  0.00  0.00    +0.000 C 
ATOM     12  N   UNL     1      -1.351  10.138  18.412  0.00  0.00    +0.000 NA
ATOM     13  C   UNL     1      -0.227  10.560  19.054  0.00  0.00    +0.000 A 
BRANCH   7  14
ATOM     14  C   UNL     1       1.017  12.481  20.313  0.00  0.00    +0.000 C 
BRANCH  14  16
ATOM     15  C   UNL     1       2.466  12.894  18.223  0.00  0.00    +0.000 C 
ATOM     16  C   UNL     1       1.896  13.452  19.515  0.00  0.00    +0.000 C 
ENDBRANCH  14  16
ENDBRANCH   7  14
ENDBRANCH   1  13
BRANCH   4  17
ATOM     17  C   UNL     1       3.436   6.081  18.780  0.00  0.00    +0.000 C 
ATOM     18  O   UNL     1       3.674   5.456  19.810  0.00  0.00    +0.000 OA
ATOM     19  N   UNL     1       3.865   5.660  17.542  0.00  0.00    +0.000 N 
ATOM     20  H   UNL     1       3.741   6.230  16.715  0.00  0.00    +0.000 HD
BRANCH  19  21
ATOM     21  C   UNL     1       4.664   4.446  17.412  0.00  0.00    +0.000 C 
ATOM     22  C   UNL     1       3.766   3.215  17.288  0.00  0.00    +0.000 C 
BRANCH  21  23
ATOM     23  C   UNL     1       5.566   4.567  16.231  0.00  0.00    +0.000 A 
ATOM     24  N   UNL     1       5.439   4.083  15.007  0.00  0.00    +0.000 NA
ATOM     25  C   UNL     1       6.580   4.565  14.397  0.00  0.00    +0.000 A 
ATOM     26  N   UNL     1       7.378   5.287  15.194  0.00  0.00    +0.000 NA
ATOM     27  O   UNL     1       6.706   5.298  16.414  0.00  0.00    +0.000 OA
BRANCH  25  28
ATOM     28  C   UNL     1       6.896   4.294  12.979  0.00  0.00    +0.000 C 
ATOM     29  C   UNL     1       5.898   3.343  12.340  0.00  0.00    +0.000 C 
ENDBRANCH  25  28
ENDBRANCH  21  23
ENDBRANCH  19  21
ENDBRANCH   4  17
TORSDOF 7
ENDMDL
MODEL 4
REMARK VINA RESULT:      -8.1      2.796      9.324
REMARK  Name = 
REMARK  11 active torsions:
REMARK  status: ('A' for Active; 'I' for Inactive)
REMARK    1  A    between atoms: C_1  and  C_2
REMARK    2  A    between atoms: C_2  and  C_3
REMARK    3  A    between atoms: C_3  and  C_4
REMARK    4  A    between atoms: C_7  and  C_8
REMARK    5  A    between atoms: C_10  and  C_11
REMARK    6  A    between atoms: C_14  and  C_15
REMARK    7  A    between atoms: N_17  and  C_18
REMARK    8  A    between atoms: C_18  and  C_19
REMARK    9  A    between atoms: C_18  and  C_20
REMARK   10  A    between atoms: C_22  and  C_23
REMARK   11  A    between atoms: C_23  and  C_24
REMARK                            x       y       z     vdW  Elec       q    Type
REMARK                         _______ _______ _______ _____ _____    ______ ____
ROOT
ATOM      1  C   UNL     1       0.942   9.773  19.256  0.00  0.00    +0.000 A 
ATOM      2  C   UNL     1       1.112   8.920  20.363  0.00  0.00    +0.000 A 
ATOM      3  C   UNL     1       1.843   7.729  20.268  0.00  0.00    +0.000 A 
ATOM      4  C   UNL     1       2.420   7.349  19.053  0.00  0.00    +0.000 A 
ATOM      5  C   UNL     1       2.352   8.225  17.971  0.00  0.00    +0.000 A 
ATOM      6  C   UNL     1       1.672   9.445  18.100  0.00  0.00    +0.000 A 
ENDROOT
BRANCH   1  13
ATOM      7  C   UNL     1      -1.270  10.972  18.712  0.00  0.00    +0.000 A 
ATOM      8  C   UNL     1      -1.986  12.138  18.964  0.00  0.00    +0.000 A 
ATOM      9  N   UNL     1      -1.582  13.138  19.762  0.00  0.00    +0.000 NA
ATOM     10  C   UNL     1      -0.386  12.977  20.338  0.00  0.00    +0.000 A 
ATOM     11  C   UNL     1       0.090  14.043  21.274  0.00  0.00    +0.000 C 
ATOM     12  N   UNL     1       0.412  11.912  20.145  0.00  0.00    +0.000 NA
ATOM     13  C   UNL     1      -0.017  10.912  19.326  0.00  0.00    +0.000 A 
BRANCH   7  14
ATOM     14  C   UNL     1      -1.914   9.947  17.812  0.00  0.00    +0.000 C 
BRANCH  14  16
ATOM     15  C   UNL     1      -3.771  10.580  16.143  0.00  0.00    +0.000 C 
ATOM     16  C   UNL     1      -2.287  10.374  16.387  0.00  0.00    +0.000 C 
ENDBRANCH  14  16
ENDBRANCH   7  14
ENDBRANCH   1  13
BRANCH   4  17
ATOM     17  C   UNL     1       3.015   5.990  18.952  0.00  0.00    +0.000 C 
ATOM     18  O   UNL     1       3.043   5.267  19.945  0.00  0.00    +0.000 OA
ATOM     19  N   UNL     1       3.526   5.600  17.736  0.00  0.00    +0.000 N 
ATOM     20  H   UNL     1       3.580   6.238  16.953  0.00  0.00    +0.000 HD
BRANCH  19  21
ATOM     21  C   UNL     1       4.162   4.295  17.588  0.00  0.00    +0.000 C 
ATOM     22  C   UNL     1       3.133   3.227  17.216  0.00  0.00    +0.000 C 
BRANCH  21  23
ATOM     23  C   UNL     1       5.237   4.378  16.558  0.00  0.00    +0.000 A 
ATOM     24  N   UNL     1       5.171   4.255  15.244  0.00  0.00    +0.000 NA
ATOM     25  C   UNL     1       6.486   4.461  14.876  0.00  0.00    +0.000 A 
ATOM     26  N   UNL     1       7.323   4.679  15.899  0.00  0.00    +0.000 NA
ATOM     27  O   UNL     1       6.498   4.632  17.019  0.00  0.00    +0.000 OA
BRANCH  25  28
ATOM     28  C   UNL     1       6.930   4.431  13.467  0.00  0.00    +0.000 C 
ATOM     29  C   UNL     1       6.087   3.494  12.619  0.00  0.00    +0.000 C 
ENDBRANCH  25  28
ENDBRANCH  21  23
ENDBRANCH  19  21
ENDBRANCH   4  17
TORSDOF 7
ENDMDL
MODEL 5
REMARK VINA RESULT:      -8.0      2.905      9.353
REMARK  Name = 
REMARK  11 active torsions:
REMARK  status: ('A' for Active; 'I' for Inactive)
REMARK    1  A    between atoms: C_1  and  C_2
REMARK    2  A    between atoms: C_2  and  C_3
REMARK    3  A    between atoms: C_3  and  C_4
REMARK    4  A    between atoms: C_7  and  C_8
REMARK    5  A    between atoms: C_10  and  C_11
REMARK    6  A    between atoms: C_14  and  C_15
REMARK    7  A    between atoms: N_17  and  C_18
REMARK    8  A    between atoms: C_18  and  C_19
REMARK    9  A    between atoms: C_18  and  C_20
REMARK   10  A    between atoms: C_22  and  C_23
REMARK   11  A    between atoms: C_23  and  C_24
REMARK                            x       y       z     vdW  Elec       q    Type
REMARK                         _______ _______ _______ _____ _____    ______ ____
ROOT
ATOM      1  C   UNL     1       0.819   9.339  18.996  0.00  0.00    +0.000 A 
ATOM      2  C   UNL     1       1.076   8.556  20.138  0.00  0.00    +0.000 A 
ATOM      3  C   UNL     1       1.999   7.504  20.116  0.00  0.00    +0.000 A 
ATOM      4  C   UNL     1       2.690   7.196  18.941  0.00  0.00    +0.000 A 
ATOM      5  C   UNL     1       2.530   8.018  17.827  0.00  0.00    +0.000 A 
ATOM      6  C   UNL     1       1.650   9.110  17.885  0.00  0.00    +0.000 A 
ENDROOT
BRANCH   1  13
ATOM      7  C   UNL     1      -0.607  11.246  19.975  0.00  0.00    +0.000 A 
ATOM      8  C   UNL     1      -1.709  12.050  19.708  0.00  0.00    +0.000 A 
ATOM      9  N   UNL     1      -2.448  12.005  18.588  0.00  0.00    +0.000 NA
ATOM     10  C   UNL     1      -2.075  11.097  17.680  0.00  0.00    +0.000 A 
ATOM     11  C   UNL     1      -2.837  11.039  16.394  0.00  0.00    +0.000 C 
ATOM     12  N   UNL     1      -1.049  10.243  17.839  0.00  0.00    +0.000 NA
ATOM     13  C   UNL     1      -0.319  10.302  18.986  0.00  0.00    +0.000 A 
BRANCH   7  14
ATOM     14  C   UNL     1       0.116  11.475  21.279  0.00  0.00    +0.000 C 
BRANCH  14  16
ATOM     15  C   UNL     1      -0.487   9.821  23.160  0.00  0.00    +0.000 C 
ATOM     16  C   UNL     1      -0.652  11.215  22.581  0.00  0.00    +0.000 C 
ENDBRANCH  14  16
ENDBRANCH   7  14
ENDBRANCH   1  13
BRANCH   4  17
ATOM     17  C   UNL     1       3.509   5.954  18.912  0.00  0.00    +0.000 C 
ATOM     18  O   UNL     1       3.845   5.427  19.969  0.00  0.00    +0.000 OA
ATOM     19  N   UNL     1       3.867   5.447  17.684  0.00  0.00    +0.000 N 
ATOM     20  H   UNL     1       3.661   5.941  16.825  0.00  0.00    +0.000 HD
BRANCH  19  21
ATOM     21  C   UNL     1       4.706   4.257  17.594  0.00  0.00    +0.000 C 
ATOM     22  C   UNL     1       3.850   2.993  17.513  0.00  0.00    +0.000 C 
BRANCH  21  23
ATOM     23  C   UNL     1       5.604   4.368  16.409  0.00  0.00    +0.000 A 
ATOM     24  N   UNL     1       5.368   4.113  15.133  0.00  0.00    +0.000 NA
ATOM     25  C   UNL     1       6.579   4.437  14.555  0.00  0.00    +0.000 A 
ATOM     26  N   UNL     1       7.517   4.850  15.417  0.00  0.00    +0.000 NA
ATOM     27  O   UNL     1       6.872   4.813  16.651  0.00  0.00    +0.000 OA
BRANCH  25  28
ATOM     28  C   UNL     1       6.819   4.326  13.101  0.00  0.00    +0.000 C 
ATOM     29  C   UNL     1       7.883   5.298  12.619  0.00  0.00    +0.000 C 
ENDBRANCH  25  28
ENDBRANCH  21  23
ENDBRANCH  19  21
ENDBRANCH   4  17
TORSDOF 7
ENDMDL
MODEL 6
REMARK VINA RESULT:      -7.9      1.065      2.710
REMARK  Name = 
REMARK  11 active torsions:
REMARK  status: ('A' for Active; 'I' for Inactive)
REMARK    1  A    between atoms: C_1  and  C_2
REMARK    2  A    between atoms: C_2  and  C_3
REMARK    3  A    between atoms: C_3  and  C_4
REMARK    4  A    between atoms: C_7  and  C_8
REMARK    5  A    between atoms: C_10  and  C_11
REMARK    6  A    between atoms: C_14  and  C_15
REMARK    7  A    between atoms: N_17  and  C_18
REMARK    8  A    between atoms: C_18  and  C_19
REMARK    9  A    between atoms: C_18  and  C_20
REMARK   10  A    between atoms: C_22  and  C_23
REMARK   11  A    between atoms: C_23  and  C_24
REMARK                            x       y       z     vdW  Elec       q    Type
REMARK                         _______ _______ _______ _____ _____    ______ ____
ROOT
ATOM      1  C   UNL     1       2.907   6.988  18.321  0.00  0.00    +0.000 A 
ATOM      2  C   UNL     1       2.673   8.116  17.510  0.00  0.00    +0.000 A 
ATOM      3  C   UNL     1       1.891   9.189  17.952  0.00  0.00    +0.000 A 
ATOM      4  C   UNL     1       1.309   9.163  19.223  0.00  0.00    +0.000 A 
ATOM      5  C   UNL     1       1.609   8.107  20.081  0.00  0.00    +0.000 A 
ATOM      6  C   UNL     1       2.448   7.069  19.647  0.00  0.00    +0.000 A 
ENDROOT
BRANCH   1  13
ATOM      7  C   UNL     1       4.818   5.715  17.157  0.00  0.00    +0.000 A 
ATOM      8  C   UNL     1       5.204   4.448  16.732  0.00  0.00    +0.000 A 
ATOM      9  N   UNL     1       4.486   3.325  16.892  0.00  0.00    +0.000 NA
ATOM     10  C   UNL     1       3.305   3.471  17.503  0.00  0.00    +0.000 A 
ATOM     11  C   UNL     1       2.487   2.242  17.748  0.00  0.00    +0.000 C 
ATOM     12  N   UNL     1       2.810   4.646  17.927  0.00  0.00    +0.000 NA
ATOM     13  C   UNL     1       3.554   5.773  17.748  0.00  0.00    +0.000 A 
BRANCH   7  14
ATOM     14  C   UNL     1       5.784   6.848  16.917  0.00  0.00    +0.000 C 
BRANCH  14  16
ATOM     15  C   UNL     1       7.903   8.097  17.683  0.00  0.00    +0.000 C 
ATOM     16  C   UNL     1       7.156   6.779  17.599  0.00  0.00    +0.000 C 
ENDBRANCH  14  16
ENDBRANCH   7  14
ENDBRANCH   1  13
BRANCH   4  17
ATOM     17  C   UNL     1       0.333  10.230  19.571  0.00  0.00    +0.000 C 
ATOM     18  O   UNL     1      -0.166  10.251  20.693  0.00  0.00    +0.000 OA
ATOM     19  N   UNL     1       0.018  11.155  18.602  0.00  0.00    +0.000 N 
ATOM     20  H   UNL     1       0.366  11.072  17.655  0.00  0.00    +0.000 HD
BRANCH  19  21
ATOM     21  C   UNL     1      -0.967  12.198  18.871  0.00  0.00    +0.000 C 
ATOM     22  C   UNL     1      -0.470  13.555  18.375  0.00  0.00    +0.000 C 
BRANCH  21  23
ATOM     23  C   UNL     1      -2.262  11.838  18.228  0.00  0.00    +0.000 A 
ATOM     24  N   UNL     1      -3.493  11.870  18.711  0.00  0.00    +0.000 NA
ATOM     25  C   UNL     1      -4.231  11.447  17.623  0.00  0.00    +0.000 A 
ATOM     26  N   UNL     1      -3.506  11.152  16.537  0.00  0.00    +0.000 NA
ATOM     27  O   UNL     1      -2.197  11.416  16.930  0.00  0.00    +0.000 OA
BRANCH  25  28
ATOM     28  C   UNL     1      -5.703  11.323  17.664  0.00  0.00    +0.000 C 
ATOM     29  C   UNL     1      -6.376  12.613  18.101  0.00  0.00    +0.000 C 
ENDBRANCH  25  28
ENDBRANCH  21  23
ENDBRANCH  19  21
ENDBRANCH   4  17
TORSDOF 7
ENDMDL
MODEL 7
REMARK VINA RESULT:      -7.9      2.534      3.229
REMARK  Name = 
REMARK  11 active torsions:
REMARK  status: ('A' for Active; 'I' for Inactive)
REMARK    1  A    between atoms: C_1  and  C_2
REMARK    2  A    between atoms: C_2  and  C_3
REMARK    3  A    between atoms: C_3  and  C_4
REMARK    4  A    between atoms: C_7  and  C_8
REMARK    5  A    between atoms: C_10  and  C_11
REMARK    6  A    between atoms: C_14  and  C_15
REMARK    7  A    between atoms: N_17  and  C_18
REMARK    8  A    between atoms: C_18  and  C_19
REMARK    9  A    between atoms: C_18  and  C_20
REMARK   10  A    between atoms: C_22  and  C_23
REMARK   11  A    between atoms: C_23  and  C_24
REMARK                            x       y       z     vdW  Elec       q    Type
REMARK                         _______ _______ _______ _____ _____    ______ ____
ROOT
ATOM      1  C   UNL     1       2.701   6.816  19.104  0.00  0.00    +0.000 A 
ATOM      2  C   UNL     1       2.023   7.255  20.258  0.00  0.00    +0.000 A 
ATOM      3  C   UNL     1       1.292   8.449  20.271  0.00  0.00    +0.000 A 
ATOM      4  C   UNL     1       1.223   9.247  19.126  0.00  0.00    +0.000 A 
ATOM      5  C   UNL     1       1.799   8.785  17.945  0.00  0.00    +0.000 A 
ATOM      6  C   UNL     1       2.474   7.554  17.931  0.00  0.00    +0.000 A 
ENDROOT
BRANCH   1  13
ATOM      7  C   UNL     1       3.297   4.313  19.191  0.00  0.00    +0.000 A 
ATOM      8  C   UNL     1       4.374   3.434  19.233  0.00  0.00    +0.000 A 
ATOM      9  N   UNL     1       5.667   3.793  19.218  0.00  0.00    +0.000 NA
ATOM     10  C   UNL     1       5.907   5.107  19.170  0.00  0.00    +0.000 A 
ATOM     11  C   UNL     1       7.332   5.557  19.104  0.00  0.00    +0.000 C 
ATOM     12  N   UNL     1       4.951   6.053  19.159  0.00  0.00    +0.000 NA
ATOM     13  C   UNL     1       3.646   5.665  19.181  0.00  0.00    +0.000 A 
BRANCH   7  14
ATOM     14  C   UNL     1       1.914   3.710  19.179  0.00  0.00    +0.000 C 
BRANCH  14  16
ATOM     15  C   UNL     1       1.480   2.739  21.525  0.00  0.00    +0.000 C 
ATOM     16  C   UNL     1       1.095   3.765  20.475  0.00  0.00    +0.000 C 
ENDBRANCH  14  16
ENDBRANCH   7  14
ENDBRANCH   1  13
BRANCH   4  17
ATOM     17  C   UNL     1       0.602  10.593  19.245  0.00  0.00    +0.000 C 
ATOM     18  O   UNL     1       1.268  11.592  18.983  0.00  0.00    +0.000 OA
ATOM     19  N   UNL     1      -0.709  10.663  19.658  0.00  0.00    +0.000 N 
ATOM     20  H   UNL     1      -1.216   9.840  19.958  0.00  0.00    +0.000 HD
BRANCH  19  21
ATOM     21  C   UNL     1      -1.358  11.958  19.836  0.00  0.00    +0.000 C 
ATOM     22  C   UNL     1      -2.562  12.095  18.905  0.00  0.00    +0.000 C 
BRANCH  21  23
ATOM     23  C   UNL     1      -1.765  12.121  21.261  0.00  0.00    +0.000 A 
ATOM     24  N   UNL     1      -2.947  12.396  21.784  0.00  0.00    +0.000 NA
ATOM     25  C   UNL     1      -2.665  12.382  23.135  0.00  0.00    +0.000 A 
ATOM     26  N   UNL     1      -1.384  12.133  23.436  0.00  0.00    +0.000 NA
ATOM     27  O   UNL     1      -0.782  11.952  22.194  0.00  0.00    +0.000 OA
BRANCH  25  28
ATOM     28  C   UNL     1      -3.696  12.633  24.164  0.00  0.00    +0.000 C 
ATOM     29  C   UNL     1      -5.013  13.090  23.558  0.00  0.00    +0.000 C 
ENDBRANCH  25  28
ENDBRANCH  21  23
ENDBRANCH  19  21
ENDBRANCH   4  17
TORSDOF 7
ENDMDL
MODEL 8
REMARK VINA RESULT:      -7.9      2.941      9.272
REMARK  Name = 
REMARK  11 active torsions:
REMARK  status: ('A' for Active; 'I' for Inactive)
REMARK    1  A    between atoms: C_1  and  C_2
REMARK    2  A    between atoms: C_2  and  C_3
REMARK    3  A    between atoms: C_3  and  C_4
REMARK    4  A    between atoms: C_7  and  C_8
REMARK    5  A    between atoms: C_10  and  C_11
REMARK    6  A    between atoms: C_14  and  C_15
REMARK    7  A    between atoms: N_17  and  C_18
REMARK    8  A    between atoms: C_18  and  C_19
REMARK    9  A    between atoms: C_18  and  C_20
REMARK   10  A    between atoms: C_22  and  C_23
REMARK   11  A    between atoms: C_23  and  C_24
REMARK                            x       y       z     vdW  Elec       q    Type
REMARK                         _______ _______ _______ _____ _____    ______ ____
ROOT
ATOM      1  C   UNL     1       1.152   9.554  19.000  0.00  0.00    +0.000 A 
ATOM      2  C   UNL     1       1.729   9.092  17.802  0.00  0.00    +0.000 A 
ATOM      3  C   UNL     1       2.448   7.891  17.747  0.00  0.00    +0.000 A 
ATOM      4  C   UNL     1       2.618   7.117  18.898  0.00  0.00    +0.000 A 
ATOM      5  C   UNL     1       1.972   7.501  20.071  0.00  0.00    +0.000 A 
ATOM      6  C   UNL     1       1.200   8.672  20.094  0.00  0.00    +0.000 A 
ENDROOT
BRANCH   1  13
ATOM      7  C   UNL     1      -0.627  11.355  18.533  0.00  0.00    +0.000 A 
ATOM      8  C   UNL     1      -0.943  12.687  18.779  0.00  0.00    +0.000 A 
ATOM      9  N   UNL     1      -0.206  13.534  19.514  0.00  0.00    +0.000 NA
ATOM     10  C   UNL     1       0.921  13.030  20.029  0.00  0.00    +0.000 A 
ATOM     11  C   UNL     1       1.754  13.921  20.896  0.00  0.00    +0.000 C 
ATOM     12  N   UNL     1       1.347  11.771  19.834  0.00  0.00    +0.000 NA
ATOM     13  C   UNL     1       0.586  10.931  19.079  0.00  0.00    +0.000 A 
BRANCH   7  14
ATOM     14  C   UNL     1      -1.606  10.554  17.710  0.00  0.00    +0.000 C 
BRANCH  14  16
ATOM     15  C   UNL     1      -3.447  10.670  15.912  0.00  0.00    +0.000 C 
ATOM     16  C   UNL     1      -2.847  11.274  17.168  0.00  0.00    +0.000 C 
ENDBRANCH  14  16
ENDBRANCH   7  14
ENDBRANCH   1  13
BRANCH   4  17
ATOM     17  C   UNL     1       3.549   5.959  18.834  0.00  0.00    +0.000 C 
ATOM     18  O   UNL     1       3.989   5.479  19.875  0.00  0.00    +0.000 OA
ATOM     19  N   UNL     1       3.889   5.474  17.592  0.00  0.00    +0.000 N 
ATOM     20  H   UNL     1       3.591   5.936  16.742  0.00  0.00    +0.000 HD
BRANCH  19  21
ATOM     21  C   UNL     1       4.832   4.368  17.465  0.00  0.00    +0.000 C 
ATOM     22  C   UNL     1       4.096   3.029  17.420  0.00  0.00    +0.000 C 
BRANCH  21  23
ATOM     23  C   UNL     1       5.663   4.559  16.243  0.00  0.00    +0.000 A 
ATOM     24  N   UNL     1       5.593   3.969  15.062  0.00  0.00    +0.000 NA
ATOM     25  C   UNL     1       6.609   4.601  14.373  0.00  0.00    +0.000 A 
ATOM     26  N   UNL     1       7.283   5.514  15.084  0.00  0.00    +0.000 NA
ATOM     27  O   UNL     1       6.654   5.496  16.327  0.00  0.00    +0.000 OA
BRANCH  25  28
ATOM     28  C   UNL     1       6.930   4.284  12.965  0.00  0.00    +0.000 C 
ATOM     29  C   UNL     1       5.914   3.339  12.344  0.00  0.00    +0.000 C 
ENDBRANCH  25  28
ENDBRANCH  21  23
ENDBRANCH  19  21
ENDBRANCH   4  17
TORSDOF 7
ENDMDL
MODEL 9
REMARK VINA RESULT:      -7.8      1.097      1.291
REMARK  Name = 
REMARK  11 active torsions:
REMARK  status: ('A' for Active; 'I' for Inactive)
REMARK    1  A    between atoms: C_1  and  C_2
REMARK    2  A    between atoms: C_2  and  C_3
REMARK    3  A    between atoms: C_3  and  C_4
REMARK    4  A    between atoms: C_7  and  C_8
REMARK    5  A    between atoms: C_10  and  C_11
REMARK    6  A    between atoms: C_14  and  C_15
REMARK    7  A    between atoms: N_17  and  C_18
REMARK    8  A    between atoms: C_18  and  C_19
REMARK    9  A    between atoms: C_18  and  C_20
REMARK   10  A    between atoms: C_22  and  C_23
REMARK   11  A    between atoms: C_23  and  C_24
REMARK                            x       y       z     vdW  Elec       q    Type
REMARK                         _______ _______ _______ _____ _____    ______ ____
ROOT
ATOM      1  C   UNL     1       2.443   6.848  18.778  0.00  0.00    +0.000 A 
ATOM      2  C   UNL     1       2.241   7.938  17.910  0.00  0.00    +0.000 A 
ATOM      3  C   UNL     1       1.638   9.124  18.346  0.00  0.00    +0.000 A 
ATOM      4  C   UNL     1       1.211   9.253  19.671  0.00  0.00    +0.000 A 
ATOM      5  C   UNL     1       1.491   8.229  20.573  0.00  0.00    +0.000 A 
ATOM      6  C   UNL     1       2.154   7.073  20.135  0.00  0.00    +0.000 A 
ENDROOT
BRANCH   1  13
ATOM      7  C   UNL     1       2.237   4.305  18.437  0.00  0.00    +0.000 A 
ATOM      8  C   UNL     1       2.832   3.225  17.793  0.00  0.00    +0.000 A 
ATOM      9  N   UNL     1       3.908   3.296  16.995  0.00  0.00    +0.000 NA
ATOM     10  C   UNL     1       4.434   4.514  16.833  0.00  0.00    +0.000 A 
ATOM     11  C   UNL     1       5.607   4.654  15.914  0.00  0.00    +0.000 C 
ATOM     12  N   UNL     1       3.969   5.626  17.427  0.00  0.00    +0.000 NA
ATOM     13  C   UNL     1       2.880   5.529  18.238  0.00  0.00    +0.000 A 
BRANCH   7  14
ATOM     14  C   UNL     1       1.008   4.025  19.265  0.00  0.00    +0.000 C 
BRANCH  14  16
ATOM     15  C   UNL     1       2.219   3.646  21.507  0.00  0.00    +0.000 C 
ATOM     16  C   UNL     1       1.170   3.162  20.523  0.00  0.00    +0.000 C 
ENDBRANCH  14  16
ENDBRANCH   7  14
ENDBRANCH   1  13
BRANCH   4  17
ATOM     17  C   UNL     1       0.405  10.449  20.036  0.00  0.00    +0.000 C 
ATOM     18  O   UNL     1       0.007  10.581  21.190  0.00  0.00    +0.000 OA
ATOM     19  N   UNL     1       0.128  11.365  19.047  0.00  0.00    +0.000 N 
ATOM     20  H   UNL     1       0.384  11.198  18.082  0.00  0.00    +0.000 HD
BRANCH  19  21
ATOM     21  C   UNL     1      -0.695  12.535  19.335  0.00  0.00    +0.000 C 
ATOM     22  C   UNL     1      -0.227  13.742  18.523  0.00  0.00    +0.000 C 
BRANCH  21  23
ATOM     23  C   UNL     1      -2.124  12.222  19.048  0.00  0.00    +0.000 A 
ATOM     24  N   UNL     1      -2.662  11.515  18.070  0.00  0.00    +0.000 NA
ATOM     25  C   UNL     1      -4.006  11.583  18.382  0.00  0.00    +0.000 A 
ATOM     26  N   UNL     1      -4.289  12.303  19.475  0.00  0.00    +0.000 NA
ATOM     27  O   UNL     1      -3.041  12.726  19.926  0.00  0.00    +0.000 OA
BRANCH  25  28
ATOM     28  C   UNL     1      -5.044  10.920  17.566  0.00  0.00    +0.000 C 
ATOM     29  C   UNL     1      -6.412  10.971  18.226  0.00  0.00    +0.000 C 
ENDBRANCH  25  28
ENDBRANCH  21  23
ENDBRANCH  19  21
ENDBRANCH   4  17
TORSDOF 7
ENDMDL
