MODEL 1
REMARK VINA RESULT:      -8.2      0.000      0.000
REMARK  Name = 
REMARK  8 active torsions:
REMARK  status: ('A' for Active; 'I' for Inactive)
REMARK    1  A    between atoms: C_1  and  C_2
REMARK    2  A    between atoms: C_2  and  C_3
REMARK    3  A    between atoms: C_2  and  C_4
REMARK    4  A    between atoms: C_2  and  C_5
REMARK    5  A    between atoms: C_8  and  N_9
REMARK    6  A    between atoms: N_13  and  C_14
REMARK    7  A    between atoms: C_17  and  C_18
REMARK    8  A    between atoms: C_18  and  O_20
REMARK                            x       y       z     vdW  Elec       q    Type
REMARK                         _______ _______ _______ _____ _____    ______ ____
ROOT
ATOM      1  N   UNL     1       1.934   6.999  20.038  0.00  0.00    +0.000 N 
ATOM      2  C   UNL     1       1.771   5.914  21.003  0.00  0.00    +0.000 C 
ATOM      3  C   UNL     1       1.783   4.564  20.330  0.00  0.00    +0.000 C 
ATOM      4  C   UNL     1       3.098   4.457  19.602  0.00  0.00    +0.000 C 
ATOM      5  N   UNL     1       3.276   5.562  18.674  0.00  0.00    +0.000 N 
ATOM      6  C   UNL     1       2.778   6.855  18.915  0.00  0.00    +0.000 C 
ATOM      7  O   UNL     1       3.111   7.798  18.192  0.00  0.00    +0.000 OA
ENDROOT
BRANCH   1  11
ATOM      8  C   UNL     1       0.146  10.805  20.995  0.00  0.00    +0.000 A 
ATOM      9  C   UNL     1       0.486  10.461  19.683  0.00  0.00    +0.000 A 
ATOM     10  C   UNL     1       1.062   9.221  19.379  0.00  0.00    +0.000 A 
ATOM     11  C   UNL     1       1.344   8.275  20.366  0.00  0.00    +0.000 A 
ATOM     12  C   UNL     1       1.002   8.615  21.683  0.00  0.00    +0.000 A 
ATOM     13  C   UNL     1       0.417   9.855  21.991  0.00  0.00    +0.000 A 
BRANCH   8  15
ATOM     14  C   UNL     1      -1.706  12.509  20.440  0.00  0.00    +0.000 C 
ATOM     15  C   UNL     1      -0.508  12.148  21.349  0.00  0.00    +0.000 C 
ATOM     16  C   UNL     1       0.525  13.286  21.220  0.00  0.00    +0.000 C 
ATOM     17  C   UNL     1      -1.033  12.089  22.799  0.00  0.00    +0.000 C 
ENDBRANCH   8  15
ENDBRANCH   1  11
BRANCH   5  18
ATOM     18  C   UNL     1       4.192   5.364  17.596  0.00  0.00    +0.000 A 
ATOM     19  C   UNL     1       4.141   4.194  16.830  0.00  0.00    +0.000 A 
ATOM     20  C   UNL     1       5.047   3.993  15.787  0.00  0.00    +0.000 A 
ATOM     21  C   UNL     1       5.994   4.976  15.471  0.00  0.00    +0.000 A 
ATOM     22  C   UNL     1       6.028   6.162  16.210  0.00  0.00    +0.000 A 
ATOM     23  C   UNL     1       5.146   6.341  17.283  0.00  0.00    +0.000 A 
BRANCH  21  24
ATOM     24  C   UNL     1       6.892   4.720  14.316  0.00  0.00    +0.000 C 
ATOM     25  O   UNL     1       7.815   5.463  14.025  0.00  0.00    +0.000 OA
BRANCH  24  26
ATOM     26  O   UNL     1       6.585   3.618  13.601  0.00  0.00    +0.000 OA
ATOM     27  H   UNL     1       7.161   3.445  12.834  0.00  0.00    +0.000 HD
ENDBRANCH  24  26
ENDBRANCH  21  24
ENDBRANCH   5  18
TORSDOF 5
ENDMDL
MODEL 2
REMARK VINA RESULT:      -8.2      0.075      1.262
REMARK  Name = 
REMARK  8 active torsions:
REMARK  status: ('A' for Active; 'I' for Inactive)
REMARK    1  A    between atoms: C_1  and  C_2
REMARK    2  A    between atoms: C_2  and  C_3
REMARK    3  A    between atoms: C_2  and  C_4
REMARK    4  A    between atoms: C_2  and  C_5
REMARK    5  A    between atoms: C_8  and  N_9
REMARK    6  A    between atoms: N_13  and  C_14
REMARK    7  A    between atoms: C_17  and  C_18
REMARK    8  A    between atoms: C_18  and  O_20
REMARK                            x       y       z     vdW  Elec       q    Type
REMARK                         _______ _______ _______ _____ _____    ______ ____
ROOT
ATOM      1  N   UNL     1       1.947   7.017  20.038  0.00  0.00    +0.000 N 
ATOM      2  C   UNL     1       1.797   5.942  21.017  0.00  0.00    +0.000 C 
ATOM      3  C   UNL     1       1.823   4.584  20.361  0.00  0.00    +0.000 C 
ATOM      4  C   UNL     1       3.139   4.482  19.634  0.00  0.00    +0.000 C 
ATOM      5  N   UNL     1       3.304   5.577  18.691  0.00  0.00    +0.000 N 
ATOM      6  C   UNL     1       2.792   6.867  18.916  0.00  0.00    +0.000 C 
ATOM      7  O   UNL     1       3.114   7.804  18.181  0.00  0.00    +0.000 OA
ENDROOT
BRANCH   1  11
ATOM      8  C   UNL     1       0.172  10.829  20.993  0.00  0.00    +0.000 A 
ATOM      9  C   UNL     1       0.511   9.906  21.987  0.00  0.00    +0.000 A 
ATOM     10  C   UNL     1       1.092   8.671  21.670  0.00  0.00    +0.000 A 
ATOM     11  C   UNL     1       1.344   8.290  20.350  0.00  0.00    +0.000 A 
ATOM     12  C   UNL     1       1.008   9.215  19.350  0.00  0.00    +0.000 A 
ATOM     13  C   UNL     1       0.432  10.457  19.666  0.00  0.00    +0.000 A 
BRANCH   8  15
ATOM     14  C   UNL     1      -1.017  12.290  22.753  0.00  0.00    +0.000 C 
ATOM     15  C   UNL     1      -0.443  12.197  21.319  0.00  0.00    +0.000 C 
ATOM     16  C   UNL     1      -1.598  12.500  20.343  0.00  0.00    +0.000 C 
ATOM     17  C   UNL     1       0.644  13.285  21.188  0.00  0.00    +0.000 C 
ENDBRANCH   8  15
ENDBRANCH   1  11
BRANCH   5  18
ATOM     18  C   UNL     1       4.221   5.375  17.615  0.00  0.00    +0.000 A 
ATOM     19  C   UNL     1       4.153   4.215  16.836  0.00  0.00    +0.000 A 
ATOM     20  C   UNL     1       5.061   4.009  15.795  0.00  0.00    +0.000 A 
ATOM     21  C   UNL     1       6.026   4.979  15.494  0.00  0.00    +0.000 A 
ATOM     22  C   UNL     1       6.078   6.156  16.247  0.00  0.00    +0.000 A 
ATOM     23  C   UNL     1       5.194   6.338  17.317  0.00  0.00    +0.000 A 
BRANCH  21  24
ATOM     24  C   UNL     1       6.925   4.720  14.340  0.00  0.00    +0.000 C 
ATOM     25  O   UNL     1       7.863   5.449  14.063  0.00  0.00    +0.000 OA
BRANCH  24  26
ATOM     26  O   UNL     1       6.601   3.633  13.610  0.00  0.00    +0.000 OA
ATOM     27  H   UNL     1       7.011   2.799  13.902  0.00  0.00    +0.000 HD
ENDBRANCH  24  26
ENDBRANCH  21  24
ENDBRANCH   5  18
TORSDOF 5
ENDMDL
MODEL 3
REMARK VINA RESULT:      -8.2      0.096      1.278
REMARK  Name = 
REMARK  8 active torsions:
REMARK  status: ('A' for Active; 'I' for Inactive)
REMARK    1  A    between atoms: C_1  and  C_2
REMARK    2  A    between atoms: C_2  and  C_3
REMARK    3  A    between atoms: C_2  and  C_4
REMARK    4  A    between atoms: C_2  and  C_5
REMARK    5  A    between atoms: C_8  and  N_9
REMARK    6  A    between atoms: N_13  and  C_14
REMARK    7  A    between atoms: C_17  and  C_18
REMARK    8  A    between atoms: C_18  and  O_20
REMARK                            x       y       z     vdW  Elec       q    Type
REMARK                         _______ _______ _______ _____ _____    ______ ____
ROOT
ATOM      1  N   UNL     1       1.991   6.970  20.073  0.00  0.00    +0.000 N 
ATOM      2  C   UNL     1       1.879   5.907  21.070  0.00  0.00    +0.000 C 
ATOM      3  C   UNL     1       1.890   4.541  20.430  0.00  0.00    +0.000 C 
ATOM      4  C   UNL     1       3.181   4.436  19.660  0.00  0.00    +0.000 C 
ATOM      5  N   UNL     1       3.310   5.521  18.699  0.00  0.00    +0.000 N 
ATOM      6  C   UNL     1       2.799   6.811  18.926  0.00  0.00    +0.000 C 
ATOM      7  O   UNL     1       3.092   7.741  18.169  0.00  0.00    +0.000 OA
ENDROOT
BRANCH   1  11
ATOM      8  C   UNL     1       0.175  10.771  20.998  0.00  0.00    +0.000 A 
ATOM      9  C   UNL     1       0.480  10.402  19.685  0.00  0.00    +0.000 A 
ATOM     10  C   UNL     1       1.065   9.163  19.391  0.00  0.00    +0.000 A 
ATOM     11  C   UNL     1       1.392   8.244  20.391  0.00  0.00    +0.000 A 
ATOM     12  C   UNL     1       1.085   8.610  21.710  0.00  0.00    +0.000 A 
ATOM     13  C   UNL     1       0.491   9.848  22.007  0.00  0.00    +0.000 A 
BRANCH   8  15
ATOM     14  C   UNL     1       0.479  13.316  21.264  0.00  0.00    +0.000 C 
ATOM     15  C   UNL     1      -0.488  12.111  21.341  0.00  0.00    +0.000 C 
ATOM     16  C   UNL     1      -1.052  12.067  22.776  0.00  0.00    +0.000 C 
ATOM     17  C   UNL     1      -1.635  12.379  20.343  0.00  0.00    +0.000 C 
ENDBRANCH   8  15
ENDBRANCH   1  11
BRANCH   5  18
ATOM     18  C   UNL     1       4.191   5.310  17.595  0.00  0.00    +0.000 A 
ATOM     19  C   UNL     1       5.214   6.225  17.321  0.00  0.00    +0.000 A 
ATOM     20  C   UNL     1       6.064   6.027  16.232  0.00  0.00    +0.000 A 
ATOM     21  C   UNL     1       5.928   4.892  15.423  0.00  0.00    +0.000 A 
ATOM     22  C   UNL     1       4.930   3.956  15.711  0.00  0.00    +0.000 A 
ATOM     23  C   UNL     1       4.052   4.180  16.779  0.00  0.00    +0.000 A 
BRANCH  21  24
ATOM     24  C   UNL     1       6.900   4.717  14.313  0.00  0.00    +0.000 C 
ATOM     25  O   UNL     1       7.816   5.498  14.114  0.00  0.00    +0.000 OA
BRANCH  24  26
ATOM     26  O   UNL     1       6.669   3.644  13.530  0.00  0.00    +0.000 OA
ATOM     27  H   UNL     1       5.933   3.739  12.899  0.00  0.00    +0.000 HD
ENDBRANCH  24  26
ENDBRANCH  21  24
ENDBRANCH   5  18
TORSDOF 5
ENDMDL
MODEL 4
REMARK VINA RESULT:      -8.1      0.880      1.490
REMARK  Name = 
REMARK  8 active torsions:
REMARK  status: ('A' for Active; 'I' for Inactive)
REMARK    1  A    between atoms: C_1  and  C_2
REMARK    2  A    between atoms: C_2  and  C_3
REMARK    3  A    between atoms: C_2  and  C_4
REMARK    4  A    between atoms: C_2  and  C_5
REMARK    5  A    between atoms: C_8  and  N_9
REMARK    6  A    between atoms: N_13  and  C_14
REMARK    7  A    between atoms: C_17  and  C_18
REMARK    8  A    between atoms: C_18  and  O_20
REMARK                            x       y       z     vdW  Elec       q    Type
REMARK                         _______ _______ _______ _____ _____    ______ ____
ROOT
ATOM      1  N   UNL     1       1.730   7.814  19.811  0.00  0.00    +0.000 N 
ATOM      2  C   UNL     1       1.626   6.943  20.980  0.00  0.00    +0.000 C 
ATOM      3  C   UNL     1       1.669   5.486  20.594  0.00  0.00    +0.000 C 
ATOM      4  C   UNL     1       2.971   5.271  19.867  0.00  0.00    +0.000 C 
ATOM      5  N   UNL     1       3.092   6.169  18.729  0.00  0.00    +0.000 N 
ATOM      6  C   UNL     1       2.555   7.469  18.717  0.00  0.00    +0.000 C 
ATOM      7  O   UNL     1       2.840   8.255  17.809  0.00  0.00    +0.000 OA
ENDROOT
BRANCH   1  11
ATOM      8  C   UNL     1      -0.169  11.679  20.032  0.00  0.00    +0.000 A 
ATOM      9  C   UNL     1      -0.060  10.982  18.826  0.00  0.00    +0.000 A 
ATOM     10  C   UNL     1       0.554   9.724  18.762  0.00  0.00    +0.000 A 
ATOM     11  C   UNL     1       1.105   9.112  19.890  0.00  0.00    +0.000 A 
ATOM     12  C   UNL     1       0.995   9.807  21.103  0.00  0.00    +0.000 A 
ATOM     13  C   UNL     1       0.373  11.066  21.172  0.00  0.00    +0.000 A 
BRANCH   8  15
ATOM     14  C   UNL     1      -0.453  14.025  19.003  0.00  0.00    +0.000 C 
ATOM     15  C   UNL     1      -0.859  13.047  20.131  0.00  0.00    +0.000 C 
ATOM     16  C   UNL     1      -0.502  13.720  21.472  0.00  0.00    +0.000 C 
ATOM     17  C   UNL     1      -2.387  12.851  20.041  0.00  0.00    +0.000 C 
ENDBRANCH   8  15
ENDBRANCH   1  11
BRANCH   5  18
ATOM     18  C   UNL     1       3.990   5.783  17.688  0.00  0.00    +0.000 A 
ATOM     19  C   UNL     1       4.954   6.681  17.215  0.00  0.00    +0.000 A 
ATOM     20  C   UNL     1       5.821   6.308  16.186  0.00  0.00    +0.000 A 
ATOM     21  C   UNL     1       5.761   5.019  15.641  0.00  0.00    +0.000 A 
ATOM     22  C   UNL     1       4.824   4.106  16.132  0.00  0.00    +0.000 A 
ATOM     23  C   UNL     1       3.928   4.498  17.134  0.00  0.00    +0.000 A 
BRANCH  21  24
ATOM     24  C   UNL     1       6.748   4.672  14.586  0.00  0.00    +0.000 C 
ATOM     25  O   UNL     1       7.730   5.359  14.355  0.00  0.00    +0.000 OA
BRANCH  24  26
ATOM     26  O   UNL     1       6.454   3.556  13.888  0.00  0.00    +0.000 OA
ATOM     27  H   UNL     1       7.150   2.876  13.877  0.00  0.00    +0.000 HD
ENDBRANCH  24  26
ENDBRANCH  21  24
ENDBRANCH   5  18
TORSDOF 5
ENDMDL
MODEL 5
REMARK VINA RESULT:      -8.1      0.904      1.923
REMARK  Name = 
REMARK  8 active torsions:
REMARK  status: ('A' for Active; 'I' for Inactive)
REMARK    1  A    between atoms: C_1  and  C_2
REMARK    2  A    between atoms: C_2  and  C_3
REMARK    3  A    between atoms: C_2  and  C_4
REMARK    4  A    between atoms: C_2  and  C_5
REMARK    5  A    between atoms: C_8  and  N_9
REMARK    6  A    between atoms: N_13  and  C_14
REMARK    7  A    between atoms: C_17  and  C_18
REMARK    8  A    between atoms: C_18  and  O_20
REMARK                            x       y       z     vdW  Elec       q    Type
REMARK                         _______ _______ _______ _____ _____    ______ ____
ROOT
ATOM      1  N   UNL     1       1.727   7.824  19.773  0.00  0.00    +0.000 N 
ATOM      2  C   UNL     1       1.656   6.971  20.958  0.00  0.00    +0.000 C 
ATOM      3  C   UNL     1       1.718   5.508  20.595  0.00  0.00    +0.000 C 
ATOM      4  C   UNL     1       3.011   5.303  19.850  0.00  0.00    +0.000 C 
ATOM      5  N   UNL     1       3.098   6.184  18.696  0.00  0.00    +0.000 N 
ATOM      6  C   UNL     1       2.539   7.474  18.671  0.00  0.00    +0.000 C 
ATOM      7  O   UNL     1       2.796   8.249  17.746  0.00  0.00    +0.000 OA
ENDROOT
BRANCH   1  11
ATOM      8  C   UNL     1      -0.175  11.688  19.994  0.00  0.00    +0.000 A 
ATOM      9  C   UNL     1       0.341  11.056  21.129  0.00  0.00    +0.000 A 
ATOM     10  C   UNL     1       0.962   9.803  21.050  0.00  0.00    +0.000 A 
ATOM     11  C   UNL     1       1.081   9.112  19.841  0.00  0.00    +0.000 A 
ATOM     12  C   UNL     1       0.567   9.744  18.700  0.00  0.00    +0.000 A 
ATOM     13  C   UNL     1      -0.050  11.004  18.775  0.00  0.00    +0.000 A 
BRANCH   8  15
ATOM     14  C   UNL     1      -0.448  13.888  21.308  0.00  0.00    +0.000 C 
ATOM     15  C   UNL     1      -0.837  13.071  20.054  0.00  0.00    +0.000 C 
ATOM     16  C   UNL     1      -2.372  12.919  20.064  0.00  0.00    +0.000 C 
ATOM     17  C   UNL     1      -0.407  13.893  18.819  0.00  0.00    +0.000 C 
ENDBRANCH   8  15
ENDBRANCH   1  11
BRANCH   5  18
ATOM     18  C   UNL     1       3.986   5.795  17.647  0.00  0.00    +0.000 A 
ATOM     19  C   UNL     1       4.864   6.726  17.082  0.00  0.00    +0.000 A 
ATOM     20  C   UNL     1       5.720   6.350  16.045  0.00  0.00    +0.000 A 
ATOM     21  C   UNL     1       5.736   5.027  15.583  0.00  0.00    +0.000 A 
ATOM     22  C   UNL     1       4.886   4.084  16.167  0.00  0.00    +0.000 A 
ATOM     23  C   UNL     1       3.998   4.476  17.177  0.00  0.00    +0.000 A 
BRANCH  21  24
ATOM     24  C   UNL     1       6.709   4.683  14.514  0.00  0.00    +0.000 C 
ATOM     25  O   UNL     1       7.685   5.372  14.269  0.00  0.00    +0.000 OA
BRANCH  24  26
ATOM     26  O   UNL     1       6.408   3.566  13.821  0.00  0.00    +0.000 OA
ATOM     27  H   UNL     1       6.649   2.729  14.255  0.00  0.00    +0.000 HD
ENDBRANCH  24  26
ENDBRANCH  21  24
ENDBRANCH   5  18
TORSDOF 5
ENDMDL
MODEL 6
REMARK VINA RESULT:      -8.1      1.140      1.985
REMARK  Name = 
REMARK  8 active torsions:
REMARK  status: ('A' for Active; 'I' for Inactive)
REMARK    1  A    between atoms: C_1  and  C_2
REMARK    2  A    between atoms: C_2  and  C_3
REMARK    3  A    between atoms: C_2  and  C_4
REMARK    4  A    between atoms: C_2  and  C_5
REMARK    5  A    between atoms: C_8  and  N_9
REMARK    6  A    between atoms: N_13  and  C_14
REMARK    7  A    between atoms: C_17  and  C_18
REMARK    8  A    between atoms: C_18  and  O_20
REMARK                            x       y       z     vdW  Elec       q    Type
REMARK                         _______ _______ _______ _____ _____    ______ ____
ROOT
ATOM      1  N   UNL     1       2.821   6.286  19.249  0.00  0.00    +0.000 N 
ATOM      2  C   UNL     1       2.876   5.163  20.183  0.00  0.00    +0.000 C 
ATOM      3  C   UNL     1       3.035   3.848  19.463  0.00  0.00    +0.000 C 
ATOM      4  C   UNL     1       4.304   3.950  18.655  0.00  0.00    +0.000 C 
ATOM      5  N   UNL     1       4.264   5.094  17.758  0.00  0.00    +0.000 N 
ATOM      6  C   UNL     1       3.605   6.294  18.074  0.00  0.00    +0.000 C 
ATOM      7  O   UNL     1       3.754   7.295  17.367  0.00  0.00    +0.000 OA
ENDROOT
BRANCH   1  11
ATOM      8  C   UNL     1       0.627   9.783  20.495  0.00  0.00    +0.000 A 
ATOM      9  C   UNL     1       0.891   8.729  21.375  0.00  0.00    +0.000 A 
ATOM     10  C   UNL     1       1.609   7.598  20.965  0.00  0.00    +0.000 A 
ATOM     11  C   UNL     1       2.079   7.455  19.657  0.00  0.00    +0.000 A 
ATOM     12  C   UNL     1       1.819   8.512  18.773  0.00  0.00    +0.000 A 
ATOM     13  C   UNL     1       1.106   9.651  19.183  0.00  0.00    +0.000 A 
BRANCH   8  15
ATOM     14  C   UNL     1       0.745  12.313  20.974  0.00  0.00    +0.000 C 
ATOM     15  C   UNL     1      -0.136  11.042  20.929  0.00  0.00    +0.000 C 
ATOM     16  C   UNL     1      -0.723  10.841  22.341  0.00  0.00    +0.000 C 
ATOM     17  C   UNL     1      -1.280  11.312  19.927  0.00  0.00    +0.000 C 
ENDBRANCH   8  15
ENDBRANCH   1  11
BRANCH   5  18
ATOM     18  C   UNL     1       5.128   5.058  16.621  0.00  0.00    +0.000 A 
ATOM     19  C   UNL     1       4.709   4.451  15.432  0.00  0.00    +0.000 A 
ATOM     20  C   UNL     1       5.561   4.401  14.327  0.00  0.00    +0.000 A 
ATOM     21  C   UNL     1       6.830   4.990  14.383  0.00  0.00    +0.000 A 
ATOM     22  C   UNL     1       7.243   5.628  15.557  0.00  0.00    +0.000 A 
ATOM     23  C   UNL     1       6.402   5.637  16.677  0.00  0.00    +0.000 A 
BRANCH  21  24
ATOM     24  C   UNL     1       7.664   4.947  13.153  0.00  0.00    +0.000 C 
ATOM     25  O   UNL     1       7.400   4.223  12.208  0.00  0.00    +0.000 OA
BRANCH  24  26
ATOM     26  O   UNL     1       8.747   5.750  13.183  0.00  0.00    +0.000 OA
ATOM     27  H   UNL     1       8.795   6.356  13.943  0.00  0.00    +0.000 HD
ENDBRANCH  24  26
ENDBRANCH  21  24
ENDBRANCH   5  18
TORSDOF 5
ENDMDL
MODEL 7
REMARK VINA RESULT:      -8.1      4.101     10.189
REMARK  Name = 
REMARK  8 active torsions:
REMARK  status: ('A' for Active; 'I' for Inactive)
REMARK    1  A    between atoms: C_1  and  C_2
REMARK    2  A    between atoms: C_2  and  C_3
REMARK    3  A    between atoms: C_2  and  C_4
REMARK    4  A    between atoms: C_2  and  C_5
REMARK    5  A    between atoms: C_8  and  N_9
REMARK    6  A    between atoms: N_13  and  C_14
REMARK    7  A    between atoms: C_17  and  C_18
REMARK    8  A    between atoms: C_18  and  O_20
REMARK                            x       y       z     vdW  Elec       q    Type
REMARK                         _______ _______ _______ _____ _____    ______ ____
ROOT
ATOM      1  N   UNL     1       0.865  10.799  19.388  0.00  0.00    +0.000 N 
ATOM      2  C   UNL     1       1.593  11.991  18.959  0.00  0.00    +0.000 C 
ATOM      3  C   UNL     1       0.660  13.142  18.676  0.00  0.00    +0.000 C 
ATOM      4  C   UNL     1      -0.107  13.397  19.948  0.00  0.00    +0.000 C 
ATOM      5  N   UNL     1      -0.796  12.197  20.396  0.00  0.00    +0.000 N 
ATOM      6  C   UNL     1      -0.285  10.901  20.202  0.00  0.00    +0.000 C 
ATOM      7  O   UNL     1      -0.809   9.933  20.759  0.00  0.00    +0.000 OA
ENDROOT
BRANCH   1  11
ATOM      8  C   UNL     1       2.672   6.983  18.513  0.00  0.00    +0.000 A 
ATOM      9  C   UNL     1       2.538   7.973  17.537  0.00  0.00    +0.000 A 
ATOM     10  C   UNL     1       1.954   9.213  17.829  0.00  0.00    +0.000 A 
ATOM     11  C   UNL     1       1.460   9.516  19.100  0.00  0.00    +0.000 A 
ATOM     12  C   UNL     1       1.596   8.526  20.083  0.00  0.00    +0.000 A 
ATOM     13  C   UNL     1       2.188   7.284  19.795  0.00  0.00    +0.000 A 
BRANCH   8  15
ATOM     14  C   UNL     1       4.071   5.026  19.441  0.00  0.00    +0.000 C 
ATOM     15  C   UNL     1       3.330   5.627  18.222  0.00  0.00    +0.000 C 
ATOM     16  C   UNL     1       4.363   5.776  17.086  0.00  0.00    +0.000 C 
ATOM     17  C   UNL     1       2.242   4.615  17.802  0.00  0.00    +0.000 C 
ENDBRANCH   8  15
ENDBRANCH   1  11
BRANCH   5  18
ATOM     18  C   UNL     1      -1.914  12.377  21.266  0.00  0.00    +0.000 A 
ATOM     19  C   UNL     1      -1.751  12.301  22.654  0.00  0.00    +0.000 A 
ATOM     20  C   UNL     1      -2.847  12.459  23.503  0.00  0.00    +0.000 A 
ATOM     21  C   UNL     1      -4.117  12.733  22.979  0.00  0.00    +0.000 A 
ATOM     22  C   UNL     1      -4.281  12.844  21.594  0.00  0.00    +0.000 A 
ATOM     23  C   UNL     1      -3.187  12.641  20.744  0.00  0.00    +0.000 A 
BRANCH  21  24
ATOM     24  C   UNL     1      -5.229  12.943  23.941  0.00  0.00    +0.000 C 
ATOM     25  O   UNL     1      -6.021  13.865  23.838  0.00  0.00    +0.000 OA
BRANCH  24  26
ATOM     26  O   UNL     1      -5.271  12.050  24.952  0.00  0.00    +0.000 OA
ATOM     27  H   UNL     1      -5.296  11.115  24.681  0.00  0.00    +0.000 HD
ENDBRANCH  24  26
ENDBRANCH  21  24
ENDBRANCH   5  18
TORSDOF 5
ENDMDL
MODEL 8
REMARK VINA RESULT:      -8.0      0.538      1.375
REMARK  Name = 
REMARK  8 active torsions:
REMARK  status: ('A' for Active; 'I' for Inactive)
REMARK    1  A    between atoms: C_1  and  C_2
REMARK    2  A    between atoms: C_2  and  C_3
REMARK    3  A    between atoms: C_2  and  C_4
REMARK    4  A    between atoms: C_2  and  C_5
REMARK    5  A    between atoms: C_8  and  N_9
REMARK    6  A    between atoms: N_13  and  C_14
REMARK    7  A    between atoms: C_17  and  C_18
REMARK    8  A    between atoms: C_18  and  O_20
REMARK                            x       y       z     vdW  Elec       q    Type
REMARK                         _______ _______ _______ _____ _____    ______ ____
ROOT
ATOM      1  N   UNL     1       2.290   6.723  19.860  0.00  0.00    +0.000 N 
ATOM      2  C   UNL     1       2.259   5.637  20.837  0.00  0.00    +0.000 C 
ATOM      3  C   UNL     1       2.368   4.287  20.173  0.00  0.00    +0.000 C 
ATOM      4  C   UNL     1       3.661   4.291  19.400  0.00  0.00    +0.000 C 
ATOM      5  N   UNL     1       3.707   5.398  18.458  0.00  0.00    +0.000 N 
ATOM      6  C   UNL     1       3.104   6.643  18.708  0.00  0.00    +0.000 C 
ATOM      7  O   UNL     1       3.326   7.605  17.968  0.00  0.00    +0.000 OA
ENDROOT
BRANCH   1  11
ATOM      8  C   UNL     1       0.254  10.378  20.905  0.00  0.00    +0.000 A 
ATOM      9  C   UNL     1       0.504   9.379  21.851  0.00  0.00    +0.000 A 
ATOM     10  C   UNL     1       1.170   8.196  21.506  0.00  0.00    +0.000 A 
ATOM     11  C   UNL     1       1.601   7.944  20.201  0.00  0.00    +0.000 A 
ATOM     12  C   UNL     1       1.355   8.945  19.250  0.00  0.00    +0.000 A 
ATOM     13  C   UNL     1       0.694  10.136  19.595  0.00  0.00    +0.000 A 
BRANCH   8  15
ATOM     14  C   UNL     1       0.477  12.927  21.210  0.00  0.00    +0.000 C 
ATOM     15  C   UNL     1      -0.452  11.692  21.266  0.00  0.00    +0.000 C 
ATOM     16  C   UNL     1      -1.019  11.608  22.698  0.00  0.00    +0.000 C 
ATOM     17  C   UNL     1      -1.604  11.939  20.268  0.00  0.00    +0.000 C 
ENDBRANCH   8  15
ENDBRANCH   1  11
BRANCH   5  18
ATOM     18  C   UNL     1       4.598   5.272  17.349  0.00  0.00    +0.000 A 
ATOM     19  C   UNL     1       4.257   4.469  16.255  0.00  0.00    +0.000 A 
ATOM     20  C   UNL     1       5.136   4.332  15.179  0.00  0.00    +0.000 A 
ATOM     21  C   UNL     1       6.353   5.026  15.165  0.00  0.00    +0.000 A 
ATOM     22  C   UNL     1       6.685   5.856  16.239  0.00  0.00    +0.000 A 
ATOM     23  C   UNL     1       5.820   5.956  17.336  0.00  0.00    +0.000 A 
BRANCH  21  24
ATOM     24  C   UNL     1       7.216   4.876  13.965  0.00  0.00    +0.000 C 
ATOM     25  O   UNL     1       8.160   5.615  13.740  0.00  0.00    +0.000 OA
BRANCH  24  26
ATOM     26  O   UNL     1       6.852   3.878  13.134  0.00  0.00    +0.000 OA
ATOM     27  H   UNL     1       6.611   3.041  13.569  0.00  0.00    +0.000 HD
ENDBRANCH  24  26
ENDBRANCH  21  24
ENDBRANCH   5  18
TORSDOF 5
ENDMDL
MODEL 9
REMARK VINA RESULT:      -8.0      4.178     10.266
REMARK  Name = 
REMARK  8 active torsions:
REMARK  status: ('A' for Active; 'I' for Inactive)
REMARK    1  A    between atoms: C_1  and  C_2
REMARK    2  A    between atoms: C_2  and  C_3
REMARK    3  A    between atoms: C_2  and  C_4
REMARK    4  A    between atoms: C_2  and  C_5
REMARK    5  A    between atoms: C_8  and  N_9
REMARK    6  A    between atoms: N_13  and  C_14
REMARK    7  A    between atoms: C_17  and  C_18
REMARK    8  A    between atoms: C_18  and  O_20
REMARK                            x       y       z     vdW  Elec       q    Type
REMARK                         _______ _______ _______ _____ _____    ______ ____
ROOT
ATOM      1  N   UNL     1       0.783  10.867  19.446  0.00  0.00    +0.000 N 
ATOM      2  C   UNL     1       1.535  12.054  19.047  0.00  0.00    +0.000 C 
ATOM      3  C   UNL     1       0.622  13.219  18.753  0.00  0.00    +0.000 C 
ATOM      4  C   UNL     1      -0.172  13.470  20.008  0.00  0.00    +0.000 C 
ATOM      5  N   UNL     1      -0.886  12.274  20.428  0.00  0.00    +0.000 N 
ATOM      6  C   UNL     1      -0.385  10.975  20.233  0.00  0.00    +0.000 C 
ATOM      7  O   UNL     1      -0.934  10.007  20.768  0.00  0.00    +0.000 OA
ENDROOT
BRANCH   1  11
ATOM      8  C   UNL     1       2.566   7.038  18.575  0.00  0.00    +0.000 A 
ATOM      9  C   UNL     1       2.408   8.017  17.590  0.00  0.00    +0.000 A 
ATOM     10  C   UNL     1       1.832   9.260  17.880  0.00  0.00    +0.000 A 
ATOM     11  C   UNL     1       1.370   9.580  19.159  0.00  0.00    +0.000 A 
ATOM     12  C   UNL     1       1.529   8.602  20.151  0.00  0.00    +0.000 A 
ATOM     13  C   UNL     1       2.113   7.356  19.864  0.00  0.00    +0.000 A 
BRANCH   8  15
ATOM     14  C   UNL     1       4.276   5.729  17.159  0.00  0.00    +0.000 C 
ATOM     15  C   UNL     1       3.216   5.678  18.285  0.00  0.00    +0.000 C 
ATOM     16  C   UNL     1       2.139   4.662  17.855  0.00  0.00    +0.000 C 
ATOM     17  C   UNL     1       3.924   5.173  19.560  0.00  0.00    +0.000 C 
ENDBRANCH   8  15
ENDBRANCH   1  11
BRANCH   5  18
ATOM     18  C   UNL     1      -2.023  12.458  21.272  0.00  0.00    +0.000 A 
ATOM     19  C   UNL     1      -1.873  12.496  22.663  0.00  0.00    +0.000 A 
ATOM     20  C   UNL     1      -2.987  12.659  23.489  0.00  0.00    +0.000 A 
ATOM     21  C   UNL     1      -4.263  12.823  22.934  0.00  0.00    +0.000 A 
ATOM     22  C   UNL     1      -4.415  12.821  21.544  0.00  0.00    +0.000 A 
ATOM     23  C   UNL     1      -3.301  12.614  20.721  0.00  0.00    +0.000 A 
BRANCH  21  24
ATOM     24  C   UNL     1      -5.396  13.045  23.869  0.00  0.00    +0.000 C 
ATOM     25  O   UNL     1      -6.149  12.149  24.211  0.00  0.00    +0.000 OA
BRANCH  24  26
ATOM     26  O   UNL     1      -5.539  14.321  24.283  0.00  0.00    +0.000 OA
ATOM     27  H   UNL     1      -5.321  15.000  23.620  0.00  0.00    +0.000 HD
ENDBRANCH  24  26
ENDBRANCH  21  24
ENDBRANCH   5  18
TORSDOF 5
ENDMDL
