MODEL 1
REMARK VINA RESULT:      -7.9      0.000      0.000
REMARK  Name = 
REMARK  2 active torsions:
REMARK  status: ('A' for Active; 'I' for Inactive)
REMARK    1  A    between atoms: C_2  and  C_3
REMARK    2  A    between atoms: N_13  and  C_14
REMARK                            x       y       z     vdW  Elec       q    Type
REMARK                         _______ _______ _______ _____ _____    ______ ____
ROOT
ATOM      1  O   UNL     1       2.184   5.668  20.813  0.00  0.00    +0.000 OA
ATOM      2  C   UNL     1       2.532   6.243  19.778  0.00  0.00    +0.000 C 
ATOM      3  N   UNL     1       2.146   7.554  19.495  0.00  0.00    +0.000 N 
ATOM      4  C   UNL     1       2.447   8.310  18.260  0.00  0.00    +0.000 C 
ATOM      5  C   UNL     1       1.313   9.261  17.826  0.00  0.00    +0.000 C 
ATOM      6  N   UNL     1       0.950  10.075  18.987  0.00  0.00    +0.000 N 
ATOM      7  C   UNL     1       0.428   9.275  20.102  0.00  0.00    +0.000 C 
ATOM      8  C   UNL     1       1.558   8.349  20.592  0.00  0.00    +0.000 C 
ENDROOT
BRANCH   6   9
ATOM      9  C   UNL     1       0.642  11.410  18.816  0.00  0.00    +0.000 A 
ATOM     10  N   UNL     1       1.602  12.314  19.139  0.00  0.00    +0.000 NA
ATOM     11  C   UNL     1       1.323  13.633  19.111  0.00  0.00    +0.000 A 
ATOM     12  N   UNL     1       2.265  14.527  19.556  0.00  0.00    +0.000 N 
ATOM     13  C   UNL     1       1.960  15.958  19.643  0.00  0.00    +0.000 C 
ATOM     14  C   UNL     1       2.782  16.745  18.613  0.00  0.00    +0.000 C 
ATOM     15  O   UNL     1       4.186  16.457  18.730  0.00  0.00    +0.000 OA
ATOM     16  C   UNL     1       4.423  15.055  18.510  0.00  0.00    +0.000 C 
ATOM     17  C   UNL     1       3.684  14.186  19.543  0.00  0.00    +0.000 C 
ATOM     18  N   UNL     1       0.129  14.102  18.736  0.00  0.00    +0.000 NA
ATOM     19  C   UNL     1      -0.815  13.203  18.421  0.00  0.00    +0.000 A 
ATOM     20  C   UNL     1      -0.629  11.843  18.455  0.00  0.00    +0.000 A 
ATOM     21 BR   UNL     1      -2.149  10.745  18.197  0.00  0.00    +0.000 Br
ENDBRANCH   6   9
BRANCH   2  22
ATOM     22  C   UNL     1       3.358   5.465  18.819  0.00  0.00    +0.000 A 
ATOM     23  C   UNL     1       2.695   4.609  17.927  0.00  0.00    +0.000 A 
ATOM     24  C   UNL     1       3.425   3.857  17.003  0.00  0.00    +0.000 A 
ATOM     25  C   UNL     1       4.811   3.969  16.972  0.00  0.00    +0.000 A 
ATOM     26  F   UNL     1       5.511   3.272  16.067  0.00  0.00    +0.000 F 
ATOM     27  C   UNL     1       5.483   4.784  17.874  0.00  0.00    +0.000 A 
ATOM     28  C   UNL     1       4.758   5.501  18.827  0.00  0.00    +0.000 A 
ENDBRANCH   2  22
TORSDOF 2
ENDMDL
MODEL 2
REMARK VINA RESULT:      -7.7      0.596      1.066
REMARK  Name = 
REMARK  2 active torsions:
REMARK  status: ('A' for Active; 'I' for Inactive)
REMARK    1  A    between atoms: C_2  and  C_3
REMARK    2  A    between atoms: N_13  and  C_14
REMARK                            x       y       z     vdW  Elec       q    Type
REMARK                         _______ _______ _______ _____ _____    ______ ____
ROOT
ATOM      1  O   UNL     1       2.332   5.500  20.749  0.00  0.00    +0.000 OA
ATOM      2  C   UNL     1       2.603   6.112  19.712  0.00  0.00    +0.000 C 
ATOM      3  N   UNL     1       2.188   7.427  19.501  0.00  0.00    +0.000 N 
ATOM      4  C   UNL     1       2.397   8.228  18.274  0.00  0.00    +0.000 C 
ATOM      5  C   UNL     1       1.228   9.181  17.951  0.00  0.00    +0.000 C 
ATOM      6  N   UNL     1       0.939   9.951  19.161  0.00  0.00    +0.000 N 
ATOM      7  C   UNL     1       0.501   9.110  20.281  0.00  0.00    +0.000 C 
ATOM      8  C   UNL     1       1.670   8.180  20.661  0.00  0.00    +0.000 C 
ENDROOT
BRANCH   6   9
ATOM      9  C   UNL     1       0.608  11.288  19.057  0.00  0.00    +0.000 A 
ATOM     10  N   UNL     1       1.458  12.183  19.623  0.00  0.00    +0.000 NA
ATOM     11  C   UNL     1       1.133  13.490  19.663  0.00  0.00    +0.000 A 
ATOM     12  N   UNL     1       1.944  14.363  20.344  0.00  0.00    +0.000 N 
ATOM     13  C   UNL     1       1.568  15.771  20.502  0.00  0.00    +0.000 C 
ATOM     14  C   UNL     1       2.522  16.673  19.708  0.00  0.00    +0.000 C 
ATOM     15  O   UNL     1       3.896  16.412  20.045  0.00  0.00    +0.000 OA
ATOM     16  C   UNL     1       4.227  15.044  19.747  0.00  0.00    +0.000 C 
ATOM     17  C   UNL     1       3.357  14.062  20.552  0.00  0.00    +0.000 C 
ATOM     18  N   UNL     1       0.003  13.962  19.125  0.00  0.00    +0.000 NA
ATOM     19  C   UNL     1      -0.833  13.071  18.570  0.00  0.00    +0.000 A 
ATOM     20  C   UNL     1      -0.597  11.719  18.517  0.00  0.00    +0.000 A 
ATOM     21 BR   UNL     1      -2.002  10.611  17.898  0.00  0.00    +0.000 Br
ENDBRANCH   6   9
BRANCH   2  22
ATOM     22  C   UNL     1       3.368   5.375  18.672  0.00  0.00    +0.000 A 
ATOM     23  C   UNL     1       4.637   5.860  18.327  0.00  0.00    +0.000 A 
ATOM     24  C   UNL     1       5.400   5.203  17.356  0.00  0.00    +0.000 A 
ATOM     25  C   UNL     1       4.890   4.063  16.743  0.00  0.00    +0.000 A 
ATOM     26  F   UNL     1       5.630   3.414  15.835  0.00  0.00    +0.000 F 
ATOM     27  C   UNL     1       3.619   3.595  17.049  0.00  0.00    +0.000 A 
ATOM     28  C   UNL     1       2.839   4.276  17.985  0.00  0.00    +0.000 A 
ENDBRANCH   2  22
TORSDOF 2
ENDMDL
MODEL 3
REMARK VINA RESULT:      -7.3      3.848      5.905
REMARK  Name = 
REMARK  2 active torsions:
REMARK  status: ('A' for Active; 'I' for Inactive)
REMARK    1  A    between atoms: C_2  and  C_3
REMARK    2  A    between atoms: N_13  and  C_14
REMARK                            x       y       z     vdW  Elec       q    Type
REMARK                         _______ _______ _______ _____ _____    ______ ____
ROOT
ATOM      1  O   UNL     1       8.049   4.377  17.052  0.00  0.00    +0.000 OA
ATOM      2  C   UNL     1       7.015   4.719  16.472  0.00  0.00    +0.000 C 
ATOM      3  N   UNL     1       5.899   5.188  17.166  0.00  0.00    +0.000 N 
ATOM      4  C   UNL     1       4.592   5.558  16.579  0.00  0.00    +0.000 C 
ATOM      5  C   UNL     1       3.389   5.213  17.481  0.00  0.00    +0.000 C 
ATOM      6  N   UNL     1       3.660   5.765  18.809  0.00  0.00    +0.000 N 
ATOM      7  C   UNL     1       4.845   5.175  19.441  0.00  0.00    +0.000 C 
ATOM      8  C   UNL     1       6.074   5.547  18.588  0.00  0.00    +0.000 C 
ENDROOT
BRANCH   6   9
ATOM      9  C   UNL     1       2.632   6.335  19.534  0.00  0.00    +0.000 A 
ATOM     10  N   UNL     1       2.374   7.650  19.316  0.00  0.00    +0.000 NA
ATOM     11  C   UNL     1       1.468   8.295  20.077  0.00  0.00    +0.000 A 
ATOM     12  N   UNL     1       1.306   9.650  19.926  0.00  0.00    +0.000 N 
ATOM     13  C   UNL     1       0.411  10.403  20.808  0.00  0.00    +0.000 C 
ATOM     14  C   UNL     1      -0.801  10.924  20.024  0.00  0.00    +0.000 C 
ATOM     15  O   UNL     1      -0.395  11.667  18.860  0.00  0.00    +0.000 OA
ATOM     16  C   UNL     1       0.375  10.827  17.982  0.00  0.00    +0.000 C 
ATOM     17  C   UNL     1       1.651  10.307  18.669  0.00  0.00    +0.000 C 
ATOM     18  N   UNL     1       0.769   7.676  21.034  0.00  0.00    +0.000 NA
ATOM     19  C   UNL     1       1.031   6.377  21.245  0.00  0.00    +0.000 A 
ATOM     20  C   UNL     1       1.961   5.652  20.541  0.00  0.00    +0.000 A 
ATOM     21 BR   UNL     1       2.341   3.899  21.144  0.00  0.00    +0.000 Br
ENDBRANCH   6   9
BRANCH   2  22
ATOM     22  C   UNL     1       6.993   4.581  14.993  0.00  0.00    +0.000 A 
ATOM     23  C   UNL     1       7.852   5.400  14.246  0.00  0.00    +0.000 A 
ATOM     24  C   UNL     1       7.872   5.309  12.851  0.00  0.00    +0.000 A 
ATOM     25  C   UNL     1       7.039   4.395  12.213  0.00  0.00    +0.000 A 
ATOM     26  F   UNL     1       7.078   4.284  10.879  0.00  0.00    +0.000 F 
ATOM     27  C   UNL     1       6.157   3.605  12.939  0.00  0.00    +0.000 A 
ATOM     28  C   UNL     1       6.104   3.728  14.328  0.00  0.00    +0.000 A 
ENDBRANCH   2  22
TORSDOF 2
ENDMDL
MODEL 4
REMARK VINA RESULT:      -7.1      2.071      2.714
REMARK  Name = 
REMARK  2 active torsions:
REMARK  status: ('A' for Active; 'I' for Inactive)
REMARK    1  A    between atoms: C_2  and  C_3
REMARK    2  A    between atoms: N_13  and  C_14
REMARK                            x       y       z     vdW  Elec       q    Type
REMARK                         _______ _______ _______ _____ _____    ______ ____
ROOT
ATOM      1  O   UNL     1       3.566   5.947  17.632  0.00  0.00    +0.000 OA
ATOM      2  C   UNL     1       2.676   6.221  18.441  0.00  0.00    +0.000 C 
ATOM      3  N   UNL     1       2.131   7.502  18.535  0.00  0.00    +0.000 N 
ATOM      4  C   UNL     1       1.115   7.955  19.510  0.00  0.00    +0.000 C 
ATOM      5  C   UNL     1       1.308   9.413  19.973  0.00  0.00    +0.000 C 
ATOM      6  N   UNL     1       1.442  10.243  18.774  0.00  0.00    +0.000 N 
ATOM      7  C   UNL     1       2.618   9.896  17.969  0.00  0.00    +0.000 C 
ATOM      8  C   UNL     1       2.429   8.458  17.448  0.00  0.00    +0.000 C 
ENDROOT
BRANCH   6   9
ATOM      9  C   UNL     1       0.855  11.493  18.740  0.00  0.00    +0.000 A 
ATOM     10  N   UNL     1       1.644  12.557  19.040  0.00  0.00    +0.000 NA
ATOM     11  C   UNL     1       1.105  13.788  19.144  0.00  0.00    +0.000 A 
ATOM     12  N   UNL     1       1.891  14.831  19.566  0.00  0.00    +0.000 N 
ATOM     13  C   UNL     1       1.317  16.160  19.795  0.00  0.00    +0.000 C 
ATOM     14  C   UNL     1       1.845  17.159  18.757  0.00  0.00    +0.000 C 
ATOM     15  O   UNL     1       3.283  17.163  18.714  0.00  0.00    +0.000 OA
ATOM     16  C   UNL     1       3.771  15.856  18.362  0.00  0.00    +0.000 C 
ATOM     17  C   UNL     1       3.340  14.793  19.389  0.00  0.00    +0.000 C 
ATOM     18  N   UNL     1      -0.193  14.020  18.923  0.00  0.00    +0.000 NA
ATOM     19  C   UNL     1      -0.967  12.964  18.630  0.00  0.00    +0.000 A 
ATOM     20  C   UNL     1      -0.509  11.672  18.539  0.00  0.00    +0.000 A 
ATOM     21 BR   UNL     1      -1.797  10.300  18.341  0.00  0.00    +0.000 Br
ENDBRANCH   6   9
BRANCH   2  22
ATOM     22  C   UNL     1       2.225   5.130  19.344  0.00  0.00    +0.000 A 
ATOM     23  C   UNL     1       2.669   5.155  20.673  0.00  0.00    +0.000 A 
ATOM     24  C   UNL     1       2.272   4.154  21.565  0.00  0.00    +0.000 A 
ATOM     25  C   UNL     1       1.430   3.139  21.123  0.00  0.00    +0.000 A 
ATOM     26  F   UNL     1       1.023   2.195  21.981  0.00  0.00    +0.000 F 
ATOM     27  C   UNL     1       1.013   3.082  19.799  0.00  0.00    +0.000 A 
ATOM     28  C   UNL     1       1.445   4.056  18.897  0.00  0.00    +0.000 A 
ENDBRANCH   2  22
TORSDOF 2
ENDMDL
MODEL 5
REMARK VINA RESULT:      -6.9      3.006      3.846
REMARK  Name = 
REMARK  2 active torsions:
REMARK  status: ('A' for Active; 'I' for Inactive)
REMARK    1  A    between atoms: C_2  and  C_3
REMARK    2  A    between atoms: N_13  and  C_14
REMARK                            x       y       z     vdW  Elec       q    Type
REMARK                         _______ _______ _______ _____ _____    ______ ____
ROOT
ATOM      1  O   UNL     1       2.009   5.705  20.936  0.00  0.00    +0.000 OA
ATOM      2  C   UNL     1       2.224   6.424  19.957  0.00  0.00    +0.000 C 
ATOM      3  N   UNL     1       1.783   7.747  19.901  0.00  0.00    +0.000 N 
ATOM      4  C   UNL     1       1.924   8.672  18.755  0.00  0.00    +0.000 C 
ATOM      5  C   UNL     1       0.731   9.633  18.584  0.00  0.00    +0.000 C 
ATOM      6  N   UNL     1       0.488  10.270  19.879  0.00  0.00    +0.000 N 
ATOM      7  C   UNL     1       0.114   9.312  20.925  0.00  0.00    +0.000 C 
ATOM      8  C   UNL     1       1.310   8.368  21.155  0.00  0.00    +0.000 C 
ENDROOT
BRANCH   6   9
ATOM      9  C   UNL     1       0.137  11.605  19.927  0.00  0.00    +0.000 A 
ATOM     10  N   UNL     1      -1.037  11.916  20.535  0.00  0.00    +0.000 NA
ATOM     11  C   UNL     1      -1.495  13.183  20.509  0.00  0.00    +0.000 A 
ATOM     12  N   UNL     1      -2.739  13.458  21.021  0.00  0.00    +0.000 N 
ATOM     13  C   UNL     1      -3.317  14.801  20.913  0.00  0.00    +0.000 C 
ATOM     14  C   UNL     1      -3.422  15.452  22.298  0.00  0.00    +0.000 C 
ATOM     15  O   UNL     1      -4.125  14.606  23.225  0.00  0.00    +0.000 OA
ATOM     16  C   UNL     1      -3.433  13.354  23.374  0.00  0.00    +0.000 C 
ATOM     17  C   UNL     1      -3.335  12.597  22.038  0.00  0.00    +0.000 C 
ATOM     18  N   UNL     1      -0.813  14.177  19.931  0.00  0.00    +0.000 NA
ATOM     19  C   UNL     1       0.344  13.862  19.330  0.00  0.00    +0.000 A 
ATOM     20  C   UNL     1       0.868  12.594  19.279  0.00  0.00    +0.000 A 
ATOM     21 BR   UNL     1       2.392  12.320  18.190  0.00  0.00    +0.000 Br
ENDBRANCH   6   9
BRANCH   2  22
ATOM     22  C   UNL     1       2.948   5.811  18.814  0.00  0.00    +0.000 A 
ATOM     23  C   UNL     1       2.407   4.651  18.242  0.00  0.00    +0.000 A 
ATOM     24  C   UNL     1       3.048   4.035  17.163  0.00  0.00    +0.000 A 
ATOM     25  C   UNL     1       4.222   4.586  16.660  0.00  0.00    +0.000 A 
ATOM     26  F   UNL     1       4.822   4.015  15.608  0.00  0.00    +0.000 F 
ATOM     27  C   UNL     1       4.789   5.713  17.241  0.00  0.00    +0.000 A 
ATOM     28  C   UNL     1       4.174   6.302  18.347  0.00  0.00    +0.000 A 
ENDBRANCH   2  22
TORSDOF 2
ENDMDL
MODEL 6
REMARK VINA RESULT:      -6.8      4.329      6.948
REMARK  Name = 
REMARK  2 active torsions:
REMARK  status: ('A' for Active; 'I' for Inactive)
REMARK    1  A    between atoms: C_2  and  C_3
REMARK    2  A    between atoms: N_13  and  C_14
REMARK                            x       y       z     vdW  Elec       q    Type
REMARK                         _______ _______ _______ _____ _____    ______ ____
ROOT
ATOM      1  O   UNL     1       7.779   5.520  14.271  0.00  0.00    +0.000 OA
ATOM      2  C   UNL     1       6.713   4.900  14.312  0.00  0.00    +0.000 C 
ATOM      3  N   UNL     1       5.796   5.072  15.350  0.00  0.00    +0.000 N 
ATOM      4  C   UNL     1       4.527   4.334  15.533  0.00  0.00    +0.000 C 
ATOM      5  C   UNL     1       4.178   4.060  17.009  0.00  0.00    +0.000 C 
ATOM      6  N   UNL     1       4.274   5.331  17.729  0.00  0.00    +0.000 N 
ATOM      7  C   UNL     1       5.628   5.894  17.712  0.00  0.00    +0.000 C 
ATOM      8  C   UNL     1       5.986   6.227  16.251  0.00  0.00    +0.000 C 
ENDROOT
BRANCH   6   9
ATOM      9  C   UNL     1       3.352   5.630  18.713  0.00  0.00    +0.000 A 
ATOM     10  N   UNL     1       2.883   6.903  18.758  0.00  0.00    +0.000 NA
ATOM     11  C   UNL     1       2.076   7.290  19.766  0.00  0.00    +0.000 A 
ATOM     12  N   UNL     1       1.710   8.609  19.864  0.00  0.00    +0.000 N 
ATOM     13  C   UNL     1       0.924   9.089  21.004  0.00  0.00    +0.000 C 
ATOM     14  C   UNL     1      -0.482   9.505  20.551  0.00  0.00    +0.000 C 
ATOM     15  O   UNL     1      -0.427  10.446  19.465  0.00  0.00    +0.000 OA
ATOM     16  C   UNL     1       0.250   9.862  18.337  0.00  0.00    +0.000 C 
ATOM     17  C   UNL     1       1.697   9.470  18.684  0.00  0.00    +0.000 C 
ATOM     18  N   UNL     1       1.678   6.448  20.725  0.00  0.00    +0.000 NA
ATOM     19  C   UNL     1       2.147   5.192  20.675  0.00  0.00    +0.000 A 
ATOM     20  C   UNL     1       2.999   4.723  19.706  0.00  0.00    +0.000 A 
ATOM     21 BR   UNL     1       3.725   2.991  19.942  0.00  0.00    +0.000 Br
ENDBRANCH   6   9
BRANCH   2  22
ATOM     22  C   UNL     1       6.455   3.928  13.217  0.00  0.00    +0.000 A 
ATOM     23  C   UNL     1       7.561   3.398  12.538  0.00  0.00    +0.000 A 
ATOM     24  C   UNL     1       7.373   2.478  11.502  0.00  0.00    +0.000 A 
ATOM     25  C   UNL     1       6.083   2.091  11.156  0.00  0.00    +0.000 A 
ATOM     26  F   UNL     1       5.902   1.188  10.185  0.00  0.00    +0.000 F 
ATOM     27  C   UNL     1       4.978   2.637  11.796  0.00  0.00    +0.000 A 
ATOM     28  C   UNL     1       5.162   3.589  12.799  0.00  0.00    +0.000 A 
ENDBRANCH   2  22
TORSDOF 2
ENDMDL
MODEL 7
REMARK VINA RESULT:      -6.7      2.262      2.733
REMARK  Name = 
REMARK  2 active torsions:
REMARK  status: ('A' for Active; 'I' for Inactive)
REMARK    1  A    between atoms: C_2  and  C_3
REMARK    2  A    between atoms: N_13  and  C_14
REMARK                            x       y       z     vdW  Elec       q    Type
REMARK                         _______ _______ _______ _____ _____    ______ ____
ROOT
ATOM      1  O   UNL     1       3.368   6.058  17.645  0.00  0.00    +0.000 OA
ATOM      2  C   UNL     1       2.559   6.285  18.549  0.00  0.00    +0.000 C 
ATOM      3  N   UNL     1       1.989   7.545  18.732  0.00  0.00    +0.000 N 
ATOM      4  C   UNL     1       1.066   7.943  19.818  0.00  0.00    +0.000 C 
ATOM      5  C   UNL     1       1.263   9.395  20.297  0.00  0.00    +0.000 C 
ATOM      6  N   UNL     1       1.248  10.257  19.113  0.00  0.00    +0.000 N 
ATOM      7  C   UNL     1       2.344   9.966  18.183  0.00  0.00    +0.000 C 
ATOM      8  C   UNL     1       2.144   8.535  17.646  0.00  0.00    +0.000 C 
ENDROOT
BRANCH   6   9
ATOM      9  C   UNL     1       0.624  11.488  19.173  0.00  0.00    +0.000 A 
ATOM     10  N   UNL     1       1.248  12.466  19.878  0.00  0.00    +0.000 NA
ATOM     11  C   UNL     1       0.636  13.650  20.077  0.00  0.00    +0.000 A 
ATOM     12  N   UNL     1       1.227  14.582  20.892  0.00  0.00    +0.000 N 
ATOM     13  C   UNL     1       0.542  15.836  21.219  0.00  0.00    +0.000 C 
ATOM     14  C   UNL     1       1.270  17.027  20.581  0.00  0.00    +0.000 C 
ATOM     15  O   UNL     1       2.666  17.037  20.926  0.00  0.00    +0.000 OA
ATOM     16  C   UNL     1       3.299  15.830  20.465  0.00  0.00    +0.000 C 
ATOM     17  C   UNL     1       2.671  14.580  21.106  0.00  0.00    +0.000 C 
ATOM     18  N   UNL     1      -0.569  13.924  19.568  0.00  0.00    +0.000 NA
ATOM     19  C   UNL     1      -1.181  12.952  18.875  0.00  0.00    +0.000 A 
ATOM     20  C   UNL     1      -0.646  11.707  18.654  0.00  0.00    +0.000 A 
ATOM     21 BR   UNL     1      -1.762  10.406  17.850  0.00  0.00    +0.000 Br
ENDBRANCH   6   9
BRANCH   2  22
ATOM     22  C   UNL     1       2.235   5.159  19.464  0.00  0.00    +0.000 A 
ATOM     23  C   UNL     1       1.436   4.120  18.967  0.00  0.00    +0.000 A 
ATOM     24  C   UNL     1       1.105   3.036  19.785  0.00  0.00    +0.000 A 
ATOM     25  C   UNL     1       1.578   2.997  21.093  0.00  0.00    +0.000 A 
ATOM     26  F   UNL     1       1.287   1.946  21.870  0.00  0.00    +0.000 F 
ATOM     27  C   UNL     1       2.339   4.038  21.609  0.00  0.00    +0.000 A 
ATOM     28  C   UNL     1       2.633   5.142  20.807  0.00  0.00    +0.000 A 
ENDBRANCH   2  22
TORSDOF 2
ENDMDL
MODEL 8
REMARK VINA RESULT:      -6.6      4.293      8.702
REMARK  Name = 
REMARK  2 active torsions:
REMARK  status: ('A' for Active; 'I' for Inactive)
REMARK    1  A    between atoms: C_2  and  C_3
REMARK    2  A    between atoms: N_13  and  C_14
REMARK                            x       y       z     vdW  Elec       q    Type
REMARK                         _______ _______ _______ _____ _____    ______ ____
ROOT
ATOM      1  O   UNL     1      -0.318  10.085  22.634  0.00  0.00    +0.000 OA
ATOM      2  C   UNL     1      -0.000  10.191  21.447  0.00  0.00    +0.000 C 
ATOM      3  N   UNL     1       0.626   9.155  20.753  0.00  0.00    +0.000 N 
ATOM      4  C   UNL     1       1.109   9.200  19.355  0.00  0.00    +0.000 C 
ATOM      5  C   UNL     1       2.403   8.395  19.122  0.00  0.00    +0.000 C 
ATOM      6  N   UNL     1       2.194   7.054  19.671  0.00  0.00    +0.000 N 
ATOM      7  C   UNL     1       1.956   7.062  21.119  0.00  0.00    +0.000 C 
ATOM      8  C   UNL     1       0.638   7.817  21.379  0.00  0.00    +0.000 C 
ENDROOT
BRANCH   6   9
ATOM      9  C   UNL     1       2.699   5.956  19.002  0.00  0.00    +0.000 A 
ATOM     10  N   UNL     1       3.627   6.190  18.039  0.00  0.00    +0.000 NA
ATOM     11  C   UNL     1       4.069   5.176  17.268  0.00  0.00    +0.000 A 
ATOM     12  N   UNL     1       4.914   5.448  16.221  0.00  0.00    +0.000 N 
ATOM     13  C   UNL     1       5.329   4.390  15.295  0.00  0.00    +0.000 C 
ATOM     14  C   UNL     1       6.827   4.095  15.454  0.00  0.00    +0.000 C 
ATOM     15  O   UNL     1       7.614   5.293  15.335  0.00  0.00    +0.000 OA
ATOM     16  C   UNL     1       7.236   6.236  16.353  0.00  0.00    +0.000 C 
ATOM     17  C   UNL     1       5.756   6.641  16.232  0.00  0.00    +0.000 C 
ATOM     18  N   UNL     1       3.652   3.917  17.436  0.00  0.00    +0.000 NA
ATOM     19  C   UNL     1       2.733   3.695  18.388  0.00  0.00    +0.000 A 
ATOM     20  C   UNL     1       2.204   4.672  19.195  0.00  0.00    +0.000 A 
ATOM     21 BR   UNL     1       0.757   4.192  20.316  0.00  0.00    +0.000 Br
ENDBRANCH   6   9
BRANCH   2  22
ATOM     22  C   UNL     1      -0.284  11.492  20.786  0.00  0.00    +0.000 A 
ATOM     23  C   UNL     1       0.743  12.446  20.751  0.00  0.00    +0.000 A 
ATOM     24  C   UNL     1       0.529  13.685  20.139  0.00  0.00    +0.000 A 
ATOM     25  C   UNL     1      -0.706  13.959  19.562  0.00  0.00    +0.000 A 
ATOM     26  F   UNL     1      -0.905  15.133  18.950  0.00  0.00    +0.000 F 
ATOM     27  C   UNL     1      -1.744  13.037  19.624  0.00  0.00    +0.000 A 
ATOM     28  C   UNL     1      -1.546  11.818  20.274  0.00  0.00    +0.000 A 
ENDBRANCH   2  22
TORSDOF 2
ENDMDL
MODEL 9
REMARK VINA RESULT:      -6.3      5.197      6.572
REMARK  Name = 
REMARK  2 active torsions:
REMARK  status: ('A' for Active; 'I' for Inactive)
REMARK    1  A    between atoms: C_2  and  C_3
REMARK    2  A    between atoms: N_13  and  C_14
REMARK                            x       y       z     vdW  Elec       q    Type
REMARK                         _______ _______ _______ _____ _____    ______ ____
ROOT
ATOM      1  O   UNL     1      -0.657  10.332  20.473  0.00  0.00    +0.000 OA
ATOM      2  C   UNL     1      -0.676  11.161  19.559  0.00  0.00    +0.000 C 
ATOM      3  N   UNL     1       0.136  12.295  19.573  0.00  0.00    +0.000 N 
ATOM      4  C   UNL     1       0.143  13.382  18.569  0.00  0.00    +0.000 C 
ATOM      5  C   UNL     1       0.408  14.777  19.170  0.00  0.00    +0.000 C 
ATOM      6  N   UNL     1       1.611  14.680  19.999  0.00  0.00    +0.000 N 
ATOM      7  C   UNL     1       1.452  13.756  21.128  0.00  0.00    +0.000 C 
ATOM      8  C   UNL     1       1.237  12.341  20.557  0.00  0.00    +0.000 C 
ENDROOT
BRANCH   6   9
ATOM      9  C   UNL     1       2.522  15.718  20.005  0.00  0.00    +0.000 A 
ATOM     10  N   UNL     1       3.816  15.410  19.732  0.00  0.00    +0.000 NA
ATOM     11  C   UNL     1       4.772  16.353  19.842  0.00  0.00    +0.000 A 
ATOM     12  N   UNL     1       6.088  15.998  19.681  0.00  0.00    +0.000 N 
ATOM     13  C   UNL     1       7.162  16.971  19.900  0.00  0.00    +0.000 C 
ATOM     14  C   UNL     1       7.864  17.300  18.575  0.00  0.00    +0.000 C 
ATOM     15  O   UNL     1       8.308  16.108  17.904  0.00  0.00    +0.000 OA
ATOM     16  C   UNL     1       7.185  15.258  17.612  0.00  0.00    +0.000 C 
ATOM     17  C   UNL     1       6.453  14.823  18.895  0.00  0.00    +0.000 C 
ATOM     18  N   UNL     1       4.493  17.617  20.178  0.00  0.00    +0.000 NA
ATOM     19  C   UNL     1       3.213  17.913  20.449  0.00  0.00    +0.000 A 
ATOM     20  C   UNL     1       2.181  17.008  20.396  0.00  0.00    +0.000 A 
ATOM     21 BR   UNL     1       0.490  17.570  21.035  0.00  0.00    +0.000 Br
ENDBRANCH   6   9
BRANCH   2  22
ATOM     22  C   UNL     1      -1.633  10.918  18.447  0.00  0.00    +0.000 A 
ATOM     23  C   UNL     1      -2.865  11.585  18.487  0.00  0.00    +0.000 A 
ATOM     24  C   UNL     1      -3.800  11.394  17.465  0.00  0.00    +0.000 A 
ATOM     25  C   UNL     1      -3.493  10.543  16.408  0.00  0.00    +0.000 A 
ATOM     26  F   UNL     1      -4.374  10.381  15.413  0.00  0.00    +0.000 F 
ATOM     27  C   UNL     1      -2.291   9.848  16.376  0.00  0.00    +0.000 A 
ATOM     28  C   UNL     1      -1.377  10.003  17.419  0.00  0.00    +0.000 A 
ENDBRANCH   2  22
TORSDOF 2
ENDMDL
