MODEL 1
REMARK VINA RESULT:      -8.5      0.000      0.000
REMARK  Name = 
REMARK  15 active torsions:
REMARK  status: ('A' for Active; 'I' for Inactive)
REMARK    1  A    between atoms: C_1  and  C_2
REMARK    2  A    between atoms: C_2  and  O_3
REMARK    3  A    between atoms: O_3  and  C_4
REMARK    4  A    between atoms: C_4  and  C_6
REMARK    5  A    between atoms: C_6  and  C_7
REMARK    6  A    between atoms: C_6  and  C_12
REMARK    7  A    between atoms: C_7  and  O_9
REMARK    8  A    between atoms: O_9  and  C_10
REMARK    9  A    between atoms: C_10  and  C_11
REMARK   10  A    between atoms: C_14  and  C_15
REMARK   11  A    between atoms: C_15  and  N_16
REMARK   12  A    between atoms: N_16  and  S_17
REMARK   13  A    between atoms: S_17  and  C_20
REMARK   14  A    between atoms: C_23  and  C_24
REMARK   15  A    between atoms: C_26  and  C_27
REMARK                            x       y       z     vdW  Elec       q    Type
REMARK                         _______ _______ _______ _____ _____    ______ ____
ROOT
ATOM      1  C   UNL     1       5.236   5.763  17.936  0.00  0.00    +0.000 A 
ATOM      2  C   UNL     1       4.343   6.708  18.425  0.00  0.00    +0.000 A 
ATOM      3  C   UNL     1       3.029   6.331  18.730  0.00  0.00    +0.000 A 
ATOM      4  C   UNL     1       2.640   4.979  18.530  0.00  0.00    +0.000 A 
ATOM      5  C   UNL     1       1.340   4.463  18.773  0.00  0.00    +0.000 A 
ATOM      6  C   UNL     1       1.042   3.114  18.583  0.00  0.00    +0.000 A 
ATOM      7  C   UNL     1       2.032   2.250  18.143  0.00  0.00    +0.000 A 
ATOM      8  C   UNL     1       3.309   2.746  17.881  0.00  0.00    +0.000 A 
ATOM      9  C   UNL     1       3.629   4.088  18.056  0.00  0.00    +0.000 A 
ATOM     10  N   UNL     1       4.883   4.470  17.764  0.00  0.00    +0.000 NA
ENDROOT
BRANCH   1  11
ATOM     11  C   UNL     1       6.639   6.141  17.518  0.00  0.00    +0.000 C 
BRANCH  11  12
ATOM     12  C   UNL     1       7.559   6.177  18.710  0.00  0.00    +0.000 C 
ATOM     13  O   UNL     1       7.589   5.348  19.615  0.00  0.00    +0.000 OA
BRANCH  12  14
ATOM     14  O   UNL     1       8.311   7.318  18.689  0.00  0.00    +0.000 OA
BRANCH  14  16
ATOM     15  C   UNL     1       8.525   9.620  18.135  0.00  0.00    +0.000 C 
ATOM     16  C   UNL     1       7.877   8.303  17.743  0.00  0.00    +0.000 C 
ENDBRANCH  14  16
ENDBRANCH  12  14
ENDBRANCH  11  12
BRANCH  11  17
ATOM     17  C   UNL     1       7.184   5.299  16.404  0.00  0.00    +0.000 C 
ATOM     18  O   UNL     1       8.023   4.416  16.535  0.00  0.00    +0.000 OA
BRANCH  17  19
ATOM     19  O   UNL     1       6.714   5.740  15.200  0.00  0.00    +0.000 OA
BRANCH  19  20
ATOM     20  C   UNL     1       6.866   4.835  14.097  0.00  0.00    +0.000 C 
ATOM     21  C   UNL     1       5.592   4.018  13.980  0.00  0.00    +0.000 C 
ENDBRANCH  19  20
ENDBRANCH  17  19
ENDBRANCH  11  17
ENDBRANCH   1  11
BRANCH   3  22
ATOM     22  C   UNL     1       2.122   7.398  19.302  0.00  0.00    +0.000 C 
BRANCH  22  23
ATOM     23  N   UNL     1       1.664   8.346  18.285  0.00  0.00    +0.000 NA
ATOM     24  H   UNL     1       0.936   8.035  17.641  0.00  0.00    +0.000 HD
BRANCH  23  25
ATOM     25  S   UNL     1       1.434   9.936  18.783  0.00  0.00    +0.000 S 
ATOM     26  O   UNL     1       1.423   9.924  20.228  0.00  0.00    +0.000 OA
ATOM     27  O   UNL     1       2.381  10.754  18.055  0.00  0.00    +0.000 OA
BRANCH  25  28
ATOM     28  C   UNL     1      -0.215  10.323  18.214  0.00  0.00    +0.000 A 
ATOM     29  C   UNL     1      -0.832   9.404  17.349  0.00  0.00    +0.000 A 
ATOM     30  C   UNL     1      -2.090   9.676  16.808  0.00  0.00    +0.000 A 
ATOM     31  C   UNL     1      -2.750  10.865  17.121  0.00  0.00    +0.000 A 
ATOM     32  C   UNL     1      -4.085  11.193  16.519  0.00  0.00    +0.000 C 
ATOM     33  C   UNL     1      -2.135  11.774  17.994  0.00  0.00    +0.000 A 
ATOM     34  C   UNL     1      -0.863  11.525  18.551  0.00  0.00    +0.000 A 
ATOM     35  C   UNL     1      -0.275  12.556  19.473  0.00  0.00    +0.000 C 
ENDBRANCH  25  28
ENDBRANCH  23  25
ENDBRANCH  22  23
ENDBRANCH   3  22
TORSDOF 11
ENDMDL
MODEL 2
REMARK VINA RESULT:      -8.2      2.125      2.412
REMARK  Name = 
REMARK  15 active torsions:
REMARK  status: ('A' for Active; 'I' for Inactive)
REMARK    1  A    between atoms: C_1  and  C_2
REMARK    2  A    between atoms: C_2  and  O_3
REMARK    3  A    between atoms: O_3  and  C_4
REMARK    4  A    between atoms: C_4  and  C_6
REMARK    5  A    between atoms: C_6  and  C_7
REMARK    6  A    between atoms: C_6  and  C_12
REMARK    7  A    between atoms: C_7  and  O_9
REMARK    8  A    between atoms: O_9  and  C_10
REMARK    9  A    between atoms: C_10  and  C_11
REMARK   10  A    between atoms: C_14  and  C_15
REMARK   11  A    between atoms: C_15  and  N_16
REMARK   12  A    between atoms: N_16  and  S_17
REMARK   13  A    between atoms: S_17  and  C_20
REMARK   14  A    between atoms: C_23  and  C_24
REMARK   15  A    between atoms: C_26  and  C_27
REMARK                            x       y       z     vdW  Elec       q    Type
REMARK                         _______ _______ _______ _____ _____    ______ ____
ROOT
ATOM      1  C   UNL     1       4.285   5.753  18.237  0.00  0.00    +0.000 A 
ATOM      2  C   UNL     1       3.589   6.421  19.236  0.00  0.00    +0.000 A 
ATOM      3  C   UNL     1       2.467   5.823  19.822  0.00  0.00    +0.000 A 
ATOM      4  C   UNL     1       2.066   4.534  19.376  0.00  0.00    +0.000 A 
ATOM      5  C   UNL     1       0.939   3.821  19.862  0.00  0.00    +0.000 A 
ATOM      6  C   UNL     1       0.628   2.543  19.397  0.00  0.00    +0.000 A 
ATOM      7  C   UNL     1       1.430   1.950  18.435  0.00  0.00    +0.000 A 
ATOM      8  C   UNL     1       2.529   2.647  17.934  0.00  0.00    +0.000 A 
ATOM      9  C   UNL     1       2.857   3.925  18.376  0.00  0.00    +0.000 A 
ATOM     10  N   UNL     1       3.927   4.517  17.823  0.00  0.00    +0.000 NA
ENDROOT
BRANCH   1  11
ATOM     11  C   UNL     1       5.454   6.392  17.521  0.00  0.00    +0.000 C 
BRANCH  11  12
ATOM     12  C   UNL     1       6.752   6.040  18.197  0.00  0.00    +0.000 C 
ATOM     13  O   UNL     1       6.879   5.269  19.144  0.00  0.00    +0.000 OA
BRANCH  12  14
ATOM     14  O   UNL     1       7.776   6.768  17.658  0.00  0.00    +0.000 OA
BRANCH  14  16
ATOM     15  C   UNL     1       8.533   8.871  18.468  0.00  0.00    +0.000 C 
ATOM     16  C   UNL     1       7.525   8.176  17.568  0.00  0.00    +0.000 C 
ENDBRANCH  14  16
ENDBRANCH  12  14
ENDBRANCH  11  12
BRANCH  11  17
ATOM     17  C   UNL     1       5.485   6.113  16.049  0.00  0.00    +0.000 C 
ATOM     18  O   UNL     1       5.001   6.835  15.185  0.00  0.00    +0.000 OA
BRANCH  17  19
ATOM     19  O   UNL     1       6.014   4.877  15.810  0.00  0.00    +0.000 OA
BRANCH  19  20
ATOM     20  C   UNL     1       6.863   4.770  14.658  0.00  0.00    +0.000 C 
ATOM     21  C   UNL     1       6.163   3.889  13.638  0.00  0.00    +0.000 C 
ENDBRANCH  19  20
ENDBRANCH  17  19
ENDBRANCH  11  17
ENDBRANCH   1  11
BRANCH   3  22
ATOM     22  C   UNL     1       1.782   6.586  20.935  0.00  0.00    +0.000 C 
BRANCH  22  23
ATOM     23  N   UNL     1       1.630   8.008  20.626  0.00  0.00    +0.000 NA
ATOM     24  H   UNL     1       1.465   8.266  19.653  0.00  0.00    +0.000 HD
BRANCH  23  25
ATOM     25  S   UNL     1       0.698   8.917  21.690  0.00  0.00    +0.000 S 
ATOM     26  O   UNL     1      -0.541   8.196  21.881  0.00  0.00    +0.000 OA
ATOM     27  O   UNL     1       1.541   9.255  22.818  0.00  0.00    +0.000 OA
BRANCH  25  28
ATOM     28  C   UNL     1       0.341  10.408  20.773  0.00  0.00    +0.000 A 
ATOM     29  C   UNL     1       0.889  10.520  19.484  0.00  0.00    +0.000 A 
ATOM     30  C   UNL     1       0.713  11.687  18.739  0.00  0.00    +0.000 A 
ATOM     31  C   UNL     1      -0.011  12.757  19.266  0.00  0.00    +0.000 A 
ATOM     32  C   UNL     1      -0.178  14.034  18.496  0.00  0.00    +0.000 C 
ATOM     33  C   UNL     1      -0.566  12.637  20.548  0.00  0.00    +0.000 A 
ATOM     34  C   UNL     1      -0.399  11.470  21.323  0.00  0.00    +0.000 A 
ATOM     35  C   UNL     1      -1.022  11.428  22.690  0.00  0.00    +0.000 C 
ENDBRANCH  25  28
ENDBRANCH  23  25
ENDBRANCH  22  23
ENDBRANCH   3  22
TORSDOF 11
ENDMDL
MODEL 3
REMARK VINA RESULT:      -8.2      1.765      3.521
REMARK  Name = 
REMARK  15 active torsions:
REMARK  status: ('A' for Active; 'I' for Inactive)
REMARK    1  A    between atoms: C_1  and  C_2
REMARK    2  A    between atoms: C_2  and  O_3
REMARK    3  A    between atoms: O_3  and  C_4
REMARK    4  A    between atoms: C_4  and  C_6
REMARK    5  A    between atoms: C_6  and  C_7
REMARK    6  A    between atoms: C_6  and  C_12
REMARK    7  A    between atoms: C_7  and  O_9
REMARK    8  A    between atoms: O_9  and  C_10
REMARK    9  A    between atoms: C_10  and  C_11
REMARK   10  A    between atoms: C_14  and  C_15
REMARK   11  A    between atoms: C_15  and  N_16
REMARK   12  A    between atoms: N_16  and  S_17
REMARK   13  A    between atoms: S_17  and  C_20
REMARK   14  A    between atoms: C_23  and  C_24
REMARK   15  A    between atoms: C_26  and  C_27
REMARK                            x       y       z     vdW  Elec       q    Type
REMARK                         _______ _______ _______ _____ _____    ______ ____
ROOT
ATOM      1  C   UNL     1       5.270   5.473  18.640  0.00  0.00    +0.000 A 
ATOM      2  C   UNL     1       4.276   6.386  18.312  0.00  0.00    +0.000 A 
ATOM      3  C   UNL     1       2.946   6.121  18.660  0.00  0.00    +0.000 A 
ATOM      4  C   UNL     1       2.644   4.913  19.347  0.00  0.00    +0.000 A 
ATOM      5  C   UNL     1       1.343   4.506  19.739  0.00  0.00    +0.000 A 
ATOM      6  C   UNL     1       1.130   3.319  20.441  0.00  0.00    +0.000 A 
ATOM      7  C   UNL     1       2.209   2.511  20.763  0.00  0.00    +0.000 A 
ATOM      8  C   UNL     1       3.492   2.889  20.367  0.00  0.00    +0.000 A 
ATOM      9  C   UNL     1       3.729   4.064  19.661  0.00  0.00    +0.000 A 
ATOM     10  N   UNL     1       4.998   4.333  19.314  0.00  0.00    +0.000 NA
ENDROOT
BRANCH   1  11
ATOM     11  C   UNL     1       6.707   5.679  18.215  0.00  0.00    +0.000 C 
BRANCH  11  12
ATOM     12  C   UNL     1       7.188   4.521  17.381  0.00  0.00    +0.000 C 
ATOM     13  O   UNL     1       8.333   4.080  17.364  0.00  0.00    +0.000 OA
BRANCH  12  14
ATOM     14  O   UNL     1       6.181   4.075  16.571  0.00  0.00    +0.000 OA
BRANCH  14  16
ATOM     15  C   UNL     1       5.546   4.575  14.336  0.00  0.00    +0.000 C 
ATOM     16  C   UNL     1       6.563   3.858  15.207  0.00  0.00    +0.000 C 
ENDBRANCH  14  16
ENDBRANCH  12  14
ENDBRANCH  11  12
BRANCH  11  17
ATOM     17  C   UNL     1       6.957   7.000  17.553  0.00  0.00    +0.000 C 
ATOM     18  O   UNL     1       6.449   7.367  16.501  0.00  0.00    +0.000 OA
BRANCH  17  19
ATOM     19  O   UNL     1       7.932   7.688  18.217  0.00  0.00    +0.000 OA
BRANCH  19  20
ATOM     20  C   UNL     1       8.139   9.045  17.799  0.00  0.00    +0.000 C 
ATOM     21  C   UNL     1       8.932   9.756  18.881  0.00  0.00    +0.000 C 
ENDBRANCH  19  20
ENDBRANCH  17  19
ENDBRANCH  11  17
ENDBRANCH   1  11
BRANCH   3  22
ATOM     22  C   UNL     1       1.920   7.178  18.314  0.00  0.00    +0.000 C 
BRANCH  22  23
ATOM     23  N   UNL     1       2.239   8.479  18.902  0.00  0.00    +0.000 NA
ATOM     24  H   UNL     1       3.223   8.700  19.056  0.00  0.00    +0.000 HD
BRANCH  23  25
ATOM     25  S   UNL     1       1.374   9.801  18.327  0.00  0.00    +0.000 S 
ATOM     26  O   UNL     1       2.344  10.803  17.949  0.00  0.00    +0.000 OA
ATOM     27  O   UNL     1       0.411   9.300  17.368  0.00  0.00    +0.000 OA
BRANCH  25  28
ATOM     28  C   UNL     1       0.495  10.390  19.767  0.00  0.00    +0.000 A 
ATOM     29  C   UNL     1       0.666   9.676  20.965  0.00  0.00    +0.000 A 
ATOM     30  C   UNL     1      -0.045  10.035  22.111  0.00  0.00    +0.000 A 
ATOM     31  C   UNL     1      -0.935  11.110  22.080  0.00  0.00    +0.000 A 
ATOM     32  C   UNL     1      -1.738  11.486  23.292  0.00  0.00    +0.000 C 
ATOM     33  C   UNL     1      -1.094  11.827  20.886  0.00  0.00    +0.000 A 
ATOM     34  C   UNL     1      -0.391  11.482  19.714  0.00  0.00    +0.000 A 
ATOM     35  C   UNL     1      -0.626  12.300  18.475  0.00  0.00    +0.000 C 
ENDBRANCH  25  28
ENDBRANCH  23  25
ENDBRANCH  22  23
ENDBRANCH   3  22
TORSDOF 11
ENDMDL
MODEL 4
REMARK VINA RESULT:      -8.2      1.788      3.653
REMARK  Name = 
REMARK  15 active torsions:
REMARK  status: ('A' for Active; 'I' for Inactive)
REMARK    1  A    between atoms: C_1  and  C_2
REMARK    2  A    between atoms: C_2  and  O_3
REMARK    3  A    between atoms: O_3  and  C_4
REMARK    4  A    between atoms: C_4  and  C_6
REMARK    5  A    between atoms: C_6  and  C_7
REMARK    6  A    between atoms: C_6  and  C_12
REMARK    7  A    between atoms: C_7  and  O_9
REMARK    8  A    between atoms: O_9  and  C_10
REMARK    9  A    between atoms: C_10  and  C_11
REMARK   10  A    between atoms: C_14  and  C_15
REMARK   11  A    between atoms: C_15  and  N_16
REMARK   12  A    between atoms: N_16  and  S_17
REMARK   13  A    between atoms: S_17  and  C_20
REMARK   14  A    between atoms: C_23  and  C_24
REMARK   15  A    between atoms: C_26  and  C_27
REMARK                            x       y       z     vdW  Elec       q    Type
REMARK                         _______ _______ _______ _____ _____    ______ ____
ROOT
ATOM      1  C   UNL     1       5.429   5.403  18.191  0.00  0.00    +0.000 A 
ATOM      2  C   UNL     1       4.409   6.327  18.005  0.00  0.00    +0.000 A 
ATOM      3  C   UNL     1       3.074   5.903  18.033  0.00  0.00    +0.000 A 
ATOM      4  C   UNL     1       2.796   4.527  18.255  0.00  0.00    +0.000 A 
ATOM      5  C   UNL     1       1.497   3.956  18.285  0.00  0.00    +0.000 A 
ATOM      6  C   UNL     1       1.302   2.598  18.542  0.00  0.00    +0.000 A 
ATOM      7  C   UNL     1       2.397   1.780  18.769  0.00  0.00    +0.000 A 
ATOM      8  C   UNL     1       3.681   2.324  18.723  0.00  0.00    +0.000 A 
ATOM      9  C   UNL     1       3.902   3.673  18.463  0.00  0.00    +0.000 A 
ATOM     10  N   UNL     1       5.175   4.097  18.426  0.00  0.00    +0.000 NA
ENDROOT
BRANCH   1  11
ATOM     11  C   UNL     1       6.885   5.800  18.090  0.00  0.00    +0.000 C 
BRANCH  11  12
ATOM     12  C   UNL     1       7.664   4.777  17.306  0.00  0.00    +0.000 C 
ATOM     13  O   UNL     1       8.441   3.953  17.781  0.00  0.00    +0.000 OA
BRANCH  12  14
ATOM     14  O   UNL     1       7.449   4.946  15.967  0.00  0.00    +0.000 OA
BRANCH  14  16
ATOM     15  C   UNL     1       5.556   4.554  14.583  0.00  0.00    +0.000 C 
ATOM     16  C   UNL     1       6.694   3.898  15.346  0.00  0.00    +0.000 C 
ENDBRANCH  14  16
ENDBRANCH  12  14
ENDBRANCH  11  12
BRANCH  11  17
ATOM     17  C   UNL     1       7.097   7.192  17.575  0.00  0.00    +0.000 C 
ATOM     18  O   UNL     1       6.513   7.685  16.618  0.00  0.00    +0.000 OA
BRANCH  17  19
ATOM     19  O   UNL     1       8.127   7.794  18.241  0.00  0.00    +0.000 OA
BRANCH  19  20
ATOM     20  C   UNL     1       8.289   9.200  18.006  0.00  0.00    +0.000 C 
ATOM     21  C   UNL     1       9.085   9.781  19.160  0.00  0.00    +0.000 C 
ENDBRANCH  19  20
ENDBRANCH  17  19
ENDBRANCH  11  17
ENDBRANCH   1  11
BRANCH   3  22
ATOM     22  C   UNL     1       2.010   6.967  17.869  0.00  0.00    +0.000 C 
BRANCH  22  23
ATOM     23  N   UNL     1       2.563   8.321  17.917  0.00  0.00    +0.000 NA
ATOM     24  H   UNL     1       3.365   8.526  17.320  0.00  0.00    +0.000 HD
BRANCH  23  25
ATOM     25  S   UNL     1       1.458   9.588  17.953  0.00  0.00    +0.000 S 
ATOM     26  O   UNL     1       2.188  10.789  17.618  0.00  0.00    +0.000 OA
ATOM     27  O   UNL     1       0.308   9.177  17.174  0.00  0.00    +0.000 OA
BRANCH  25  28
ATOM     28  C   UNL     1       0.981   9.685  19.672  0.00  0.00    +0.000 A 
ATOM     29  C   UNL     1       1.567   8.764  20.557  0.00  0.00    +0.000 A 
ATOM     30  C   UNL     1       1.187   8.734  21.900  0.00  0.00    +0.000 A 
ATOM     31  C   UNL     1       0.221   9.620  22.380  0.00  0.00    +0.000 A 
ATOM     32  C   UNL     1      -0.228   9.576  23.811  0.00  0.00    +0.000 C 
ATOM     33  C   UNL     1      -0.352  10.545  21.496  0.00  0.00    +0.000 A 
ATOM     34  C   UNL     1       0.012  10.593  20.134  0.00  0.00    +0.000 A 
ATOM     35  C   UNL     1      -0.657  11.612  19.254  0.00  0.00    +0.000 C 
ENDBRANCH  25  28
ENDBRANCH  23  25
ENDBRANCH  22  23
ENDBRANCH   3  22
TORSDOF 11
ENDMDL
MODEL 5
REMARK VINA RESULT:      -8.0      1.663      2.358
REMARK  Name = 
REMARK  15 active torsions:
REMARK  status: ('A' for Active; 'I' for Inactive)
REMARK    1  A    between atoms: C_1  and  C_2
REMARK    2  A    between atoms: C_2  and  O_3
REMARK    3  A    between atoms: O_3  and  C_4
REMARK    4  A    between atoms: C_4  and  C_6
REMARK    5  A    between atoms: C_6  and  C_7
REMARK    6  A    between atoms: C_6  and  C_12
REMARK    7  A    between atoms: C_7  and  O_9
REMARK    8  A    between atoms: O_9  and  C_10
REMARK    9  A    between atoms: C_10  and  C_11
REMARK   10  A    between atoms: C_14  and  C_15
REMARK   11  A    between atoms: C_15  and  N_16
REMARK   12  A    between atoms: N_16  and  S_17
REMARK   13  A    between atoms: S_17  and  C_20
REMARK   14  A    between atoms: C_23  and  C_24
REMARK   15  A    between atoms: C_26  and  C_27
REMARK                            x       y       z     vdW  Elec       q    Type
REMARK                         _______ _______ _______ _____ _____    ______ ____
ROOT
ATOM      1  C   UNL     1       5.212   6.076  17.744  0.00  0.00    +0.000 A 
ATOM      2  C   UNL     1       4.085   6.887  17.769  0.00  0.00    +0.000 A 
ATOM      3  C   UNL     1       2.939   6.466  18.456  0.00  0.00    +0.000 A 
ATOM      4  C   UNL     1       2.960   5.208  19.117  0.00  0.00    +0.000 A 
ATOM      5  C   UNL     1       1.868   4.646  19.828  0.00  0.00    +0.000 A 
ATOM      6  C   UNL     1       1.976   3.417  20.480  0.00  0.00    +0.000 A 
ATOM      7  C   UNL     1       3.172   2.720  20.433  0.00  0.00    +0.000 A 
ATOM      8  C   UNL     1       4.248   3.250  19.721  0.00  0.00    +0.000 A 
ATOM      9  C   UNL     1       4.164   4.470  19.057  0.00  0.00    +0.000 A 
ATOM     10  N   UNL     1       5.250   4.888  18.389  0.00  0.00    +0.000 NA
ENDROOT
BRANCH   1  11
ATOM     11  C   UNL     1       6.442   6.452  16.950  0.00  0.00    +0.000 C 
BRANCH  11  12
ATOM     12  C   UNL     1       7.519   6.988  17.856  0.00  0.00    +0.000 C 
ATOM     13  O   UNL     1       7.954   6.427  18.858  0.00  0.00    +0.000 OA
BRANCH  12  14
ATOM     14  O   UNL     1       7.895   8.239  17.452  0.00  0.00    +0.000 OA
BRANCH  14  16
ATOM     15  C   UNL     1       8.573  10.453  17.990  0.00  0.00    +0.000 C 
ATOM     16  C   UNL     1       8.592   9.003  18.444  0.00  0.00    +0.000 C 
ENDBRANCH  14  16
ENDBRANCH  12  14
ENDBRANCH  11  12
BRANCH  11  17
ATOM     17  C   UNL     1       6.943   5.358  16.057  0.00  0.00    +0.000 C 
ATOM     18  O   UNL     1       7.871   4.604  16.320  0.00  0.00    +0.000 OA
BRANCH  17  19
ATOM     19  O   UNL     1       6.304   5.399  14.850  0.00  0.00    +0.000 OA
BRANCH  19  20
ATOM     20  C   UNL     1       6.966   4.728  13.767  0.00  0.00    +0.000 C 
ATOM     21  C   UNL     1       6.016   3.680  13.214  0.00  0.00    +0.000 C 
ENDBRANCH  19  20
ENDBRANCH  17  19
ENDBRANCH  11  17
ENDBRANCH   1  11
BRANCH   3  22
ATOM     22  C   UNL     1       1.763   7.418  18.482  0.00  0.00    +0.000 C 
BRANCH  22  23
ATOM     23  N   UNL     1       2.128   8.742  18.988  0.00  0.00    +0.000 NA
ATOM     24  H   UNL     1       3.121   8.959  19.072  0.00  0.00    +0.000 HD
BRANCH  23  25
ATOM     25  S   UNL     1       1.238  10.044  18.406  0.00  0.00    +0.000 S 
ATOM     26  O   UNL     1       2.190  11.069  18.039  0.00  0.00    +0.000 OA
ATOM     27  O   UNL     1       0.298   9.523  17.436  0.00  0.00    +0.000 OA
BRANCH  25  28
ATOM     28  C   UNL     1       0.331  10.611  19.837  0.00  0.00    +0.000 A 
ATOM     29  C   UNL     1       0.543   9.929  21.047  0.00  0.00    +0.000 A 
ATOM     30  C   UNL     1      -0.185  10.270  22.188  0.00  0.00    +0.000 A 
ATOM     31  C   UNL     1      -1.132  11.295  22.140  0.00  0.00    +0.000 A 
ATOM     32  C   UNL     1      -1.952  11.649  23.346  0.00  0.00    +0.000 C 
ATOM     33  C   UNL     1      -1.332  11.981  20.933  0.00  0.00    +0.000 A 
ATOM     34  C   UNL     1      -0.612  11.652  19.766  0.00  0.00    +0.000 A 
ATOM     35  C   UNL     1      -0.892  12.435  18.513  0.00  0.00    +0.000 C 
ENDBRANCH  25  28
ENDBRANCH  23  25
ENDBRANCH  22  23
ENDBRANCH   3  22
TORSDOF 11
ENDMDL
MODEL 6
REMARK VINA RESULT:      -8.0      1.939      3.738
REMARK  Name = 
REMARK  15 active torsions:
REMARK  status: ('A' for Active; 'I' for Inactive)
REMARK    1  A    between atoms: C_1  and  C_2
REMARK    2  A    between atoms: C_2  and  O_3
REMARK    3  A    between atoms: O_3  and  C_4
REMARK    4  A    between atoms: C_4  and  C_6
REMARK    5  A    between atoms: C_6  and  C_7
REMARK    6  A    between atoms: C_6  and  C_12
REMARK    7  A    between atoms: C_7  and  O_9
REMARK    8  A    between atoms: O_9  and  C_10
REMARK    9  A    between atoms: C_10  and  C_11
REMARK   10  A    between atoms: C_14  and  C_15
REMARK   11  A    between atoms: C_15  and  N_16
REMARK   12  A    between atoms: N_16  and  S_17
REMARK   13  A    between atoms: S_17  and  C_20
REMARK   14  A    between atoms: C_23  and  C_24
REMARK   15  A    between atoms: C_26  and  C_27
REMARK                            x       y       z     vdW  Elec       q    Type
REMARK                         _______ _______ _______ _____ _____    ______ ____
ROOT
ATOM      1  C   UNL     1       4.874   4.435  17.658  0.00  0.00    +0.000 A 
ATOM      2  C   UNL     1       3.974   5.453  17.371  0.00  0.00    +0.000 A 
ATOM      3  C   UNL     1       2.802   5.581  18.127  0.00  0.00    +0.000 A 
ATOM      4  C   UNL     1       2.563   4.657  19.181  0.00  0.00    +0.000 A 
ATOM      5  C   UNL     1       1.411   4.653  20.011  0.00  0.00    +0.000 A 
ATOM      6  C   UNL     1       1.262   3.732  21.048  0.00  0.00    +0.000 A 
ATOM      7  C   UNL     1       2.255   2.793  21.277  0.00  0.00    +0.000 A 
ATOM      8  C   UNL     1       3.383   2.772  20.457  0.00  0.00    +0.000 A 
ATOM      9  C   UNL     1       3.552   3.676  19.413  0.00  0.00    +0.000 A 
ATOM     10  N   UNL     1       4.667   3.566  18.673  0.00  0.00    +0.000 NA
ENDROOT
BRANCH   1  11
ATOM     11  C   UNL     1       6.111   4.210  16.819  0.00  0.00    +0.000 C 
BRANCH  11  12
ATOM     12  C   UNL     1       5.887   4.674  15.404  0.00  0.00    +0.000 C 
ATOM     13  O   UNL     1       5.796   5.844  15.041  0.00  0.00    +0.000 OA
BRANCH  12  14
ATOM     14  O   UNL     1       5.714   3.599  14.577  0.00  0.00    +0.000 OA
BRANCH  14  16
ATOM     15  C   UNL     1       6.356   3.432  12.295  0.00  0.00    +0.000 C 
ATOM     16  C   UNL     1       5.285   3.928  13.250  0.00  0.00    +0.000 C 
ENDBRANCH  14  16
ENDBRANCH  12  14
ENDBRANCH  11  12
BRANCH  11  17
ATOM     17  C   UNL     1       7.359   4.786  17.416  0.00  0.00    +0.000 C 
ATOM     18  O   UNL     1       8.438   4.210  17.482  0.00  0.00    +0.000 OA
BRANCH  17  19
ATOM     19  O   UNL     1       7.096   5.995  17.994  0.00  0.00    +0.000 OA
BRANCH  19  20
ATOM     20  C   UNL     1       7.579   7.147  17.287  0.00  0.00    +0.000 C 
ATOM     21  C   UNL     1       8.171   8.108  18.303  0.00  0.00    +0.000 C 
ENDBRANCH  19  20
ENDBRANCH  17  19
ENDBRANCH  11  17
ENDBRANCH   1  11
BRANCH   3  22
ATOM     22  C   UNL     1       1.888   6.739  17.791  0.00  0.00    +0.000 C 
BRANCH  22  23
ATOM     23  N   UNL     1       2.196   7.938  18.572  0.00  0.00    +0.000 NA
ATOM     24  H   UNL     1       3.172   8.102  18.823  0.00  0.00    +0.000 HD
BRANCH  23  25
ATOM     25  S   UNL     1       1.410   9.355  18.123  0.00  0.00    +0.000 S 
ATOM     26  O   UNL     1       2.436  10.306  17.764  0.00  0.00    +0.000 OA
ATOM     27  O   UNL     1       0.373   8.990  17.180  0.00  0.00    +0.000 OA
BRANCH  25  28
ATOM     28  C   UNL     1       0.639   9.909  19.637  0.00  0.00    +0.000 A 
ATOM     29  C   UNL     1       0.865   9.144  20.793  0.00  0.00    +0.000 A 
ATOM     30  C   UNL     1       0.237   9.475  21.995  0.00  0.00    +0.000 A 
ATOM     31  C   UNL     1      -0.623  10.573  22.061  0.00  0.00    +0.000 A 
ATOM     32  C   UNL     1      -1.338  10.922  23.334  0.00  0.00    +0.000 C 
ATOM     33  C   UNL     1      -0.836  11.341  20.908  0.00  0.00    +0.000 A 
ATOM     34  C   UNL     1      -0.217  11.024  19.681  0.00  0.00    +0.000 A 
ATOM     35  C   UNL     1      -0.506  11.897  18.491  0.00  0.00    +0.000 C 
ENDBRANCH  25  28
ENDBRANCH  23  25
ENDBRANCH  22  23
ENDBRANCH   3  22
TORSDOF 11
ENDMDL
MODEL 7
REMARK VINA RESULT:      -7.9      1.445      1.764
REMARK  Name = 
REMARK  15 active torsions:
REMARK  status: ('A' for Active; 'I' for Inactive)
REMARK    1  A    between atoms: C_1  and  C_2
REMARK    2  A    between atoms: C_2  and  O_3
REMARK    3  A    between atoms: O_3  and  C_4
REMARK    4  A    between atoms: C_4  and  C_6
REMARK    5  A    between atoms: C_6  and  C_7
REMARK    6  A    between atoms: C_6  and  C_12
REMARK    7  A    between atoms: C_7  and  O_9
REMARK    8  A    between atoms: O_9  and  C_10
REMARK    9  A    between atoms: C_10  and  C_11
REMARK   10  A    between atoms: C_14  and  C_15
REMARK   11  A    between atoms: C_15  and  N_16
REMARK   12  A    between atoms: N_16  and  S_17
REMARK   13  A    between atoms: S_17  and  C_20
REMARK   14  A    between atoms: C_23  and  C_24
REMARK   15  A    between atoms: C_26  and  C_27
REMARK                            x       y       z     vdW  Elec       q    Type
REMARK                         _______ _______ _______ _____ _____    ______ ____
ROOT
ATOM      1  C   UNL     1       4.770   5.943  17.122  0.00  0.00    +0.000 A 
ATOM      2  C   UNL     1       4.091   7.152  17.052  0.00  0.00    +0.000 A 
ATOM      3  C   UNL     1       3.083   7.439  17.981  0.00  0.00    +0.000 A 
ATOM      4  C   UNL     1       2.780   6.477  18.983  0.00  0.00    +0.000 A 
ATOM      5  C   UNL     1       1.773   6.623  19.971  0.00  0.00    +0.000 A 
ATOM      6  C   UNL     1       1.555   5.646  20.943  0.00  0.00    +0.000 A 
ATOM      7  C   UNL     1       2.334   4.500  20.948  0.00  0.00    +0.000 A 
ATOM      8  C   UNL     1       3.315   4.334  19.970  0.00  0.00    +0.000 A 
ATOM      9  C   UNL     1       3.547   5.290  18.987  0.00  0.00    +0.000 A 
ATOM     10  N   UNL     1       4.505   5.030  18.083  0.00  0.00    +0.000 NA
ENDROOT
BRANCH   1  11
ATOM     11  C   UNL     1       5.808   5.556  16.092  0.00  0.00    +0.000 C 
BRANCH  11  12
ATOM     12  C   UNL     1       7.191   5.602  16.686  0.00  0.00    +0.000 C 
ATOM     13  O   UNL     1       7.796   4.646  17.162  0.00  0.00    +0.000 OA
BRANCH  12  14
ATOM     14  O   UNL     1       7.656   6.887  16.696  0.00  0.00    +0.000 OA
BRANCH  14  16
ATOM     15  C   UNL     1       8.055   8.935  17.835  0.00  0.00    +0.000 C 
ATOM     16  C   UNL     1       7.862   7.438  18.003  0.00  0.00    +0.000 C 
ENDBRANCH  14  16
ENDBRANCH  12  14
ENDBRANCH  11  12
BRANCH  11  17
ATOM     17  C   UNL     1       5.525   4.252  15.410  0.00  0.00    +0.000 C 
ATOM     18  O   UNL     1       5.547   3.154  15.953  0.00  0.00    +0.000 OA
BRANCH  17  19
ATOM     19  O   UNL     1       5.365   4.442  14.067  0.00  0.00    +0.000 OA
BRANCH  19  20
ATOM     20  C   UNL     1       6.302   3.760  13.221  0.00  0.00    +0.000 C 
ATOM     21  C   UNL     1       5.535   3.168  12.051  0.00  0.00    +0.000 C 
ENDBRANCH  19  20
ENDBRANCH  17  19
ENDBRANCH  11  17
ENDBRANCH   1  11
BRANCH   3  22
ATOM     22  C   UNL     1       2.416   8.793  17.877  0.00  0.00    +0.000 C 
BRANCH  22  23
ATOM     23  N   UNL     1       1.369   8.978  18.883  0.00  0.00    +0.000 NA
ATOM     24  H   UNL     1       1.388   8.371  19.703  0.00  0.00    +0.000 HD
BRANCH  23  25
ATOM     25  S   UNL     1       0.970  10.563  19.275  0.00  0.00    +0.000 S 
ATOM     26  O   UNL     1       0.925  10.638  20.718  0.00  0.00    +0.000 OA
ATOM     27  O   UNL     1       1.847  11.428  18.514  0.00  0.00    +0.000 OA
BRANCH  25  28
ATOM     28  C   UNL     1      -0.696  10.746  18.655  0.00  0.00    +0.000 A 
ATOM     29  C   UNL     1      -1.126   9.829  17.682  0.00  0.00    +0.000 A 
ATOM     30  C   UNL     1      -2.389   9.955  17.100  0.00  0.00    +0.000 A 
ATOM     31  C   UNL     1      -3.239  10.996  17.478  0.00  0.00    +0.000 A 
ATOM     32  C   UNL     1      -4.583  11.171  16.834  0.00  0.00    +0.000 C 
ATOM     33  C   UNL     1      -2.809  11.903  18.457  0.00  0.00    +0.000 A 
ATOM     34  C   UNL     1      -1.537  11.799  19.058  0.00  0.00    +0.000 A 
ATOM     35  C   UNL     1      -1.155  12.818  20.095  0.00  0.00    +0.000 C 
ENDBRANCH  25  28
ENDBRANCH  23  25
ENDBRANCH  22  23
ENDBRANCH   3  22
TORSDOF 11
ENDMDL
MODEL 8
REMARK VINA RESULT:      -7.9      2.069      2.579
REMARK  Name = 
REMARK  15 active torsions:
REMARK  status: ('A' for Active; 'I' for Inactive)
REMARK    1  A    between atoms: C_1  and  C_2
REMARK    2  A    between atoms: C_2  and  O_3
REMARK    3  A    between atoms: O_3  and  C_4
REMARK    4  A    between atoms: C_4  and  C_6
REMARK    5  A    between atoms: C_6  and  C_7
REMARK    6  A    between atoms: C_6  and  C_12
REMARK    7  A    between atoms: C_7  and  O_9
REMARK    8  A    between atoms: O_9  and  C_10
REMARK    9  A    between atoms: C_10  and  C_11
REMARK   10  A    between atoms: C_14  and  C_15
REMARK   11  A    between atoms: C_15  and  N_16
REMARK   12  A    between atoms: N_16  and  S_17
REMARK   13  A    between atoms: S_17  and  C_20
REMARK   14  A    between atoms: C_23  and  C_24
REMARK   15  A    between atoms: C_26  and  C_27
REMARK                            x       y       z     vdW  Elec       q    Type
REMARK                         _______ _______ _______ _____ _____    ______ ____
ROOT
ATOM      1  C   UNL     1       4.286   5.654  18.211  0.00  0.00    +0.000 A 
ATOM      2  C   UNL     1       3.599   6.359  19.191  0.00  0.00    +0.000 A 
ATOM      3  C   UNL     1       2.462   5.796  19.785  0.00  0.00    +0.000 A 
ATOM      4  C   UNL     1       2.038   4.506  19.366  0.00  0.00    +0.000 A 
ATOM      5  C   UNL     1       0.895   3.826  19.862  0.00  0.00    +0.000 A 
ATOM      6  C   UNL     1       0.560   2.544  19.424  0.00  0.00    +0.000 A 
ATOM      7  C   UNL     1       1.355   1.914  18.480  0.00  0.00    +0.000 A 
ATOM      8  C   UNL     1       2.470   2.578  17.969  0.00  0.00    +0.000 A 
ATOM      9  C   UNL     1       2.821   3.858  18.384  0.00  0.00    +0.000 A 
ATOM     10  N   UNL     1       3.905   4.417  17.823  0.00  0.00    +0.000 NA
ENDROOT
BRANCH   1  11
ATOM     11  C   UNL     1       5.470   6.254  17.487  0.00  0.00    +0.000 C 
BRANCH  11  12
ATOM     12  C   UNL     1       6.764   5.793  18.104  0.00  0.00    +0.000 C 
ATOM     13  O   UNL     1       6.875   4.925  18.964  0.00  0.00    +0.000 OA
BRANCH  12  14
ATOM     14  O   UNL     1       7.805   6.541  17.629  0.00  0.00    +0.000 OA
BRANCH  14  16
ATOM     15  C   UNL     1       8.044   8.899  17.803  0.00  0.00    +0.000 C 
ATOM     16  C   UNL     1       8.253   7.574  18.515  0.00  0.00    +0.000 C 
ENDBRANCH  14  16
ENDBRANCH  12  14
ENDBRANCH  11  12
BRANCH  11  17
ATOM     17  C   UNL     1       5.440   6.043  16.003  0.00  0.00    +0.000 C 
ATOM     18  O   UNL     1       4.996   6.841  15.187  0.00  0.00    +0.000 OA
BRANCH  17  19
ATOM     19  O   UNL     1       5.860   4.780  15.694  0.00  0.00    +0.000 OA
BRANCH  19  20
ATOM     20  C   UNL     1       6.786   4.676  14.603  0.00  0.00    +0.000 C 
ATOM     21  C   UNL     1       6.125   3.866  13.501  0.00  0.00    +0.000 C 
ENDBRANCH  19  20
ENDBRANCH  17  19
ENDBRANCH  11  17
ENDBRANCH   1  11
BRANCH   3  22
ATOM     22  C   UNL     1       1.788   6.597  20.877  0.00  0.00    +0.000 C 
BRANCH  22  23
ATOM     23  N   UNL     1       1.813   8.036  20.612  0.00  0.00    +0.000 NA
ATOM     24  H   UNL     1       1.809   8.337  19.637  0.00  0.00    +0.000 HD
BRANCH  23  25
ATOM     25  S   UNL     1       0.833   9.000  21.579  0.00  0.00    +0.000 S 
ATOM     26  O   UNL     1      -0.461   8.360  21.633  0.00  0.00    +0.000 OA
ATOM     27  O   UNL     1       1.572   9.282  22.792  0.00  0.00    +0.000 OA
BRANCH  25  28
ATOM     28  C   UNL     1       0.670  10.513  20.642  0.00  0.00    +0.000 A 
ATOM     29  C   UNL     1       0.364  11.684  21.355  0.00  0.00    +0.000 A 
ATOM     30  C   UNL     1       0.150  12.887  20.681  0.00  0.00    +0.000 A 
ATOM     31  C   UNL     1       0.238  12.941  19.289  0.00  0.00    +0.000 A 
ATOM     32  C   UNL     1      -0.027  14.216  18.544  0.00  0.00    +0.000 C 
ATOM     33  C   UNL     1       0.555  11.772  18.582  0.00  0.00    +0.000 A 
ATOM     34  C   UNL     1       0.772  10.543  19.240  0.00  0.00    +0.000 A 
ATOM     35  C   UNL     1       1.100   9.337  18.404  0.00  0.00    +0.000 C 
ENDBRANCH  25  28
ENDBRANCH  23  25
ENDBRANCH  22  23
ENDBRANCH   3  22
TORSDOF 11
ENDMDL
MODEL 9
REMARK VINA RESULT:      -7.8      1.186      1.527
REMARK  Name = 
REMARK  15 active torsions:
REMARK  status: ('A' for Active; 'I' for Inactive)
REMARK    1  A    between atoms: C_1  and  C_2
REMARK    2  A    between atoms: C_2  and  O_3
REMARK    3  A    between atoms: O_3  and  C_4
REMARK    4  A    between atoms: C_4  and  C_6
REMARK    5  A    between atoms: C_6  and  C_7
REMARK    6  A    between atoms: C_6  and  C_12
REMARK    7  A    between atoms: C_7  and  O_9
REMARK    8  A    between atoms: O_9  and  C_10
REMARK    9  A    between atoms: C_10  and  C_11
REMARK   10  A    between atoms: C_14  and  C_15
REMARK   11  A    between atoms: C_15  and  N_16
REMARK   12  A    between atoms: N_16  and  S_17
REMARK   13  A    between atoms: S_17  and  C_20
REMARK   14  A    between atoms: C_23  and  C_24
REMARK   15  A    between atoms: C_26  and  C_27
REMARK                            x       y       z     vdW  Elec       q    Type
REMARK                         _______ _______ _______ _____ _____    ______ ____
ROOT
ATOM      1  C   UNL     1       4.332   5.783  17.578  0.00  0.00    +0.000 A 
ATOM      2  C   UNL     1       3.643   6.832  18.172  0.00  0.00    +0.000 A 
ATOM      3  C   UNL     1       2.563   6.564  19.021  0.00  0.00    +0.000 A 
ATOM      4  C   UNL     1       2.196   5.211  19.256  0.00  0.00    +0.000 A 
ATOM      5  C   UNL     1       1.112   4.793  20.072  0.00  0.00    +0.000 A 
ATOM      6  C   UNL     1       0.833   3.442  20.281  0.00  0.00    +0.000 A 
ATOM      7  C   UNL     1       1.626   2.479  19.679  0.00  0.00    +0.000 A 
ATOM      8  C   UNL     1       2.682   2.874  18.859  0.00  0.00    +0.000 A 
ATOM      9  C   UNL     1       2.977   4.214  18.629  0.00  0.00    +0.000 A 
ATOM     10  N   UNL     1       4.006   4.492  17.813  0.00  0.00    +0.000 NA
ENDROOT
BRANCH   1  11
ATOM     11  C   UNL     1       5.452   6.027  16.592  0.00  0.00    +0.000 C 
BRANCH  11  12
ATOM     12  C   UNL     1       6.565   6.813  17.233  0.00  0.00    +0.000 C 
ATOM     13  O   UNL     1       7.245   7.672  16.678  0.00  0.00    +0.000 OA
BRANCH  12  14
ATOM     14  O   UNL     1       6.774   6.377  18.511  0.00  0.00    +0.000 OA
BRANCH  14  16
ATOM     15  C   UNL     1       8.246   5.437  20.124  0.00  0.00    +0.000 C 
ATOM     16  C   UNL     1       8.148   6.358  18.920  0.00  0.00    +0.000 C 
ENDBRANCH  14  16
ENDBRANCH  12  14
ENDBRANCH  11  12
BRANCH  11  17
ATOM     17  C   UNL     1       5.949   4.782  15.922  0.00  0.00    +0.000 C 
ATOM     18  O   UNL     1       6.771   4.007  16.397  0.00  0.00    +0.000 OA
BRANCH  17  19
ATOM     19  O   UNL     1       5.456   4.695  14.651  0.00  0.00    +0.000 OA
BRANCH  19  20
ATOM     20  C   UNL     1       6.373   4.226  13.653  0.00  0.00    +0.000 C 
ATOM     21  C   UNL     1       5.583   3.443  12.619  0.00  0.00    +0.000 C 
ENDBRANCH  19  20
ENDBRANCH  17  19
ENDBRANCH  11  17
ENDBRANCH   1  11
BRANCH   3  22
ATOM     22  C   UNL     1       1.886   7.750  19.671  0.00  0.00    +0.000 C 
BRANCH  22  23
ATOM     23  N   UNL     1       1.390   8.717  18.691  0.00  0.00    +0.000 NA
ATOM     24  H   UNL     1       0.727   8.384  17.991  0.00  0.00    +0.000 HD
BRANCH  23  25
ATOM     25  S   UNL     1       0.989  10.243  19.270  0.00  0.00    +0.000 S 
ATOM     26  O   UNL     1       0.897  10.133  20.709  0.00  0.00    +0.000 OA
ATOM     27  O   UNL     1       1.896  11.189  18.654  0.00  0.00    +0.000 OA
BRANCH  25  28
ATOM     28  C   UNL     1      -0.655  10.522  18.626  0.00  0.00    +0.000 A 
ATOM     29  C   UNL     1      -1.069   9.722  17.548  0.00  0.00    +0.000 A 
ATOM     30  C   UNL     1      -2.311   9.933  16.947  0.00  0.00    +0.000 A 
ATOM     31  C   UNL     1      -3.157  10.942  17.411  0.00  0.00    +0.000 A 
ATOM     32  C   UNL     1      -4.479  11.210  16.752  0.00  0.00    +0.000 C 
ATOM     33  C   UNL     1      -2.744  11.730  18.495  0.00  0.00    +0.000 A 
ATOM     34  C   UNL     1      -1.492  11.540  19.117  0.00  0.00    +0.000 A 
ATOM     35  C   UNL     1      -1.126  12.433  20.269  0.00  0.00    +0.000 C 
ENDBRANCH  25  28
ENDBRANCH  23  25
ENDBRANCH  22  23
ENDBRANCH   3  22
TORSDOF 11
ENDMDL
