MODEL 1
REMARK VINA RESULT:      -7.8      0.000      0.000
REMARK  Name = 
REMARK  6 active torsions:
REMARK  status: ('A' for Active; 'I' for Inactive)
REMARK    1  A    between atoms: C_1  and  C_2
REMARK    2  A    between atoms: C_8  and  C_9
REMARK    3  A    between atoms: C_20  and  O_21
REMARK    4  A    between atoms: O_21  and  C_22
REMARK    5  A    between atoms: C_22  and  C_23
REMARK    6  A    between atoms: C_28  and  C_29
REMARK                            x       y       z     vdW  Elec       q    Type
REMARK                         _______ _______ _______ _____ _____    ______ ____
ROOT
ATOM      1  C   UNL     1       1.769  11.374  19.631  0.00  0.00    +0.000 C 
ATOM      2  C   UNL     1       0.901  10.125  19.490  0.00  0.00    +0.000 C 
ATOM      3  C   UNL     1      -0.605  10.431  19.689  0.00  0.00    +0.000 C 
ATOM      4  N   UNL     1      -0.915  10.701  21.094  0.00  0.00    +0.000 N 
ATOM      5  C   UNL     1      -1.365  11.905  21.493  0.00  0.00    +0.000 A 
ATOM      6  N   UNL     1      -1.653  12.964  20.718  0.00  0.00    +0.000 NA
ATOM      7  O   UNL     1      -2.056  13.944  21.615  0.00  0.00    +0.000 OA
ATOM      8  C   UNL     1      -1.978  13.388  22.856  0.00  0.00    +0.000 A 
ATOM      9  N   UNL     1      -1.571  12.135  22.827  0.00  0.00    +0.000 NA
ATOM     10  C   UNL     1      -0.506   9.653  22.036  0.00  0.00    +0.000 C 
ATOM     11  C   UNL     1       0.980   9.263  21.855  0.00  0.00    +0.000 C 
ATOM     12  N   UNL     1       1.349   9.095  20.445  0.00  0.00    +0.000 N 
ATOM     13  C   UNL     1       1.766   7.880  19.950  0.00  0.00    +0.000 A 
ATOM     14  N   UNL     1       1.805   6.809  20.756  0.00  0.00    +0.000 NA
ATOM     15  C   UNL     1       2.205   5.631  20.216  0.00  0.00    +0.000 A 
ATOM     16  C   UNL     1       2.574   5.468  18.902  0.00  0.00    +0.000 A 
ATOM     17  C   UNL     1       2.539   6.626  18.169  0.00  0.00    +0.000 A 
ATOM     18  N   UNL     1       2.134   7.815  18.661  0.00  0.00    +0.000 NA
ENDROOT
BRANCH   8  19
ATOM     19  C   UNL     1      -2.313  14.273  23.995  0.00  0.00    +0.000 C 
ATOM     20  F   UNL     1      -3.230  13.730  24.840  0.00  0.00    +0.000 F 
ATOM     21  F   UNL     1      -1.224  14.576  24.755  0.00  0.00    +0.000 F 
ATOM     22  F   UNL     1      -2.835  15.459  23.578  0.00  0.00    +0.000 F 
ENDBRANCH   8  19
BRANCH  16  23
ATOM     23  O   UNL     1       3.009   4.331  18.293  0.00  0.00    +0.000 OA
BRANCH  23  24
ATOM     24  C   UNL     1       4.370   3.977  18.544  0.00  0.00    +0.000 C 
BRANCH  24  25
ATOM     25  C   UNL     1       5.225   4.510  17.412  0.00  0.00    +0.000 A 
ATOM     26  C   UNL     1       4.778   4.385  16.087  0.00  0.00    +0.000 A 
ATOM     27  C   UNL     1       5.582   4.853  15.058  0.00  0.00    +0.000 A 
ATOM     28  N   UNL     1       6.780   5.442  15.251  0.00  0.00    +0.000 NA
ATOM     29  C   UNL     1       7.192   5.570  16.533  0.00  0.00    +0.000 A 
ATOM     30  C   UNL     1       6.462   5.135  17.634  0.00  0.00    +0.000 A 
BRANCH  30  31
ATOM     31  C   UNL     1       6.997   5.348  18.944  0.00  0.00    +0.000 C 
ATOM     32  N   UNL     1       7.425   5.537  20.006  0.00  0.00    +0.000 NA
ENDBRANCH  30  31
ENDBRANCH  24  25
ENDBRANCH  23  24
ENDBRANCH  16  23
TORSDOF 5
ENDMDL
MODEL 2
REMARK VINA RESULT:      -7.4      2.078      3.268
REMARK  Name = 
REMARK  6 active torsions:
REMARK  status: ('A' for Active; 'I' for Inactive)
REMARK    1  A    between atoms: C_1  and  C_2
REMARK    2  A    between atoms: C_8  and  C_9
REMARK    3  A    between atoms: C_20  and  O_21
REMARK    4  A    between atoms: O_21  and  C_22
REMARK    5  A    between atoms: C_22  and  C_23
REMARK    6  A    between atoms: C_28  and  C_29
REMARK                            x       y       z     vdW  Elec       q    Type
REMARK                         _______ _______ _______ _____ _____    ______ ____
ROOT
ATOM      1  C   UNL     1       0.181  13.531  19.453  0.00  0.00    +0.000 C 
ATOM      2  C   UNL     1      -0.434  12.132  19.418  0.00  0.00    +0.000 C 
ATOM      3  C   UNL     1      -1.943  12.145  19.770  0.00  0.00    +0.000 C 
ATOM      4  N   UNL     1      -2.158  12.393  21.196  0.00  0.00    +0.000 N 
ATOM      5  C   UNL     1      -2.794  13.498  21.628  0.00  0.00    +0.000 A 
ATOM      6  N   UNL     1      -3.361  14.456  20.875  0.00  0.00    +0.000 NA
ATOM      7  O   UNL     1      -3.858  15.367  21.798  0.00  0.00    +0.000 OA
ATOM      8  C   UNL     1      -3.547  14.876  23.031  0.00  0.00    +0.000 A 
ATOM      9  N   UNL     1      -2.906  13.725  22.973  0.00  0.00    +0.000 NA
ATOM     10  C   UNL     1      -1.457  11.475  22.102  0.00  0.00    +0.000 C 
ATOM     11  C   UNL     1       0.050  11.376  21.771  0.00  0.00    +0.000 C 
ATOM     12  N   UNL     1       0.302  11.240  20.332  0.00  0.00    +0.000 N 
ATOM     13  C   UNL     1       0.899  10.115  19.810  0.00  0.00    +0.000 A 
ATOM     14  N   UNL     1       1.228   9.097  20.619  0.00  0.00    +0.000 NA
ATOM     15  C   UNL     1       1.797   8.003  20.053  0.00  0.00    +0.000 A 
ATOM     16  C   UNL     1       2.057   7.875  18.709  0.00  0.00    +0.000 A 
ATOM     17  C   UNL     1       1.721   8.980  17.972  0.00  0.00    +0.000 A 
ATOM     18  N   UNL     1       1.141  10.082  18.490  0.00  0.00    +0.000 NA
ENDROOT
BRANCH   8  19
ATOM     19  C   UNL     1      -3.934  15.713  24.188  0.00  0.00    +0.000 C 
ATOM     20  F   UNL     1      -5.279  15.761  24.386  0.00  0.00    +0.000 F 
ATOM     21  F   UNL     1      -3.391  15.269  25.355  0.00  0.00    +0.000 F 
ATOM     22  F   UNL     1      -3.525  17.003  24.039  0.00  0.00    +0.000 F 
ENDBRANCH   8  19
BRANCH  16  23
ATOM     23  O   UNL     1       2.644   6.826  18.071  0.00  0.00    +0.000 OA
BRANCH  23  24
ATOM     24  C   UNL     1       3.329   5.896  18.911  0.00  0.00    +0.000 C 
BRANCH  24  25
ATOM     25  C   UNL     1       2.663   4.542  18.778  0.00  0.00    +0.000 A 
ATOM     26  C   UNL     1       1.548   4.237  19.576  0.00  0.00    +0.000 A 
ATOM     27  C   UNL     1       0.962   2.984  19.465  0.00  0.00    +0.000 A 
ATOM     28  N   UNL     1       1.394   2.028  18.617  0.00  0.00    +0.000 NA
ATOM     29  C   UNL     1       2.459   2.340  17.844  0.00  0.00    +0.000 A 
ATOM     30  C   UNL     1       3.116   3.564  17.878  0.00  0.00    +0.000 A 
BRANCH  30  31
ATOM     31  C   UNL     1       4.219   3.781  16.993  0.00  0.00    +0.000 C 
ATOM     32  N   UNL     1       5.120   3.941  16.279  0.00  0.00    +0.000 NA
ENDBRANCH  30  31
ENDBRANCH  24  25
ENDBRANCH  23  24
ENDBRANCH  16  23
TORSDOF 5
ENDMDL
MODEL 3
REMARK VINA RESULT:      -7.3      2.520      3.550
REMARK  Name = 
REMARK  6 active torsions:
REMARK  status: ('A' for Active; 'I' for Inactive)
REMARK    1  A    between atoms: C_1  and  C_2
REMARK    2  A    between atoms: C_8  and  C_9
REMARK    3  A    between atoms: C_20  and  O_21
REMARK    4  A    between atoms: O_21  and  C_22
REMARK    5  A    between atoms: C_22  and  C_23
REMARK    6  A    between atoms: C_28  and  C_29
REMARK                            x       y       z     vdW  Elec       q    Type
REMARK                         _______ _______ _______ _____ _____    ______ ____
ROOT
ATOM      1  C   UNL     1      -0.372  13.794  19.882  0.00  0.00    +0.000 C 
ATOM      2  C   UNL     1      -0.944  12.378  19.945  0.00  0.00    +0.000 C 
ATOM      3  C   UNL     1      -2.476  12.374  20.169  0.00  0.00    +0.000 C 
ATOM      4  N   UNL     1      -2.817  12.759  21.540  0.00  0.00    +0.000 N 
ATOM      5  C   UNL     1      -3.517  13.880  21.799  0.00  0.00    +0.000 A 
ATOM      6  N   UNL     1      -4.044  14.735  20.907  0.00  0.00    +0.000 NA
ATOM      7  O   UNL     1      -4.640  15.717  21.686  0.00  0.00    +0.000 OA
ATOM      8  C   UNL     1      -4.421  15.367  22.984  0.00  0.00    +0.000 A 
ATOM      9  N   UNL     1      -3.748  14.240  23.100  0.00  0.00    +0.000 NA
ATOM     10  C   UNL     1      -2.172  11.964  22.591  0.00  0.00    +0.000 C 
ATOM     11  C   UNL     1      -0.639  11.885  22.396  0.00  0.00    +0.000 C 
ATOM     12  N   UNL     1      -0.264  11.611  21.004  0.00  0.00    +0.000 N 
ATOM     13  C   UNL     1       0.404  10.460  20.653  0.00  0.00    +0.000 A 
ATOM     14  N   UNL     1       0.692   9.543  21.589  0.00  0.00    +0.000 NA
ATOM     15  C   UNL     1       1.335   8.417  21.189  0.00  0.00    +0.000 A 
ATOM     16  C   UNL     1       1.711   8.161  19.891  0.00  0.00    +0.000 A 
ATOM     17  C   UNL     1       1.408   9.172  19.017  0.00  0.00    +0.000 A 
ATOM     18  N   UNL     1       0.758  10.300  19.367  0.00  0.00    +0.000 NA
ENDROOT
BRANCH   8  19
ATOM     19  C   UNL     1      -4.927  16.305  24.012  0.00  0.00    +0.000 C 
ATOM     20  F   UNL     1      -6.246  16.126  24.294  0.00  0.00    +0.000 F 
ATOM     21  F   UNL     1      -4.262  16.186  25.194  0.00  0.00    +0.000 F 
ATOM     22  F   UNL     1      -4.793  17.602  23.623  0.00  0.00    +0.000 F 
ENDBRANCH   8  19
BRANCH  16  23
ATOM     23  O   UNL     1       2.377   7.074  19.417  0.00  0.00    +0.000 OA
BRANCH  23  24
ATOM     24  C   UNL     1       2.104   5.840  20.084  0.00  0.00    +0.000 C 
BRANCH  24  25
ATOM     25  C   UNL     1       2.692   4.707  19.268  0.00  0.00    +0.000 A 
ATOM     26  C   UNL     1       3.183   4.965  17.978  0.00  0.00    +0.000 A 
ATOM     27  C   UNL     1       3.695   3.915  17.230  0.00  0.00    +0.000 A 
ATOM     28  N   UNL     1       3.764   2.643  17.673  0.00  0.00    +0.000 NA
ATOM     29  C   UNL     1       3.302   2.411  18.923  0.00  0.00    +0.000 A 
ATOM     30  C   UNL     1       2.771   3.393  19.753  0.00  0.00    +0.000 A 
BRANCH  30  31
ATOM     31  C   UNL     1       2.335   3.025  21.066  0.00  0.00    +0.000 C 
ATOM     32  N   UNL     1       1.972   2.715  22.123  0.00  0.00    +0.000 NA
ENDBRANCH  30  31
ENDBRANCH  24  25
ENDBRANCH  23  24
ENDBRANCH  16  23
TORSDOF 5
ENDMDL
MODEL 4
REMARK VINA RESULT:      -7.3      2.310      3.492
REMARK  Name = 
REMARK  6 active torsions:
REMARK  status: ('A' for Active; 'I' for Inactive)
REMARK    1  A    between atoms: C_1  and  C_2
REMARK    2  A    between atoms: C_8  and  C_9
REMARK    3  A    between atoms: C_20  and  O_21
REMARK    4  A    between atoms: O_21  and  C_22
REMARK    5  A    between atoms: C_22  and  C_23
REMARK    6  A    between atoms: C_28  and  C_29
REMARK                            x       y       z     vdW  Elec       q    Type
REMARK                         _______ _______ _______ _____ _____    ______ ____
ROOT
ATOM      1  C   UNL     1      -0.626  13.812  19.830  0.00  0.00    +0.000 C 
ATOM      2  C   UNL     1      -1.142  12.382  19.986  0.00  0.00    +0.000 C 
ATOM      3  C   UNL     1      -2.669  12.334  20.241  0.00  0.00    +0.000 C 
ATOM      4  N   UNL     1      -3.000  12.786  21.594  0.00  0.00    +0.000 N 
ATOM      5  C   UNL     1      -3.737  13.893  21.802  0.00  0.00    +0.000 A 
ATOM      6  N   UNL     1      -4.312  14.674  20.873  0.00  0.00    +0.000 NA
ATOM      7  O   UNL     1      -4.932  15.678  21.605  0.00  0.00    +0.000 OA
ATOM      8  C   UNL     1      -4.676  15.412  22.917  0.00  0.00    +0.000 A 
ATOM      9  N   UNL     1      -3.958  14.319  23.085  0.00  0.00    +0.000 NA
ATOM     10  C   UNL     1      -2.306  12.078  22.676  0.00  0.00    +0.000 C 
ATOM     11  C   UNL     1      -0.775  12.045  22.454  0.00  0.00    +0.000 C 
ATOM     12  N   UNL     1      -0.414  11.704  21.073  0.00  0.00    +0.000 N 
ATOM     13  C   UNL     1       0.291  10.560  20.776  0.00  0.00    +0.000 A 
ATOM     14  N   UNL     1       0.630   9.710  21.757  0.00  0.00    +0.000 NA
ATOM     15  C   UNL     1       1.308   8.588  21.410  0.00  0.00    +0.000 A 
ATOM     16  C   UNL     1       1.670   8.270  20.123  0.00  0.00    +0.000 A 
ATOM     17  C   UNL     1       1.314   9.216  19.197  0.00  0.00    +0.000 A 
ATOM     18  N   UNL     1       0.627  10.339  19.495  0.00  0.00    +0.000 NA
ENDROOT
BRANCH   8  19
ATOM     19  C   UNL     1      -5.199  16.389  23.899  0.00  0.00    +0.000 C 
ATOM     20  F   UNL     1      -5.111  17.676  23.468  0.00  0.00    +0.000 F 
ATOM     21  F   UNL     1      -6.509  16.174  24.199  0.00  0.00    +0.000 F 
ATOM     22  F   UNL     1      -4.519  16.335  25.077  0.00  0.00    +0.000 F 
ENDBRANCH   8  19
BRANCH  16  23
ATOM     23  O   UNL     1       2.369   7.183  19.698  0.00  0.00    +0.000 OA
BRANCH  23  24
ATOM     24  C   UNL     1       2.428   6.998  18.283  0.00  0.00    +0.000 C 
BRANCH  24  25
ATOM     25  C   UNL     1       2.773   5.551  17.997  0.00  0.00    +0.000 A 
ATOM     26  C   UNL     1       1.881   4.537  18.383  0.00  0.00    +0.000 A 
ATOM     27  C   UNL     1       2.219   3.214  18.139  0.00  0.00    +0.000 A 
ATOM     28  N   UNL     1       3.364   2.832  17.536  0.00  0.00    +0.000 NA
ATOM     29  C   UNL     1       4.206   3.819  17.156  0.00  0.00    +0.000 A 
ATOM     30  C   UNL     1       3.961   5.173  17.352  0.00  0.00    +0.000 A 
BRANCH  30  31
ATOM     31  C   UNL     1       4.922   6.125  16.885  0.00  0.00    +0.000 C 
ATOM     32  N   UNL     1       5.689   6.906  16.500  0.00  0.00    +0.000 NA
ENDBRANCH  30  31
ENDBRANCH  24  25
ENDBRANCH  23  24
ENDBRANCH  16  23
TORSDOF 5
ENDMDL
MODEL 5
REMARK VINA RESULT:      -7.3      1.981      3.119
REMARK  Name = 
REMARK  6 active torsions:
REMARK  status: ('A' for Active; 'I' for Inactive)
REMARK    1  A    between atoms: C_1  and  C_2
REMARK    2  A    between atoms: C_8  and  C_9
REMARK    3  A    between atoms: C_20  and  O_21
REMARK    4  A    between atoms: O_21  and  C_22
REMARK    5  A    between atoms: C_22  and  C_23
REMARK    6  A    between atoms: C_28  and  C_29
REMARK                            x       y       z     vdW  Elec       q    Type
REMARK                         _______ _______ _______ _____ _____    ______ ____
ROOT
ATOM      1  C   UNL     1       0.825  12.558  18.996  0.00  0.00    +0.000 C 
ATOM      2  C   UNL     1       0.157  11.186  19.093  0.00  0.00    +0.000 C 
ATOM      3  C   UNL     1      -1.329  11.286  19.519  0.00  0.00    +0.000 C 
ATOM      4  N   UNL     1      -1.456  11.641  20.934  0.00  0.00    +0.000 N 
ATOM      5  C   UNL     1      -2.026  12.799  21.317  0.00  0.00    +0.000 A 
ATOM      6  N   UNL     1      -2.597  13.725  20.528  0.00  0.00    +0.000 NA
ATOM      7  O   UNL     1      -3.009  14.717  21.408  0.00  0.00    +0.000 OA
ATOM      8  C   UNL     1      -2.650  14.300  22.655  0.00  0.00    +0.000 A 
ATOM      9  N   UNL     1      -2.057  13.123  22.647  0.00  0.00    +0.000 NA
ATOM     10  C   UNL     1      -0.743  10.760  21.866  0.00  0.00    +0.000 C 
ATOM     11  C   UNL     1       0.740  10.577  21.466  0.00  0.00    +0.000 C 
ATOM     12  N   UNL     1       0.908  10.331  20.029  0.00  0.00    +0.000 N 
ATOM     13  C   UNL     1       1.433   9.148  19.558  0.00  0.00    +0.000 A 
ATOM     14  N   UNL     1       1.768   8.177  20.420  0.00  0.00    +0.000 NA
ATOM     15  C   UNL     1       2.263   7.024  19.906  0.00  0.00    +0.000 A 
ATOM     16  C   UNL     1       2.445   6.791  18.563  0.00  0.00    +0.000 A 
ATOM     17  C   UNL     1       2.111   7.855  17.766  0.00  0.00    +0.000 A 
ATOM     18  N   UNL     1       1.602   9.014  18.233  0.00  0.00    +0.000 NA
ENDROOT
BRANCH   8  19
ATOM     19  C   UNL     1      -2.942  15.232  23.768  0.00  0.00    +0.000 C 
ATOM     20  F   UNL     1      -1.849  15.513  24.527  0.00  0.00    +0.000 F 
ATOM     21  F   UNL     1      -3.424  16.428  23.331  0.00  0.00    +0.000 F 
ATOM     22  F   UNL     1      -3.877  14.727  24.618  0.00  0.00    +0.000 F 
ENDBRANCH   8  19
BRANCH  16  23
ATOM     23  O   UNL     1       2.957   5.678  17.972  0.00  0.00    +0.000 OA
BRANCH  23  24
ATOM     24  C   UNL     1       2.089   4.544  17.930  0.00  0.00    +0.000 C 
BRANCH  24  25
ATOM     25  C   UNL     1       2.167   3.825  19.261  0.00  0.00    +0.000 A 
ATOM     26  C   UNL     1       0.986   3.541  19.966  0.00  0.00    +0.000 A 
ATOM     27  C   UNL     1       1.072   2.905  21.196  0.00  0.00    +0.000 A 
ATOM     28  N   UNL     1       2.235   2.524  21.763  0.00  0.00    +0.000 NA
ATOM     29  C   UNL     1       3.364   2.789  21.066  0.00  0.00    +0.000 A 
ATOM     30  C   UNL     1       3.386   3.420  19.827  0.00  0.00    +0.000 A 
BRANCH  30  31
ATOM     31  C   UNL     1       4.645   3.625  19.179  0.00  0.00    +0.000 C 
ATOM     32  N   UNL     1       5.663   3.808  18.654  0.00  0.00    +0.000 NA
ENDBRANCH  30  31
ENDBRANCH  24  25
ENDBRANCH  23  24
ENDBRANCH  16  23
TORSDOF 5
ENDMDL
MODEL 6
REMARK VINA RESULT:      -7.3      1.037      1.988
REMARK  Name = 
REMARK  6 active torsions:
REMARK  status: ('A' for Active; 'I' for Inactive)
REMARK    1  A    between atoms: C_1  and  C_2
REMARK    2  A    between atoms: C_8  and  C_9
REMARK    3  A    between atoms: C_20  and  O_21
REMARK    4  A    between atoms: O_21  and  C_22
REMARK    5  A    between atoms: C_22  and  C_23
REMARK    6  A    between atoms: C_28  and  C_29
REMARK                            x       y       z     vdW  Elec       q    Type
REMARK                         _______ _______ _______ _____ _____    ______ ____
ROOT
ATOM      1  C   UNL     1       1.453  12.037  19.099  0.00  0.00    +0.000 C 
ATOM      2  C   UNL     1       0.646  10.739  19.075  0.00  0.00    +0.000 C 
ATOM      3  C   UNL     1      -0.869  10.986  19.282  0.00  0.00    +0.000 C 
ATOM      4  N   UNL     1      -1.167  11.350  20.669  0.00  0.00    +0.000 N 
ATOM      5  C   UNL     1      -1.669  12.559  20.984  0.00  0.00    +0.000 A 
ATOM      6  N   UNL     1      -2.024  13.539  20.136  0.00  0.00    +0.000 NA
ATOM      7  O   UNL     1      -2.460  14.565  20.963  0.00  0.00    +0.000 OA
ATOM      8  C   UNL     1      -2.330  14.113  22.242  0.00  0.00    +0.000 A 
ATOM      9  N   UNL     1      -1.862  12.882  22.301  0.00  0.00    +0.000 NA
ATOM     10  C   UNL     1      -0.688  10.401  21.680  0.00  0.00    +0.000 C 
ATOM     11  C   UNL     1       0.812  10.070  21.497  0.00  0.00    +0.000 C 
ATOM     12  N   UNL     1       1.163   9.811  20.096  0.00  0.00    +0.000 N 
ATOM     13  C   UNL     1       1.631   8.582  19.688  0.00  0.00    +0.000 A 
ATOM     14  N   UNL     1       1.738   7.580  20.573  0.00  0.00    +0.000 NA
ATOM     15  C   UNL     1       2.187   6.384  20.117  0.00  0.00    +0.000 A 
ATOM     16  C   UNL     1       2.540   6.137  18.811  0.00  0.00    +0.000 A 
ATOM     17  C   UNL     1       2.433   7.231  17.992  0.00  0.00    +0.000 A 
ATOM     18  N   UNL     1       1.979   8.434  18.399  0.00  0.00    +0.000 NA
ENDROOT
BRANCH   8  19
ATOM     19  C   UNL     1      -2.689  15.067  23.316  0.00  0.00    +0.000 C 
ATOM     20  F   UNL     1      -2.169  14.726  24.526  0.00  0.00    +0.000 F 
ATOM     21  F   UNL     1      -2.253  16.330  23.054  0.00  0.00    +0.000 F 
ATOM     22  F   UNL     1      -4.036  15.151  23.489  0.00  0.00    +0.000 F 
ENDBRANCH   8  19
BRANCH  16  23
ATOM     23  O   UNL     1       3.020   4.979  18.283  0.00  0.00    +0.000 OA
BRANCH  23  24
ATOM     24  C   UNL     1       3.919   5.126  17.183  0.00  0.00    +0.000 C 
BRANCH  24  25
ATOM     25  C   UNL     1       5.339   5.033  17.701  0.00  0.00    +0.000 A 
ATOM     26  C   UNL     1       5.619   5.404  19.026  0.00  0.00    +0.000 A 
ATOM     27  C   UNL     1       6.928   5.340  19.482  0.00  0.00    +0.000 A 
ATOM     28  N   UNL     1       7.965   4.926  18.726  0.00  0.00    +0.000 NA
ATOM     29  C   UNL     1       7.679   4.557  17.456  0.00  0.00    +0.000 A 
ATOM     30  C   UNL     1       6.404   4.584  16.904  0.00  0.00    +0.000 A 
BRANCH  30  31
ATOM     31  C   UNL     1       6.227   4.147  15.553  0.00  0.00    +0.000 C 
ATOM     32  N   UNL     1       6.100   3.795  14.455  0.00  0.00    +0.000 NA
ENDBRANCH  30  31
ENDBRANCH  24  25
ENDBRANCH  23  24
ENDBRANCH  16  23
TORSDOF 5
ENDMDL
MODEL 7
REMARK VINA RESULT:      -7.2      2.273      3.705
REMARK  Name = 
REMARK  6 active torsions:
REMARK  status: ('A' for Active; 'I' for Inactive)
REMARK    1  A    between atoms: C_1  and  C_2
REMARK    2  A    between atoms: C_8  and  C_9
REMARK    3  A    between atoms: C_20  and  O_21
REMARK    4  A    between atoms: O_21  and  C_22
REMARK    5  A    between atoms: C_22  and  C_23
REMARK    6  A    between atoms: C_28  and  C_29
REMARK                            x       y       z     vdW  Elec       q    Type
REMARK                         _______ _______ _______ _____ _____    ______ ____
ROOT
ATOM      1  C   UNL     1      -0.367  13.834  19.743  0.00  0.00    +0.000 C 
ATOM      2  C   UNL     1      -0.926  12.411  19.760  0.00  0.00    +0.000 C 
ATOM      3  C   UNL     1      -2.449  12.383  20.042  0.00  0.00    +0.000 C 
ATOM      4  N   UNL     1      -2.740  12.699  21.441  0.00  0.00    +0.000 N 
ATOM      5  C   UNL     1      -3.437  13.800  21.781  0.00  0.00    +0.000 A 
ATOM      6  N   UNL     1      -4.004  14.692  20.951  0.00  0.00    +0.000 NA
ATOM      7  O   UNL     1      -4.577  15.631  21.798  0.00  0.00    +0.000 OA
ATOM      8  C   UNL     1      -4.306  15.220  23.069  0.00  0.00    +0.000 A 
ATOM      9  N   UNL     1      -3.621  14.095  23.105  0.00  0.00    +0.000 NA
ATOM     10  C   UNL     1      -2.049  11.861  22.428  0.00  0.00    +0.000 C 
ATOM     11  C   UNL     1      -0.525  11.805  22.171  0.00  0.00    +0.000 C 
ATOM     12  N   UNL     1      -0.201  11.601  20.754  0.00  0.00    +0.000 N 
ATOM     13  C   UNL     1       0.462  10.474  20.323  0.00  0.00    +0.000 A 
ATOM     14  N   UNL     1       0.791   9.516  21.202  0.00  0.00    +0.000 NA
ATOM     15  C   UNL     1       1.427   8.417  20.725  0.00  0.00    +0.000 A 
ATOM     16  C   UNL     1       1.754   8.226  19.403  0.00  0.00    +0.000 A 
ATOM     17  C   UNL     1       1.411   9.275  18.590  0.00  0.00    +0.000 A 
ATOM     18  N   UNL     1       0.767  10.379  19.019  0.00  0.00    +0.000 NA
ENDROOT
BRANCH   8  19
ATOM     19  C   UNL     1      -4.779  16.103  24.159  0.00  0.00    +0.000 C 
ATOM     20  F   UNL     1      -4.032  15.997  25.292  0.00  0.00    +0.000 F 
ATOM     21  F   UNL     1      -4.756  17.419  23.808  0.00  0.00    +0.000 F 
ATOM     22  F   UNL     1      -6.060  15.822  24.520  0.00  0.00    +0.000 F 
ENDBRANCH   8  19
BRANCH  16  23
ATOM     23  O   UNL     1       2.410   7.169  18.852  0.00  0.00    +0.000 OA
BRANCH  23  24
ATOM     24  C   UNL     1       2.842   6.162  19.769  0.00  0.00    +0.000 C 
BRANCH  24  25
ATOM     25  C   UNL     1       2.286   4.826  19.319  0.00  0.00    +0.000 A 
ATOM     26  C   UNL     1       1.252   4.223  20.052  0.00  0.00    +0.000 A 
ATOM     27  C   UNL     1       0.770   2.988  19.646  0.00  0.00    +0.000 A 
ATOM     28  N   UNL     1       1.229   2.322  18.567  0.00  0.00    +0.000 NA
ATOM     29  C   UNL     1       2.214   2.921  17.860  0.00  0.00    +0.000 A 
ATOM     30  C   UNL     1       2.765   4.156  18.182  0.00  0.00    +0.000 A 
BRANCH  30  31
ATOM     31  C   UNL     1       3.790   4.696  17.342  0.00  0.00    +0.000 C 
ATOM     32  N   UNL     1       4.630   5.137  16.674  0.00  0.00    +0.000 NA
ENDBRANCH  30  31
ENDBRANCH  24  25
ENDBRANCH  23  24
ENDBRANCH  16  23
TORSDOF 5
ENDMDL
MODEL 8
REMARK VINA RESULT:      -7.2      2.169      3.315
REMARK  Name = 
REMARK  6 active torsions:
REMARK  status: ('A' for Active; 'I' for Inactive)
REMARK    1  A    between atoms: C_1  and  C_2
REMARK    2  A    between atoms: C_8  and  C_9
REMARK    3  A    between atoms: C_20  and  O_21
REMARK    4  A    between atoms: O_21  and  C_22
REMARK    5  A    between atoms: C_22  and  C_23
REMARK    6  A    between atoms: C_28  and  C_29
REMARK                            x       y       z     vdW  Elec       q    Type
REMARK                         _______ _______ _______ _____ _____    ______ ____
ROOT
ATOM      1  C   UNL     1      -0.451  13.771  19.835  0.00  0.00    +0.000 C 
ATOM      2  C   UNL     1      -0.992  12.345  19.937  0.00  0.00    +0.000 C 
ATOM      3  C   UNL     1      -2.517  12.315  20.210  0.00  0.00    +0.000 C 
ATOM      4  N   UNL     1      -2.823  12.716  21.584  0.00  0.00    +0.000 N 
ATOM      5  C   UNL     1      -3.536  13.827  21.848  0.00  0.00    +0.000 A 
ATOM      6  N   UNL     1      -4.107  14.657  20.959  0.00  0.00    +0.000 NA
ATOM      7  O   UNL     1      -4.699  15.641  21.740  0.00  0.00    +0.000 OA
ATOM      8  C   UNL     1      -4.433  15.315  23.037  0.00  0.00    +0.000 A 
ATOM      9  N   UNL     1      -3.734  14.204  23.149  0.00  0.00    +0.000 NA
ATOM     10  C   UNL     1      -2.130  11.951  22.627  0.00  0.00    +0.000 C 
ATOM     11  C   UNL     1      -0.603  11.899  22.385  0.00  0.00    +0.000 C 
ATOM     12  N   UNL     1      -0.265  11.609  20.987  0.00  0.00    +0.000 N 
ATOM     13  C   UNL     1       0.415  10.465  20.633  0.00  0.00    +0.000 A 
ATOM     14  N   UNL     1       0.749   9.570  21.574  0.00  0.00    +0.000 NA
ATOM     15  C   UNL     1       1.401   8.450  21.172  0.00  0.00    +0.000 A 
ATOM     16  C   UNL     1       1.742   8.180  19.868  0.00  0.00    +0.000 A 
ATOM     17  C   UNL     1       1.393   9.170  18.987  0.00  0.00    +0.000 A 
ATOM     18  N   UNL     1       0.732  10.292  19.340  0.00  0.00    +0.000 NA
ENDROOT
BRANCH   8  19
ATOM     19  C   UNL     1      -4.925  16.260  24.065  0.00  0.00    +0.000 C 
ATOM     20  F   UNL     1      -4.222  16.195  25.228  0.00  0.00    +0.000 F 
ATOM     21  F   UNL     1      -4.862  17.556  23.652  0.00  0.00    +0.000 F 
ATOM     22  F   UNL     1      -6.224  16.022  24.391  0.00  0.00    +0.000 F 
ENDBRANCH   8  19
BRANCH  16  23
ATOM     23  O   UNL     1       2.415   7.098  19.390  0.00  0.00    +0.000 OA
BRANCH  23  24
ATOM     24  C   UNL     1       2.649   7.087  17.981  0.00  0.00    +0.000 C 
BRANCH  24  25
ATOM     25  C   UNL     1       3.776   6.120  17.684  0.00  0.00    +0.000 A 
ATOM     26  C   UNL     1       5.089   6.602  17.563  0.00  0.00    +0.000 A 
ATOM     27  C   UNL     1       6.109   5.711  17.265  0.00  0.00    +0.000 A 
ATOM     28  N   UNL     1       5.921   4.386  17.093  0.00  0.00    +0.000 NA
ATOM     29  C   UNL     1       4.654   3.932  17.228  0.00  0.00    +0.000 A 
ATOM     30  C   UNL     1       3.563   4.742  17.525  0.00  0.00    +0.000 A 
BRANCH  30  31
ATOM     31  C   UNL     1       2.273   4.138  17.664  0.00  0.00    +0.000 C 
ATOM     32  N   UNL     1       1.222   3.662  17.786  0.00  0.00    +0.000 NA
ENDBRANCH  30  31
ENDBRANCH  24  25
ENDBRANCH  23  24
ENDBRANCH  16  23
TORSDOF 5
ENDMDL
MODEL 9
REMARK VINA RESULT:      -7.2      1.308      2.201
REMARK  Name = 
REMARK  6 active torsions:
REMARK  status: ('A' for Active; 'I' for Inactive)
REMARK    1  A    between atoms: C_1  and  C_2
REMARK    2  A    between atoms: C_8  and  C_9
REMARK    3  A    between atoms: C_20  and  O_21
REMARK    4  A    between atoms: O_21  and  C_22
REMARK    5  A    between atoms: C_22  and  C_23
REMARK    6  A    between atoms: C_28  and  C_29
REMARK                            x       y       z     vdW  Elec       q    Type
REMARK                         _______ _______ _______ _____ _____    ______ ____
ROOT
ATOM      1  C   UNL     1       0.815  12.675  19.280  0.00  0.00    +0.000 C 
ATOM      2  C   UNL     1       0.162  11.295  19.217  0.00  0.00    +0.000 C 
ATOM      3  C   UNL     1      -1.352  11.348  19.538  0.00  0.00    +0.000 C 
ATOM      4  N   UNL     1      -1.590  11.587  20.962  0.00  0.00    +0.000 N 
ATOM      5  C   UNL     1      -2.203  12.706  21.393  0.00  0.00    +0.000 A 
ATOM      6  N   UNL     1      -2.727  13.687  20.639  0.00  0.00    +0.000 NA
ATOM      7  O   UNL     1      -3.217  14.602  21.562  0.00  0.00    +0.000 OA
ATOM      8  C   UNL     1      -2.945  14.089  22.795  0.00  0.00    +0.000 A 
ATOM      9  N   UNL     1      -2.336  12.922  22.738  0.00  0.00    +0.000 NA
ATOM     10  C   UNL     1      -0.935  10.640  21.872  0.00  0.00    +0.000 C 
ATOM     11  C   UNL     1       0.576  10.502  21.571  0.00  0.00    +0.000 C 
ATOM     12  N   UNL     1       0.854  10.373  20.136  0.00  0.00    +0.000 N 
ATOM     13  C   UNL     1       1.429   9.236  19.614  0.00  0.00    +0.000 A 
ATOM     14  N   UNL     1       1.712   8.202  20.418  0.00  0.00    +0.000 NA
ATOM     15  C   UNL     1       2.261   7.098  19.852  0.00  0.00    +0.000 A 
ATOM     16  C   UNL     1       2.546   6.976  18.513  0.00  0.00    +0.000 A 
ATOM     17  C   UNL     1       2.256   8.097  17.781  0.00  0.00    +0.000 A 
ATOM     18  N   UNL     1       1.698   9.211  18.299  0.00  0.00    +0.000 NA
ENDROOT
BRANCH   8  19
ATOM     19  C   UNL     1      -3.332  14.926  23.954  0.00  0.00    +0.000 C 
ATOM     20  F   UNL     1      -4.639  15.302  23.926  0.00  0.00    +0.000 F 
ATOM     21  F   UNL     1      -3.143  14.287  25.141  0.00  0.00    +0.000 F 
ATOM     22  F   UNL     1      -2.606  16.075  24.013  0.00  0.00    +0.000 F 
ENDBRANCH   8  19
BRANCH  16  23
ATOM     23  O   UNL     1       3.116   5.918  17.876  0.00  0.00    +0.000 OA
BRANCH  23  24
ATOM     24  C   UNL     1       4.162   6.238  16.958  0.00  0.00    +0.000 C 
BRANCH  24  25
ATOM     25  C   UNL     1       5.466   5.687  17.498  0.00  0.00    +0.000 A 
ATOM     26  C   UNL     1       5.824   5.936  18.833  0.00  0.00    +0.000 A 
ATOM     27  C   UNL     1       7.032   5.449  19.309  0.00  0.00    +0.000 A 
ATOM     28  N   UNL     1       7.895   4.729  18.563  0.00  0.00    +0.000 NA
ATOM     29  C   UNL     1       7.532   4.483  17.284  0.00  0.00    +0.000 A 
ATOM     30  C   UNL     1       6.344   4.925  16.712  0.00  0.00    +0.000 A 
BRANCH  30  31
ATOM     31  C   UNL     1       6.063   4.580  15.352  0.00  0.00    +0.000 C 
ATOM     32  N   UNL     1       5.843   4.286  14.251  0.00  0.00    +0.000 NA
ENDBRANCH  30  31
ENDBRANCH  24  25
ENDBRANCH  23  24
ENDBRANCH  16  23
TORSDOF 5
ENDMDL
