MODEL 1
REMARK VINA RESULT:      -7.3      0.000      0.000
REMARK  Name = 
REMARK  5 active torsions:
REMARK  status: ('A' for Active; 'I' for Inactive)
REMARK    1  A    between atoms: C_1  and  C_2
REMARK    2  A    between atoms: C_5  and  S_6
REMARK    3  A    between atoms: S_6  and  C_7
REMARK    4  A    between atoms: C_8  and  C_9
REMARK    5  A    between atoms: C_9  and  O_11
REMARK                            x       y       z     vdW  Elec       q    Type
REMARK                         _______ _______ _______ _____ _____    ______ ____
ROOT
ATOM      1  C   UNL     1       2.827   3.376  18.768  0.00  0.00    +0.000 C 
ATOM      2  C   UNL     1       3.251   2.592  19.788  0.00  0.00    +0.000 C 
ATOM      3  C   UNL     1       2.555   2.602  21.140  0.00  0.00    +0.000 C 
ATOM      4  C   UNL     1       1.211   3.327  21.164  0.00  0.00    +0.000 C 
ATOM      5  C   UNL     1       1.295   4.630  20.394  0.00  0.00    +0.000 C 
ATOM      6  C   UNL     1       1.676   4.358  18.941  0.00  0.00    +0.000 C 
ENDROOT
BRANCH   2   7
ATOM      7  C   UNL     1       4.393   1.622  19.778  0.00  0.00    +0.000 C 
ATOM      8  O   UNL     1       5.294   1.659  20.603  0.00  0.00    +0.000 OA
BRANCH   7   9
ATOM      9  O   UNL     1       4.419   0.757  18.750  0.00  0.00    +0.000 OA
ATOM     10  H   UNL     1       3.556   0.676  18.297  0.00  0.00    +0.000 HD
ENDBRANCH   7   9
ENDBRANCH   2   7
BRANCH   1  11
ATOM     11  S   UNL     1       3.599   3.437  17.197  0.00  0.00    +0.000 S 
BRANCH  11  16
ATOM     12  C   UNL     1       7.795   7.830  17.584  0.00  0.00    +0.000 C 
ATOM     13  C   UNL     1       6.731   6.772  17.594  0.00  0.00    +0.000 A 
ATOM     14  C   UNL     1       7.002   5.483  18.060  0.00  0.00    +0.000 A 
ATOM     15  C   UNL     1       6.029   4.483  17.991  0.00  0.00    +0.000 A 
ATOM     16  C   UNL     1       4.767   4.760  17.457  0.00  0.00    +0.000 A 
ATOM     17  C   UNL     1       4.482   6.052  17.011  0.00  0.00    +0.000 A 
ATOM     18  C   UNL     1       5.458   7.052  17.079  0.00  0.00    +0.000 A 
ENDBRANCH  11  16
ENDBRANCH   1  11
TORSDOF 4
ENDMDL
MODEL 2
REMARK VINA RESULT:      -7.3      0.688      1.359
REMARK  Name = 
REMARK  5 active torsions:
REMARK  status: ('A' for Active; 'I' for Inactive)
REMARK    1  A    between atoms: C_1  and  C_2
REMARK    2  A    between atoms: C_5  and  S_6
REMARK    3  A    between atoms: S_6  and  C_7
REMARK    4  A    between atoms: C_8  and  C_9
REMARK    5  A    between atoms: C_9  and  O_11
REMARK                            x       y       z     vdW  Elec       q    Type
REMARK                         _______ _______ _______ _____ _____    ______ ____
ROOT
ATOM      1  C   UNL     1       3.262   3.850  18.498  0.00  0.00    +0.000 C 
ATOM      2  C   UNL     1       3.427   3.016  19.552  0.00  0.00    +0.000 C 
ATOM      3  C   UNL     1       2.660   3.214  20.850  0.00  0.00    +0.000 C 
ATOM      4  C   UNL     1       1.515   4.221  20.771  0.00  0.00    +0.000 C 
ATOM      5  C   UNL     1       1.943   5.454  19.998  0.00  0.00    +0.000 C 
ATOM      6  C   UNL     1       2.351   5.068  18.579  0.00  0.00    +0.000 C 
ENDROOT
BRANCH   2   7
ATOM      7  C   UNL     1       4.320   1.814  19.633  0.00  0.00    +0.000 C 
ATOM      8  O   UNL     1       5.210   1.712  20.464  0.00  0.00    +0.000 OA
BRANCH   7   9
ATOM      9  O   UNL     1       4.144   0.887  18.676  0.00  0.00    +0.000 OA
ATOM     10  H   UNL     1       4.644   1.083  17.859  0.00  0.00    +0.000 HD
ENDBRANCH   7   9
ENDBRANCH   2   7
BRANCH   1  11
ATOM     11  S   UNL     1       4.133   3.699  16.987  0.00  0.00    +0.000 S 
BRANCH  11  16
ATOM     12  C   UNL     1       8.239   8.012  18.248  0.00  0.00    +0.000 C 
ATOM     13  C   UNL     1       7.287   6.924  17.847  0.00  0.00    +0.000 A 
ATOM     14  C   UNL     1       6.224   7.183  16.978  0.00  0.00    +0.000 A 
ATOM     15  C   UNL     1       5.296   6.184  16.672  0.00  0.00    +0.000 A 
ATOM     16  C   UNL     1       5.422   4.908  17.229  0.00  0.00    +0.000 A 
ATOM     17  C   UNL     1       6.496   4.636  18.080  0.00  0.00    +0.000 A 
ATOM     18  C   UNL     1       7.423   5.639  18.386  0.00  0.00    +0.000 A 
ENDBRANCH  11  16
ENDBRANCH   1  11
TORSDOF 4
ENDMDL
MODEL 3
REMARK VINA RESULT:      -7.2      1.907      2.563
REMARK  Name = 
REMARK  5 active torsions:
REMARK  status: ('A' for Active; 'I' for Inactive)
REMARK    1  A    between atoms: C_1  and  C_2
REMARK    2  A    between atoms: C_5  and  S_6
REMARK    3  A    between atoms: S_6  and  C_7
REMARK    4  A    between atoms: C_8  and  C_9
REMARK    5  A    between atoms: C_9  and  O_11
REMARK                            x       y       z     vdW  Elec       q    Type
REMARK                         _______ _______ _______ _____ _____    ______ ____
ROOT
ATOM      1  C   UNL     1       3.884   4.561  19.712  0.00  0.00    +0.000 C 
ATOM      2  C   UNL     1       3.538   3.279  19.982  0.00  0.00    +0.000 C 
ATOM      3  C   UNL     1       2.096   2.889  20.267  0.00  0.00    +0.000 C 
ATOM      4  C   UNL     1       1.065   3.970  19.951  0.00  0.00    +0.000 C 
ATOM      5  C   UNL     1       1.548   5.324  20.434  0.00  0.00    +0.000 C 
ATOM      6  C   UNL     1       2.861   5.688  19.747  0.00  0.00    +0.000 C 
ENDROOT
BRANCH   2   7
ATOM      7  C   UNL     1       4.439   2.082  20.031  0.00  0.00    +0.000 C 
ATOM      8  O   UNL     1       5.150   1.835  20.993  0.00  0.00    +0.000 OA
BRANCH   7   9
ATOM      9  O   UNL     1       4.488   1.339  18.913  0.00  0.00    +0.000 OA
ATOM     10  H   UNL     1       5.392   1.254  18.550  0.00  0.00    +0.000 HD
ENDBRANCH   7   9
ENDBRANCH   2   7
BRANCH   1  11
ATOM     11  S   UNL     1       5.527   5.084  19.404  0.00  0.00    +0.000 S 
BRANCH  11  16
ATOM     12  C   UNL     1       6.122   3.901  13.462  0.00  0.00    +0.000 C 
ATOM     13  C   UNL     1       5.978   4.083  14.945  0.00  0.00    +0.000 A 
ATOM     14  C   UNL     1       4.721   4.066  15.554  0.00  0.00    +0.000 A 
ATOM     15  C   UNL     1       4.590   4.315  16.922  0.00  0.00    +0.000 A 
ATOM     16  C   UNL     1       5.718   4.581  17.704  0.00  0.00    +0.000 A 
ATOM     17  C   UNL     1       6.981   4.576  17.106  0.00  0.00    +0.000 A 
ATOM     18  C   UNL     1       7.109   4.327  15.735  0.00  0.00    +0.000 A 
ENDBRANCH  11  16
ENDBRANCH   1  11
TORSDOF 4
ENDMDL
MODEL 4
REMARK VINA RESULT:      -7.1      2.052      2.554
REMARK  Name = 
REMARK  5 active torsions:
REMARK  status: ('A' for Active; 'I' for Inactive)
REMARK    1  A    between atoms: C_1  and  C_2
REMARK    2  A    between atoms: C_5  and  S_6
REMARK    3  A    between atoms: S_6  and  C_7
REMARK    4  A    between atoms: C_8  and  C_9
REMARK    5  A    between atoms: C_9  and  O_11
REMARK                            x       y       z     vdW  Elec       q    Type
REMARK                         _______ _______ _______ _____ _____    ______ ____
ROOT
ATOM      1  C   UNL     1       4.174   4.598  19.572  0.00  0.00    +0.000 C 
ATOM      2  C   UNL     1       3.703   3.383  19.944  0.00  0.00    +0.000 C 
ATOM      3  C   UNL     1       2.231   3.164  20.257  0.00  0.00    +0.000 C 
ATOM      4  C   UNL     1       1.311   4.313  19.852  0.00  0.00    +0.000 C 
ATOM      5  C   UNL     1       1.929   5.646  20.224  0.00  0.00    +0.000 C 
ATOM      6  C   UNL     1       3.268   5.821  19.513  0.00  0.00    +0.000 C 
ENDROOT
BRANCH   2   7
ATOM      7  C   UNL     1       4.481   2.111  20.092  0.00  0.00    +0.000 C 
ATOM      8  O   UNL     1       5.115   1.842  21.102  0.00  0.00    +0.000 OA
BRANCH   7   9
ATOM      9  O   UNL     1       4.515   1.315  19.010  0.00  0.00    +0.000 OA
ATOM     10  H   UNL     1       3.645   1.230  18.572  0.00  0.00    +0.000 HD
ENDBRANCH   7   9
ENDBRANCH   2   7
BRANCH   1  11
ATOM     11  S   UNL     1       5.858   4.929  19.226  0.00  0.00    +0.000 S 
BRANCH  11  16
ATOM     12  C   UNL     1       6.172   3.791  13.254  0.00  0.00    +0.000 C 
ATOM     13  C   UNL     1       6.051   4.171  14.701  0.00  0.00    +0.000 A 
ATOM     14  C   UNL     1       7.066   4.881  15.346  0.00  0.00    +0.000 A 
ATOM     15  C   UNL     1       6.980   5.160  16.712  0.00  0.00    +0.000 A 
ATOM     16  C   UNL     1       5.873   4.736  17.453  0.00  0.00    +0.000 A 
ATOM     17  C   UNL     1       4.843   4.047  16.808  0.00  0.00    +0.000 A 
ATOM     18  C   UNL     1       4.932   3.766  15.440  0.00  0.00    +0.000 A 
ENDBRANCH  11  16
ENDBRANCH   1  11
TORSDOF 4
ENDMDL
MODEL 5
REMARK VINA RESULT:      -7.1      2.120      5.410
REMARK  Name = 
REMARK  5 active torsions:
REMARK  status: ('A' for Active; 'I' for Inactive)
REMARK    1  A    between atoms: C_1  and  C_2
REMARK    2  A    between atoms: C_5  and  S_6
REMARK    3  A    between atoms: S_6  and  C_7
REMARK    4  A    between atoms: C_8  and  C_9
REMARK    5  A    between atoms: C_9  and  O_11
REMARK                            x       y       z     vdW  Elec       q    Type
REMARK                         _______ _______ _______ _____ _____    ______ ____
ROOT
ATOM      1  C   UNL     1       5.205   6.083  16.927  0.00  0.00    +0.000 C 
ATOM      2  C   UNL     1       5.980   5.130  17.498  0.00  0.00    +0.000 C 
ATOM      3  C   UNL     1       6.890   4.241  16.665  0.00  0.00    +0.000 C 
ATOM      4  C   UNL     1       7.068   4.685  15.215  0.00  0.00    +0.000 C 
ATOM      5  C   UNL     1       5.739   5.107  14.620  0.00  0.00    +0.000 C 
ATOM      6  C   UNL     1       5.151   6.268  15.417  0.00  0.00    +0.000 C 
ENDROOT
BRANCH   2   7
ATOM      7  C   UNL     1       6.097   4.803  18.957  0.00  0.00    +0.000 C 
ATOM      8  O   UNL     1       6.742   5.490  19.734  0.00  0.00    +0.000 OA
BRANCH   7   9
ATOM      9  O   UNL     1       5.522   3.652  19.348  0.00  0.00    +0.000 OA
ATOM     10  H   UNL     1       5.509   2.974  18.643  0.00  0.00    +0.000 HD
ENDBRANCH   7   9
ENDBRANCH   2   7
BRANCH   1  11
ATOM     11  S   UNL     1       4.114   7.120  17.822  0.00  0.00    +0.000 S 
BRANCH  11  16
ATOM     12  C   UNL     1       0.725   2.673  20.231  0.00  0.00    +0.000 C 
ATOM     13  C   UNL     1       1.466   3.822  19.611  0.00  0.00    +0.000 A 
ATOM     14  C   UNL     1       1.753   3.840  18.244  0.00  0.00    +0.000 A 
ATOM     15  C   UNL     1       2.512   4.874  17.691  0.00  0.00    +0.000 A 
ATOM     16  C   UNL     1       2.991   5.910  18.497  0.00  0.00    +0.000 A 
ATOM     17  C   UNL     1       2.687   5.910  19.861  0.00  0.00    +0.000 A 
ATOM     18  C   UNL     1       1.929   4.873  20.414  0.00  0.00    +0.000 A 
ENDBRANCH  11  16
ENDBRANCH   1  11
TORSDOF 4
ENDMDL
MODEL 6
REMARK VINA RESULT:      -7.0      0.610      1.223
REMARK  Name = 
REMARK  5 active torsions:
REMARK  status: ('A' for Active; 'I' for Inactive)
REMARK    1  A    between atoms: C_1  and  C_2
REMARK    2  A    between atoms: C_5  and  S_6
REMARK    3  A    between atoms: S_6  and  C_7
REMARK    4  A    between atoms: C_8  and  C_9
REMARK    5  A    between atoms: C_9  and  O_11
REMARK                            x       y       z     vdW  Elec       q    Type
REMARK                         _______ _______ _______ _____ _____    ______ ____
ROOT
ATOM      1  C   UNL     1       2.507   3.244  18.751  0.00  0.00    +0.000 C 
ATOM      2  C   UNL     1       3.143   2.566  19.738  0.00  0.00    +0.000 C 
ATOM      3  C   UNL     1       2.696   2.670  21.188  0.00  0.00    +0.000 C 
ATOM      4  C   UNL     1       1.344   3.349  21.396  0.00  0.00    +0.000 C 
ATOM      5  C   UNL     1       1.227   4.582  20.521  0.00  0.00    +0.000 C 
ATOM      6  C   UNL     1       1.358   4.197  19.050  0.00  0.00    +0.000 C 
ENDROOT
BRANCH   2   7
ATOM      7  C   UNL     1       4.311   1.638  19.600  0.00  0.00    +0.000 C 
ATOM      8  O   UNL     1       5.287   1.696  20.334  0.00  0.00    +0.000 OA
BRANCH   7   9
ATOM      9  O   UNL     1       4.266   0.788  18.559  0.00  0.00    +0.000 OA
ATOM     10  H   UNL     1       3.395   0.356  18.457  0.00  0.00    +0.000 HD
ENDBRANCH   7   9
ENDBRANCH   2   7
BRANCH   1  11
ATOM     11  S   UNL     1       2.986   3.193  17.068  0.00  0.00    +0.000 S 
BRANCH  11  16
ATOM     12  C   UNL     1       7.488   7.256  17.592  0.00  0.00    +0.000 C 
ATOM     13  C   UNL     1       6.369   6.284  17.355  0.00  0.00    +0.000 A 
ATOM     14  C   UNL     1       5.035   6.676  17.492  0.00  0.00    +0.000 A 
ATOM     15  C   UNL     1       4.003   5.745  17.349  0.00  0.00    +0.000 A 
ATOM     16  C   UNL     1       4.291   4.408  17.061  0.00  0.00    +0.000 A 
ATOM     17  C   UNL     1       5.622   4.015  16.899  0.00  0.00    +0.000 A 
ATOM     18  C   UNL     1       6.654   4.948  17.045  0.00  0.00    +0.000 A 
ENDBRANCH  11  16
ENDBRANCH   1  11
TORSDOF 4
ENDMDL
MODEL 7
REMARK VINA RESULT:      -7.0      1.141      1.915
REMARK  Name = 
REMARK  5 active torsions:
REMARK  status: ('A' for Active; 'I' for Inactive)
REMARK    1  A    between atoms: C_1  and  C_2
REMARK    2  A    between atoms: C_5  and  S_6
REMARK    3  A    between atoms: S_6  and  C_7
REMARK    4  A    between atoms: C_8  and  C_9
REMARK    5  A    between atoms: C_9  and  O_11
REMARK                            x       y       z     vdW  Elec       q    Type
REMARK                         _______ _______ _______ _____ _____    ______ ____
ROOT
ATOM      1  C   UNL     1       3.634   4.343  18.297  0.00  0.00    +0.000 C 
ATOM      2  C   UNL     1       3.451   3.384  19.237  0.00  0.00    +0.000 C 
ATOM      3  C   UNL     1       2.545   3.611  20.437  0.00  0.00    +0.000 C 
ATOM      4  C   UNL     1       1.664   4.856  20.350  0.00  0.00    +0.000 C 
ATOM      5  C   UNL     1       2.458   6.034  19.820  0.00  0.00    +0.000 C 
ATOM      6  C   UNL     1       2.998   5.720  18.428  0.00  0.00    +0.000 C 
ENDROOT
BRANCH   2   7
ATOM      7  C   UNL     1       4.047   2.010  19.265  0.00  0.00    +0.000 C 
ATOM      8  O   UNL     1       3.579   1.077  18.630  0.00  0.00    +0.000 OA
BRANCH   7   9
ATOM      9  O   UNL     1       5.082   1.836  20.106  0.00  0.00    +0.000 OA
ATOM     10  H   UNL     1       4.801   1.585  21.009  0.00  0.00    +0.000 HD
ENDBRANCH   7   9
ENDBRANCH   2   7
BRANCH   1  11
ATOM     11  S   UNL     1       4.684   4.160  16.908  0.00  0.00    +0.000 S 
BRANCH  11  16
ATOM     12  C   UNL     1       8.619   8.497  18.571  0.00  0.00    +0.000 C 
ATOM     13  C   UNL     1       7.722   7.398  18.082  0.00  0.00    +0.000 A 
ATOM     14  C   UNL     1       6.808   7.622  17.049  0.00  0.00    +0.000 A 
ATOM     15  C   UNL     1       5.922   6.617  16.654  0.00  0.00    +0.000 A 
ATOM     16  C   UNL     1       5.940   5.370  17.285  0.00  0.00    +0.000 A 
ATOM     17  C   UNL     1       6.867   5.132  18.303  0.00  0.00    +0.000 A 
ATOM     18  C   UNL     1       7.753   6.140  18.698  0.00  0.00    +0.000 A 
ENDBRANCH  11  16
ENDBRANCH   1  11
TORSDOF 4
ENDMDL
MODEL 8
REMARK VINA RESULT:      -6.9      2.443      5.569
REMARK  Name = 
REMARK  5 active torsions:
REMARK  status: ('A' for Active; 'I' for Inactive)
REMARK    1  A    between atoms: C_1  and  C_2
REMARK    2  A    between atoms: C_5  and  S_6
REMARK    3  A    between atoms: S_6  and  C_7
REMARK    4  A    between atoms: C_8  and  C_9
REMARK    5  A    between atoms: C_9  and  O_11
REMARK                            x       y       z     vdW  Elec       q    Type
REMARK                         _______ _______ _______ _____ _____    ______ ____
ROOT
ATOM      1  C   UNL     1       5.353   6.075  16.739  0.00  0.00    +0.000 C 
ATOM      2  C   UNL     1       6.387   5.456  17.359  0.00  0.00    +0.000 C 
ATOM      3  C   UNL     1       7.290   4.483  16.617  0.00  0.00    +0.000 C 
ATOM      4  C   UNL     1       7.122   4.480  15.100  0.00  0.00    +0.000 C 
ATOM      5  C   UNL     1       5.652   4.517  14.727  0.00  0.00    +0.000 C 
ATOM      6  C   UNL     1       5.000   5.778  15.288  0.00  0.00    +0.000 C 
ENDROOT
BRANCH   2   7
ATOM      7  C   UNL     1       6.819   5.611  18.785  0.00  0.00    +0.000 C 
ATOM      8  O   UNL     1       6.221   5.089  19.714  0.00  0.00    +0.000 OA
BRANCH   7   9
ATOM      9  O   UNL     1       7.859   6.437  18.997  0.00  0.00    +0.000 OA
ATOM     10  H   UNL     1       7.752   6.986  19.799  0.00  0.00    +0.000 HD
ENDBRANCH   7   9
ENDBRANCH   2   7
BRANCH   1  11
ATOM     11  S   UNL     1       4.258   7.182  17.538  0.00  0.00    +0.000 S 
BRANCH  11  16
ATOM     12  C   UNL     1       1.010   2.990  20.527  0.00  0.00    +0.000 C 
ATOM     13  C   UNL     1       1.714   4.065  19.752  0.00  0.00    +0.000 A 
ATOM     14  C   UNL     1       2.069   3.873  18.414  0.00  0.00    +0.000 A 
ATOM     15  C   UNL     1       2.795   4.847  17.725  0.00  0.00    +0.000 A 
ATOM     16  C   UNL     1       3.173   6.031  18.363  0.00  0.00    +0.000 A 
ATOM     17  C   UNL     1       2.800   6.240  19.693  0.00  0.00    +0.000 A 
ATOM     18  C   UNL     1       2.075   5.262  20.383  0.00  0.00    +0.000 A 
ENDBRANCH  11  16
ENDBRANCH   1  11
TORSDOF 4
ENDMDL
MODEL 9
REMARK VINA RESULT:      -6.9      2.441      5.594
REMARK  Name = 
REMARK  5 active torsions:
REMARK  status: ('A' for Active; 'I' for Inactive)
REMARK    1  A    between atoms: C_1  and  C_2
REMARK    2  A    between atoms: C_5  and  S_6
REMARK    3  A    between atoms: S_6  and  C_7
REMARK    4  A    between atoms: C_8  and  C_9
REMARK    5  A    between atoms: C_9  and  O_11
REMARK                            x       y       z     vdW  Elec       q    Type
REMARK                         _______ _______ _______ _____ _____    ______ ____
ROOT
ATOM      1  C   UNL     1       5.456   5.791  17.391  0.00  0.00    +0.000 C 
ATOM      2  C   UNL     1       6.715   5.450  17.760  0.00  0.00    +0.000 C 
ATOM      3  C   UNL     1       7.589   4.570  16.881  0.00  0.00    +0.000 C 
ATOM      4  C   UNL     1       7.058   4.345  15.467  0.00  0.00    +0.000 C 
ATOM      5  C   UNL     1       5.567   4.071  15.496  0.00  0.00    +0.000 C 
ATOM      6  C   UNL     1       4.827   5.254  16.113  0.00  0.00    +0.000 C 
ENDROOT
BRANCH   2   7
ATOM      7  C   UNL     1       7.442   5.860  19.005  0.00  0.00    +0.000 C 
ATOM      8  O   UNL     1       7.246   5.326  20.086  0.00  0.00    +0.000 OA
BRANCH   7   9
ATOM      9  O   UNL     1       8.265   6.916  18.883  0.00  0.00    +0.000 OA
ATOM     10  H   UNL     1       9.208   6.661  18.834  0.00  0.00    +0.000 HD
ENDBRANCH   7   9
ENDBRANCH   2   7
BRANCH   1  11
ATOM     11  S   UNL     1       4.385   6.775  18.367  0.00  0.00    +0.000 S 
BRANCH  11  16
ATOM     12  C   UNL     1       1.462   2.582  21.674  0.00  0.00    +0.000 C 
ATOM     13  C   UNL     1       2.128   3.577  20.769  0.00  0.00    +0.000 A 
ATOM     14  C   UNL     1       3.306   3.256  20.089  0.00  0.00    +0.000 A 
ATOM     15  C   UNL     1       3.962   4.214  19.313  0.00  0.00    +0.000 A 
ATOM     16  C   UNL     1       3.446   5.508  19.201  0.00  0.00    +0.000 A 
ATOM     17  C   UNL     1       2.256   5.829  19.859  0.00  0.00    +0.000 A 
ATOM     18  C   UNL     1       1.602   4.869  20.638  0.00  0.00    +0.000 A 
ENDBRANCH  11  16
ENDBRANCH   1  11
TORSDOF 4
ENDMDL
