MODEL 1
REMARK VINA RESULT:      -7.7      0.000      0.000
REMARK  Name = 
REMARK  6 active torsions:
REMARK  status: ('A' for Active; 'I' for Inactive)
REMARK    1  A    between atoms: C_1  and  C_2
REMARK    2  A    between atoms: C_2  and  C_3
REMARK    3  A    between atoms: C_3  and  C_4
REMARK    4  A    between atoms: C_3  and  N_20
REMARK    5  A    between atoms: N_10  and  C_11
REMARK    6  A    between atoms: C_22  and  C_23
REMARK                            x       y       z     vdW  Elec       q    Type
REMARK                         _______ _______ _______ _____ _____    ______ ____
ROOT
ATOM      1  C   UNL     1       5.206   4.647  17.470  0.00  0.00    +0.000 A 
ATOM      2  N   UNL     1       4.438   5.538  18.039  0.00  0.00    +0.000 NA
ATOM      3  C   UNL     1       3.349   4.998  18.640  0.00  0.00    +0.000 A 
ATOM      4  C   UNL     1       3.006   3.670  18.702  0.00  0.00    +0.000 A 
ATOM      5  C   UNL     1       1.816   3.617  19.434  0.00  0.00    +0.000 A 
ATOM      6  N   UNL     1       1.413   4.834  19.818  0.00  0.00    +0.000 NA
ATOM      7  N   UNL     1       2.366   5.668  19.325  0.00  0.00    +0.000 N 
ATOM      8  C   UNL     1       3.850   2.703  18.070  0.00  0.00    +0.000 A 
ATOM      9  O   UNL     1       3.632   1.496  18.053  0.00  0.00    +0.000 OA
ATOM     10  N   UNL     1       4.944   3.281  17.468  0.00  0.00    +0.000 N 
ATOM     11  H   UNL     1       5.559   2.665  16.953  0.00  0.00    +0.000 HD
ENDROOT
BRANCH   7  12
ATOM     12  C   UNL     1       2.268   7.095  19.602  0.00  0.00    +0.000 C 
ATOM     13  C   UNL     1       1.342   7.414  20.779  0.00  0.00    +0.000 C 
ATOM     14  C   UNL     1       1.233   8.920  20.967  0.00  0.00    +0.000 C 
ATOM     15  O   UNL     1       0.812   9.550  19.758  0.00  0.00    +0.000 OA
ATOM     16  C   UNL     1       1.751   9.371  18.699  0.00  0.00    +0.000 C 
ATOM     17  C   UNL     1       1.892   7.898  18.353  0.00  0.00    +0.000 C 
ENDBRANCH   7  12
BRANCH   1  18
ATOM     18  C   UNL     1       6.499   5.069  16.751  0.00  0.00    +0.000 C 
BRANCH  18  19
ATOM     19  N   UNL     1       6.466   4.449  15.407  0.00  0.00    +0.000 NA
ATOM     20  C   UNL     1       5.479   5.147  14.523  0.00  0.00    +0.000 C 
ATOM     21  C   UNL     1       6.491   4.961  13.360  0.00  0.00    +0.000 C 
ATOM     22  C   UNL     1       7.536   4.991  14.512  0.00  0.00    +0.000 C 
BRANCH  21  23
ATOM     23  C   UNL     1       6.416   3.668  12.451  0.00  0.00    +0.000 A 
ATOM     24  C   UNL     1       7.509   2.953  11.953  0.00  0.00    +0.000 A 
ATOM     25  C   UNL     1       7.301   1.801  11.198  0.00  0.00    +0.000 A 
ATOM     26  C   UNL     1       6.005   1.384  10.943  0.00  0.00    +0.000 A 
ATOM     27  C   UNL     1       4.970   2.144  11.451  0.00  0.00    +0.000 A 
ATOM     28  N   UNL     1       5.145   3.263  12.193  0.00  0.00    +0.000 NA
ENDBRANCH  21  23
ENDBRANCH  18  19
BRANCH  18  30
ATOM     29  C   UNL     1       7.963   5.305  18.840  0.00  0.00    +0.000 C 
ATOM     30  C   UNL     1       7.715   4.540  17.543  0.00  0.00    +0.000 C 
ENDBRANCH  18  30
ENDBRANCH   1  18
TORSDOF 5
ENDMDL
MODEL 2
REMARK VINA RESULT:      -7.6      0.755      1.071
REMARK  Name = 
REMARK  6 active torsions:
REMARK  status: ('A' for Active; 'I' for Inactive)
REMARK    1  A    between atoms: C_1  and  C_2
REMARK    2  A    between atoms: C_2  and  C_3
REMARK    3  A    between atoms: C_3  and  C_4
REMARK    4  A    between atoms: C_3  and  N_20
REMARK    5  A    between atoms: N_10  and  C_11
REMARK    6  A    between atoms: C_22  and  C_23
REMARK                            x       y       z     vdW  Elec       q    Type
REMARK                         _______ _______ _______ _____ _____    ______ ____
ROOT
ATOM      1  C   UNL     1       5.138   4.913  17.986  0.00  0.00    +0.000 A 
ATOM      2  N   UNL     1       4.332   5.817  18.477  0.00  0.00    +0.000 NA
ATOM      3  C   UNL     1       3.292   5.286  19.166  0.00  0.00    +0.000 A 
ATOM      4  C   UNL     1       3.031   3.955  19.386  0.00  0.00    +0.000 A 
ATOM      5  C   UNL     1       1.865   3.917  20.156  0.00  0.00    +0.000 A 
ATOM      6  N   UNL     1       1.399   5.145  20.415  0.00  0.00    +0.000 NA
ATOM      7  N   UNL     1       2.287   5.971  19.804  0.00  0.00    +0.000 N 
ATOM      8  C   UNL     1       3.917   2.974  18.839  0.00  0.00    +0.000 A 
ATOM      9  O   UNL     1       3.772   1.762  18.963  0.00  0.00    +0.000 OA
ATOM     10  N   UNL     1       4.959   3.542  18.143  0.00  0.00    +0.000 N 
ATOM     11  H   UNL     1       5.597   2.909  17.681  0.00  0.00    +0.000 HD
ENDROOT
BRANCH   7  12
ATOM     12  C   UNL     1       2.110   7.412  19.923  0.00  0.00    +0.000 C 
ATOM     13  C   UNL     1       1.143   7.805  21.045  0.00  0.00    +0.000 C 
ATOM     14  C   UNL     1       0.953   9.314  21.068  0.00  0.00    +0.000 C 
ATOM     15  O   UNL     1       0.527   9.788  19.791  0.00  0.00    +0.000 OA
ATOM     16  C   UNL     1       1.496   9.548  18.772  0.00  0.00    +0.000 C 
ATOM     17  C   UNL     1       1.720   8.056  18.590  0.00  0.00    +0.000 C 
ENDBRANCH   7  12
BRANCH   1  18
ATOM     18  C   UNL     1       6.386   5.325  17.185  0.00  0.00    +0.000 C 
BRANCH  18  19
ATOM     19  N   UNL     1       6.241   4.740  15.833  0.00  0.00    +0.000 NA
ATOM     20  C   UNL     1       5.679   5.745  14.876  0.00  0.00    +0.000 C 
ATOM     21  C   UNL     1       6.644   5.167  13.806  0.00  0.00    +0.000 C 
ATOM     22  C   UNL     1       7.513   4.819  15.049  0.00  0.00    +0.000 C 
BRANCH  21  23
ATOM     23  C   UNL     1       6.167   3.985  12.871  0.00  0.00    +0.000 A 
ATOM     24  C   UNL     1       4.842   3.684  12.543  0.00  0.00    +0.000 A 
ATOM     25  C   UNL     1       4.562   2.637  11.667  0.00  0.00    +0.000 A 
ATOM     26  C   UNL     1       5.607   1.899  11.139  0.00  0.00    +0.000 A 
ATOM     27  C   UNL     1       6.893   2.237  11.516  0.00  0.00    +0.000 A 
ATOM     28  N   UNL     1       7.192   3.254  12.359  0.00  0.00    +0.000 NA
ENDBRANCH  21  23
ENDBRANCH  18  19
BRANCH  18  30
ATOM     29  C   UNL     1       8.052   5.529  19.120  0.00  0.00    +0.000 C 
ATOM     30  C   UNL     1       7.642   4.749  17.874  0.00  0.00    +0.000 C 
ENDBRANCH  18  30
ENDBRANCH   1  18
TORSDOF 5
ENDMDL
MODEL 3
REMARK VINA RESULT:      -7.2      6.789     10.853
REMARK  Name = 
REMARK  6 active torsions:
REMARK  status: ('A' for Active; 'I' for Inactive)
REMARK    1  A    between atoms: C_1  and  C_2
REMARK    2  A    between atoms: C_2  and  C_3
REMARK    3  A    between atoms: C_3  and  C_4
REMARK    4  A    between atoms: C_3  and  N_20
REMARK    5  A    between atoms: N_10  and  C_11
REMARK    6  A    between atoms: C_22  and  C_23
REMARK                            x       y       z     vdW  Elec       q    Type
REMARK                         _______ _______ _______ _____ _____    ______ ____
ROOT
ATOM      1  C   UNL     1      -2.594  12.356  18.878  0.00  0.00    +0.000 A 
ATOM      2  N   UNL     1      -3.577  12.462  19.733  0.00  0.00    +0.000 NA
ATOM      3  C   UNL     1      -4.765  12.045  19.232  0.00  0.00    +0.000 A 
ATOM      4  C   UNL     1      -5.010  11.543  17.977  0.00  0.00    +0.000 A 
ATOM      5  C   UNL     1      -6.375  11.243  17.945  0.00  0.00    +0.000 A 
ATOM      6  N   UNL     1      -6.976  11.536  19.105  0.00  0.00    +0.000 NA
ATOM      7  N   UNL     1      -5.974  12.023  19.882  0.00  0.00    +0.000 N 
ATOM      8  C   UNL     1      -3.927  11.437  17.047  0.00  0.00    +0.000 A 
ATOM      9  O   UNL     1      -4.036  11.016  15.900  0.00  0.00    +0.000 OA
ATOM     10  N   UNL     1      -2.736  11.870  17.583  0.00  0.00    +0.000 N 
ATOM     11  H   UNL     1      -1.935  11.875  16.966  0.00  0.00    +0.000 HD
ENDROOT
BRANCH   7  12
ATOM     12  C   UNL     1      -6.268  12.405  21.257  0.00  0.00    +0.000 C 
ATOM     13  C   UNL     1      -7.570  11.792  21.783  0.00  0.00    +0.000 C 
ATOM     14  C   UNL     1      -7.849  12.286  23.195  0.00  0.00    +0.000 C 
ATOM     15  O   UNL     1      -7.864  13.712  23.236  0.00  0.00    +0.000 OA
ATOM     16  C   UNL     1      -6.603  14.277  22.883  0.00  0.00    +0.000 C 
ATOM     17  C   UNL     1      -6.241  13.924  21.450  0.00  0.00    +0.000 C 
ENDBRANCH   7  12
BRANCH   1  18
ATOM     18  C   UNL     1      -1.163  12.767  19.272  0.00  0.00    +0.000 C 
BRANCH  18  19
ATOM     19  N   UNL     1      -0.332  11.544  19.204  0.00  0.00    +0.000 NA
ATOM     20  C   UNL     1       0.930  11.714  19.993  0.00  0.00    +0.000 C 
ATOM     21  C   UNL     1       0.771  10.237  20.441  0.00  0.00    +0.000 C 
ATOM     22  C   UNL     1      -0.742  10.530  20.226  0.00  0.00    +0.000 C 
BRANCH  21  23
ATOM     23  C   UNL     1       1.437   9.080  19.593  0.00  0.00    +0.000 A 
ATOM     24  C   UNL     1       1.749   9.138  18.232  0.00  0.00    +0.000 A 
ATOM     25  C   UNL     1       2.379   8.059  17.615  0.00  0.00    +0.000 A 
ATOM     26  C   UNL     1       2.680   6.934  18.364  0.00  0.00    +0.000 A 
ATOM     27  C   UNL     1       2.331   6.934  19.701  0.00  0.00    +0.000 A 
ATOM     28  N   UNL     1       1.725   7.972  20.325  0.00  0.00    +0.000 NA
ENDBRANCH  21  23
ENDBRANCH  18  19
BRANCH  18  30
ATOM     29  C   UNL     1      -0.991  14.829  20.780  0.00  0.00    +0.000 C 
ATOM     30  C   UNL     1      -1.173  13.315  20.715  0.00  0.00    +0.000 C 
ENDBRANCH  18  30
ENDBRANCH   1  18
TORSDOF 5
ENDMDL
MODEL 4
REMARK VINA RESULT:      -7.1      5.580      8.848
REMARK  Name = 
REMARK  6 active torsions:
REMARK  status: ('A' for Active; 'I' for Inactive)
REMARK    1  A    between atoms: C_1  and  C_2
REMARK    2  A    between atoms: C_2  and  C_3
REMARK    3  A    between atoms: C_3  and  C_4
REMARK    4  A    between atoms: C_3  and  N_20
REMARK    5  A    between atoms: N_10  and  C_11
REMARK    6  A    between atoms: C_22  and  C_23
REMARK                            x       y       z     vdW  Elec       q    Type
REMARK                         _______ _______ _______ _____ _____    ______ ____
ROOT
ATOM      1  C   UNL     1      -0.661  10.604  18.428  0.00  0.00    +0.000 A 
ATOM      2  N   UNL     1      -1.480  11.249  19.217  0.00  0.00    +0.000 NA
ATOM      3  C   UNL     1      -2.740  11.331  18.724  0.00  0.00    +0.000 A 
ATOM      4  C   UNL     1      -3.206  10.818  17.538  0.00  0.00    +0.000 A 
ATOM      5  C   UNL     1      -4.564  11.147  17.487  0.00  0.00    +0.000 A 
ATOM      6  N   UNL     1      -4.951  11.833  18.569  0.00  0.00    +0.000 NA
ATOM      7  N   UNL     1      -3.822  11.933  19.318  0.00  0.00    +0.000 N 
ATOM      8  C   UNL     1      -2.300  10.119  16.680  0.00  0.00    +0.000 A 
ATOM      9  O   UNL     1      -2.605   9.633  15.596  0.00  0.00    +0.000 OA
ATOM     10  N   UNL     1      -1.029  10.054  17.204  0.00  0.00    +0.000 N 
ATOM     11  H   UNL     1      -0.320   9.621  16.628  0.00  0.00    +0.000 HD
ENDROOT
BRANCH   7  12
ATOM     12  C   UNL     1      -3.890  12.593  20.614  0.00  0.00    +0.000 C 
ATOM     13  C   UNL     1      -5.324  12.750  21.131  0.00  0.00    +0.000 C 
ATOM     14  C   UNL     1      -5.326  13.505  22.452  0.00  0.00    +0.000 C 
ATOM     15  O   UNL     1      -4.656  14.758  22.317  0.00  0.00    +0.000 OA
ATOM     16  C   UNL     1      -3.279  14.602  21.975  0.00  0.00    +0.000 C 
ATOM     17  C   UNL     1      -3.138  13.927  20.622  0.00  0.00    +0.000 C 
ENDBRANCH   7  12
BRANCH   1  18
ATOM     18  C   UNL     1       0.811  10.394  18.826  0.00  0.00    +0.000 C 
BRANCH  18  19
ATOM     19  N   UNL     1       1.028   8.933  18.912  0.00  0.00    +0.000 NA
ATOM     20  C   UNL     1       2.366   8.560  18.351  0.00  0.00    +0.000 C 
ATOM     21  C   UNL     1       2.483   7.520  19.498  0.00  0.00    +0.000 C 
ATOM     22  C   UNL     1       1.562   8.523  20.249  0.00  0.00    +0.000 C 
BRANCH  21  23
ATOM     23  C   UNL     1       1.961   6.043  19.278  0.00  0.00    +0.000 A 
ATOM     24  C   UNL     1       1.919   5.362  18.058  0.00  0.00    +0.000 A 
ATOM     25  C   UNL     1       1.475   4.042  18.013  0.00  0.00    +0.000 A 
ATOM     26  C   UNL     1       1.070   3.424  19.184  0.00  0.00    +0.000 A 
ATOM     27  C   UNL     1       1.121   4.158  20.353  0.00  0.00    +0.000 A 
ATOM     28  N   UNL     1       1.555   5.439  20.425  0.00  0.00    +0.000 NA
ENDBRANCH  21  23
ENDBRANCH  18  19
BRANCH  18  30
ATOM     29  C   UNL     1       1.621  12.460  20.106  0.00  0.00    +0.000 C 
ATOM     30  C   UNL     1       1.060  11.044  20.205  0.00  0.00    +0.000 C 
ENDBRANCH  18  30
ENDBRANCH   1  18
TORSDOF 5
ENDMDL
MODEL 5
REMARK VINA RESULT:      -7.0      2.230      8.177
REMARK  Name = 
REMARK  6 active torsions:
REMARK  status: ('A' for Active; 'I' for Inactive)
REMARK    1  A    between atoms: C_1  and  C_2
REMARK    2  A    between atoms: C_2  and  C_3
REMARK    3  A    between atoms: C_3  and  C_4
REMARK    4  A    between atoms: C_3  and  N_20
REMARK    5  A    between atoms: N_10  and  C_11
REMARK    6  A    between atoms: C_22  and  C_23
REMARK                            x       y       z     vdW  Elec       q    Type
REMARK                         _______ _______ _______ _____ _____    ______ ____
ROOT
ATOM      1  C   UNL     1       3.686   4.686  17.762  0.00  0.00    +0.000 A 
ATOM      2  N   UNL     1       4.327   4.699  16.623  0.00  0.00    +0.000 NA
ATOM      3  C   UNL     1       5.675   4.680  16.771  0.00  0.00    +0.000 A 
ATOM      4  C   UNL     1       6.384   4.642  17.947  0.00  0.00    +0.000 A 
ATOM      5  C   UNL     1       7.732   4.620  17.579  0.00  0.00    +0.000 A 
ATOM      6  N   UNL     1       7.886   4.644  16.250  0.00  0.00    +0.000 NA
ATOM      7  N   UNL     1       6.616   4.677  15.771  0.00  0.00    +0.000 N 
ATOM      8  C   UNL     1       5.671   4.634  19.188  0.00  0.00    +0.000 A 
ATOM      9  O   UNL     1       6.203   4.614  20.293  0.00  0.00    +0.000 OA
ATOM     10  N   UNL     1       4.308   4.657  19.006  0.00  0.00    +0.000 N 
ATOM     11  H   UNL     1       3.738   4.707  19.840  0.00  0.00    +0.000 HD
ENDROOT
BRANCH   7  12
ATOM     12  C   UNL     1       6.403   4.663  14.330  0.00  0.00    +0.000 C 
ATOM     13  C   UNL     1       5.848   3.330  13.820  0.00  0.00    +0.000 C 
ATOM     14  C   UNL     1       5.716   3.362  12.304  0.00  0.00    +0.000 C 
ATOM     15  O   UNL     1       6.961   3.701  11.697  0.00  0.00    +0.000 OA
ATOM     16  C   UNL     1       7.406   5.006  12.063  0.00  0.00    +0.000 C 
ATOM     17  C   UNL     1       7.658   5.085  13.559  0.00  0.00    +0.000 C 
ENDBRANCH   7  12
BRANCH   1  18
ATOM     18  C   UNL     1       2.147   4.688  17.796  0.00  0.00    +0.000 C 
BRANCH  18  19
ATOM     19  N   UNL     1       1.729   6.042  18.223  0.00  0.00    +0.000 NA
ATOM     20  C   UNL     1       2.093   6.285  19.656  0.00  0.00    +0.000 C 
ATOM     21  C   UNL     1       2.454   7.739  19.248  0.00  0.00    +0.000 C 
ATOM     22  C   UNL     1       2.747   7.081  17.869  0.00  0.00    +0.000 C 
BRANCH  21  23
ATOM     23  C   UNL     1       1.354   8.873  19.319  0.00  0.00    +0.000 A 
ATOM     24  C   UNL     1       0.845   9.588  18.232  0.00  0.00    +0.000 A 
ATOM     25  C   UNL     1      -0.159  10.534  18.429  0.00  0.00    +0.000 A 
ATOM     26  C   UNL     1      -0.635  10.758  19.710  0.00  0.00    +0.000 A 
ATOM     27  C   UNL     1      -0.078  10.029  20.743  0.00  0.00    +0.000 A 
ATOM     28  N   UNL     1       0.893   9.100  20.577  0.00  0.00    +0.000 NA
ENDBRANCH  21  23
ENDBRANCH  18  19
BRANCH  18  30
ATOM     29  C   UNL     1       1.796   2.206  18.324  0.00  0.00    +0.000 C 
ATOM     30  C   UNL     1       1.662   3.642  18.824  0.00  0.00    +0.000 C 
ENDBRANCH  18  30
ENDBRANCH   1  18
TORSDOF 5
ENDMDL
MODEL 6
REMARK VINA RESULT:      -7.0      5.597      8.497
REMARK  Name = 
REMARK  6 active torsions:
REMARK  status: ('A' for Active; 'I' for Inactive)
REMARK    1  A    between atoms: C_1  and  C_2
REMARK    2  A    between atoms: C_2  and  C_3
REMARK    3  A    between atoms: C_3  and  C_4
REMARK    4  A    between atoms: C_3  and  N_20
REMARK    5  A    between atoms: N_10  and  C_11
REMARK    6  A    between atoms: C_22  and  C_23
REMARK                            x       y       z     vdW  Elec       q    Type
REMARK                         _______ _______ _______ _____ _____    ______ ____
ROOT
ATOM      1  C   UNL     1      -0.430  10.484  17.964  0.00  0.00    +0.000 A 
ATOM      2  N   UNL     1      -0.895  11.266  18.902  0.00  0.00    +0.000 NA
ATOM      3  C   UNL     1      -2.239  11.431  18.841  0.00  0.00    +0.000 A 
ATOM      4  C   UNL     1      -3.106  10.873  17.933  0.00  0.00    +0.000 A 
ATOM      5  C   UNL     1      -4.378  11.328  18.292  0.00  0.00    +0.000 A 
ATOM      6  N   UNL     1      -4.337  12.131  19.361  0.00  0.00    +0.000 NA
ATOM      7  N   UNL     1      -3.019  12.181  19.686  0.00  0.00    +0.000 N 
ATOM      8  C   UNL     1      -2.586  10.023  16.906  0.00  0.00    +0.000 A 
ATOM      9  O   UNL     1      -3.267   9.485  16.040  0.00  0.00    +0.000 OA
ATOM     10  N   UNL     1      -1.220   9.877  16.993  0.00  0.00    +0.000 N 
ATOM     11  H   UNL     1      -0.774   9.333  16.267  0.00  0.00    +0.000 HD
ENDROOT
BRANCH   7  12
ATOM     12  C   UNL     1      -2.607  12.945  20.856  0.00  0.00    +0.000 C 
ATOM     13  C   UNL     1      -1.828  12.107  21.875  0.00  0.00    +0.000 C 
ATOM     14  C   UNL     1      -1.491  12.947  23.097  0.00  0.00    +0.000 C 
ATOM     15  O   UNL     1      -2.672  13.522  23.655  0.00  0.00    +0.000 OA
ATOM     16  C   UNL     1      -3.318  14.417  22.751  0.00  0.00    +0.000 C 
ATOM     17  C   UNL     1      -3.784  13.677  21.508  0.00  0.00    +0.000 C 
ENDBRANCH   7  12
BRANCH   1  18
ATOM     18  C   UNL     1       1.074  10.164  17.880  0.00  0.00    +0.000 C 
BRANCH  18  19
ATOM     19  N   UNL     1       1.230   8.738  18.244  0.00  0.00    +0.000 NA
ATOM     20  C   UNL     1       2.578   8.230  17.836  0.00  0.00    +0.000 C 
ATOM     21  C   UNL     1       2.598   7.416  19.158  0.00  0.00    +0.000 C 
ATOM     22  C   UNL     1       1.679   8.566  19.661  0.00  0.00    +0.000 C 
BRANCH  21  23
ATOM     23  C   UNL     1       2.031   5.940  19.182  0.00  0.00    +0.000 A 
ATOM     24  C   UNL     1       1.913   5.090  18.079  0.00  0.00    +0.000 A 
ATOM     25  C   UNL     1       1.437   3.791  18.248  0.00  0.00    +0.000 A 
ATOM     26  C   UNL     1       1.076   3.363  19.514  0.00  0.00    +0.000 A 
ATOM     27  C   UNL     1       1.201   4.258  20.559  0.00  0.00    +0.000 A 
ATOM     28  N   UNL     1       1.668   5.522  20.423  0.00  0.00    +0.000 NA
ENDBRANCH  21  23
ENDBRANCH  18  19
BRANCH  18  30
ATOM     29  C   UNL     1       2.464  12.283  18.249  0.00  0.00    +0.000 C 
ATOM     30  C   UNL     1       1.836  11.049  18.891  0.00  0.00    +0.000 C 
ENDBRANCH  18  30
ENDBRANCH   1  18
TORSDOF 5
ENDMDL
MODEL 7
REMARK VINA RESULT:      -7.0      1.402      1.836
REMARK  Name = 
REMARK  6 active torsions:
REMARK  status: ('A' for Active; 'I' for Inactive)
REMARK    1  A    between atoms: C_1  and  C_2
REMARK    2  A    between atoms: C_2  and  C_3
REMARK    3  A    between atoms: C_3  and  C_4
REMARK    4  A    between atoms: C_3  and  N_20
REMARK    5  A    between atoms: N_10  and  C_11
REMARK    6  A    between atoms: C_22  and  C_23
REMARK                            x       y       z     vdW  Elec       q    Type
REMARK                         _______ _______ _______ _____ _____    ______ ____
ROOT
ATOM      1  C   UNL     1       5.488   5.198  18.828  0.00  0.00    +0.000 A 
ATOM      2  N   UNL     1       4.553   6.073  19.091  0.00  0.00    +0.000 NA
ATOM      3  C   UNL     1       3.464   5.527  19.686  0.00  0.00    +0.000 A 
ATOM      4  C   UNL     1       3.272   4.209  20.022  0.00  0.00    +0.000 A 
ATOM      5  C   UNL     1       2.010   4.149  20.621  0.00  0.00    +0.000 A 
ATOM      6  N   UNL     1       1.422   5.349  20.665  0.00  0.00    +0.000 NA
ATOM      7  N   UNL     1       2.328   6.183  20.091  0.00  0.00    +0.000 N 
ATOM      8  C   UNL     1       4.299   3.259  19.724  0.00  0.00    +0.000 A 
ATOM      9  O   UNL     1       4.226   2.059  19.969  0.00  0.00    +0.000 OA
ATOM     10  N   UNL     1       5.389   3.841  19.119  0.00  0.00    +0.000 N 
ATOM     11  H   UNL     1       6.134   3.222  18.830  0.00  0.00    +0.000 HD
ENDROOT
BRANCH   7  12
ATOM     12  C   UNL     1       2.030   7.606  20.013  0.00  0.00    +0.000 C 
ATOM     13  C   UNL     1       0.907   8.035  20.964  0.00  0.00    +0.000 C 
ATOM     14  C   UNL     1       0.602   9.515  20.781  0.00  0.00    +0.000 C 
ATOM     15  O   UNL     1       0.300   9.802  19.417  0.00  0.00    +0.000 OA
ATOM     16  C   UNL     1       1.402   9.537  18.550  0.00  0.00    +0.000 C 
ATOM     17  C   UNL     1       1.758   8.060  18.576  0.00  0.00    +0.000 C 
ENDBRANCH   7  12
BRANCH   1  18
ATOM     18  C   UNL     1       6.808   5.633  18.167  0.00  0.00    +0.000 C 
BRANCH  18  19
ATOM     19  N   UNL     1       6.725   5.238  16.743  0.00  0.00    +0.000 NA
ATOM     20  C   UNL     1       5.856   4.031  16.575  0.00  0.00    +0.000 C 
ATOM     21  C   UNL     1       5.319   4.681  15.271  0.00  0.00    +0.000 C 
ATOM     22  C   UNL     1       5.670   6.005  16.008  0.00  0.00    +0.000 C 
BRANCH  21  23
ATOM     23  C   UNL     1       6.030   4.381  13.891  0.00  0.00    +0.000 A 
ATOM     24  C   UNL     1       5.643   3.409  12.964  0.00  0.00    +0.000 A 
ATOM     25  C   UNL     1       6.333   3.279  11.761  0.00  0.00    +0.000 A 
ATOM     26  C   UNL     1       7.407   4.115  11.504  0.00  0.00    +0.000 A 
ATOM     27  C   UNL     1       7.749   5.043  12.468  0.00  0.00    +0.000 A 
ATOM     28  N   UNL     1       7.090   5.194  13.642  0.00  0.00    +0.000 NA
ENDBRANCH  21  23
ENDBRANCH  18  19
BRANCH  18  30
ATOM     29  C   UNL     1       8.371   5.505  20.192  0.00  0.00    +0.000 C 
ATOM     30  C   UNL     1       7.982   4.896  18.848  0.00  0.00    +0.000 C 
ENDBRANCH  18  30
ENDBRANCH   1  18
TORSDOF 5
ENDMDL
MODEL 8
REMARK VINA RESULT:      -6.9      9.151     12.755
REMARK  Name = 
REMARK  6 active torsions:
REMARK  status: ('A' for Active; 'I' for Inactive)
REMARK    1  A    between atoms: C_1  and  C_2
REMARK    2  A    between atoms: C_2  and  C_3
REMARK    3  A    between atoms: C_3  and  C_4
REMARK    4  A    between atoms: C_3  and  N_20
REMARK    5  A    between atoms: N_10  and  C_11
REMARK    6  A    between atoms: C_22  and  C_23
REMARK                            x       y       z     vdW  Elec       q    Type
REMARK                         _______ _______ _______ _____ _____    ______ ____
ROOT
ATOM      1  C   UNL     1      -5.104  11.916  17.576  0.00  0.00    +0.000 A 
ATOM      2  N   UNL     1      -5.427  12.041  18.836  0.00  0.00    +0.000 NA
ATOM      3  C   UNL     1      -6.359  13.001  19.055  0.00  0.00    +0.000 A 
ATOM      4  C   UNL     1      -6.963  13.804  18.119  0.00  0.00    +0.000 A 
ATOM      5  C   UNL     1      -7.853  14.615  18.829  0.00  0.00    +0.000 A 
ATOM      6  N   UNL     1      -7.824  14.356  20.142  0.00  0.00    +0.000 NA
ATOM      7  N   UNL     1      -6.905  13.362  20.262  0.00  0.00    +0.000 N 
ATOM      8  C   UNL     1      -6.598  13.663  16.743  0.00  0.00    +0.000 A 
ATOM      9  O   UNL     1      -7.064  14.336  15.829  0.00  0.00    +0.000 OA
ATOM     10  N   UNL     1      -5.650  12.684  16.552  0.00  0.00    +0.000 N 
ATOM     11  H   UNL     1      -5.303  12.564  15.611  0.00  0.00    +0.000 HD
ENDROOT
BRANCH   7  12
ATOM     12  C   UNL     1      -6.649  12.791  21.577  0.00  0.00    +0.000 C 
ATOM     13  C   UNL     1      -7.916  12.655  22.428  0.00  0.00    +0.000 C 
ATOM     14  C   UNL     1      -7.566  12.118  23.808  0.00  0.00    +0.000 C 
ATOM     15  O   UNL     1      -6.578  12.937  24.431  0.00  0.00    +0.000 OA
ATOM     16  C   UNL     1      -5.347  12.947  23.709  0.00  0.00    +0.000 C 
ATOM     17  C   UNL     1      -5.544  13.543  22.325  0.00  0.00    +0.000 C 
ENDBRANCH   7  12
BRANCH   1  18
ATOM     18  C   UNL     1      -4.073  10.864  17.129  0.00  0.00    +0.000 C 
BRANCH  18  19
ATOM     19  N   UNL     1      -3.075  10.752  18.216  0.00  0.00    +0.000 NA
ATOM     20  C   UNL     1      -1.989   9.791  17.844  0.00  0.00    +0.000 C 
ATOM     21  C   UNL     1      -0.990  10.756  18.539  0.00  0.00    +0.000 C 
ATOM     22  C   UNL     1      -2.041  11.831  18.142  0.00  0.00    +0.000 C 
BRANCH  21  23
ATOM     23  C   UNL     1      -0.652  10.569  20.073  0.00  0.00    +0.000 A 
ATOM     24  C   UNL     1      -1.084  11.397  21.113  0.00  0.00    +0.000 A 
ATOM     25  C   UNL     1      -0.750  11.091  22.431  0.00  0.00    +0.000 A 
ATOM     26  C   UNL     1       0.018   9.969  22.691  0.00  0.00    +0.000 A 
ATOM     27  C   UNL     1       0.426   9.201  21.617  0.00  0.00    +0.000 A 
ATOM     28  N   UNL     1       0.109   9.473  20.328  0.00  0.00    +0.000 NA
ENDBRANCH  21  23
ENDBRANCH  18  19
BRANCH  18  30
ATOM     29  C   UNL     1      -3.400  10.303  14.722  0.00  0.00    +0.000 C 
ATOM     30  C   UNL     1      -3.385  11.348  15.834  0.00  0.00    +0.000 C 
ENDBRANCH  18  30
ENDBRANCH   1  18
TORSDOF 5
ENDMDL
MODEL 9
REMARK VINA RESULT:      -6.9      5.404      8.383
REMARK  Name = 
REMARK  6 active torsions:
REMARK  status: ('A' for Active; 'I' for Inactive)
REMARK    1  A    between atoms: C_1  and  C_2
REMARK    2  A    between atoms: C_2  and  C_3
REMARK    3  A    between atoms: C_3  and  C_4
REMARK    4  A    between atoms: C_3  and  N_20
REMARK    5  A    between atoms: N_10  and  C_11
REMARK    6  A    between atoms: C_22  and  C_23
REMARK                            x       y       z     vdW  Elec       q    Type
REMARK                         _______ _______ _______ _____ _____    ______ ____
ROOT
ATOM      1  C   UNL     1      -0.337  10.441  17.981  0.00  0.00    +0.000 A 
ATOM      2  N   UNL     1      -0.774  11.244  18.915  0.00  0.00    +0.000 NA
ATOM      3  C   UNL     1      -2.116  11.435  18.867  0.00  0.00    +0.000 A 
ATOM      4  C   UNL     1      -3.005  10.884  17.977  0.00  0.00    +0.000 A 
ATOM      5  C   UNL     1      -4.263  11.368  18.345  0.00  0.00    +0.000 A 
ATOM      6  N   UNL     1      -4.193  12.184  19.403  0.00  0.00    +0.000 NA
ATOM      7  N   UNL     1      -2.870  12.210  19.713  0.00  0.00    +0.000 N 
ATOM      8  C   UNL     1      -2.514  10.011  16.955  0.00  0.00    +0.000 A 
ATOM      9  O   UNL     1      -3.216   9.476  16.103  0.00  0.00    +0.000 OA
ATOM     10  N   UNL     1      -1.151   9.839  17.027  0.00  0.00    +0.000 N 
ATOM     11  H   UNL     1      -0.724   9.277  16.303  0.00  0.00    +0.000 HD
ENDROOT
BRANCH   7  12
ATOM     12  C   UNL     1      -2.430  12.980  20.868  0.00  0.00    +0.000 C 
ATOM     13  C   UNL     1      -1.502  14.141  20.495  0.00  0.00    +0.000 C 
ATOM     14  C   UNL     1      -1.028  14.858  21.750  0.00  0.00    +0.000 C 
ATOM     15  O   UNL     1      -0.414  13.939  22.653  0.00  0.00    +0.000 OA
ATOM     16  C   UNL     1      -1.323  12.940  23.112  0.00  0.00    +0.000 C 
ATOM     17  C   UNL     1      -1.814  12.091  21.951  0.00  0.00    +0.000 C 
ENDBRANCH   7  12
BRANCH   1  18
ATOM     18  C   UNL     1       1.159  10.090  17.884  0.00  0.00    +0.000 C 
BRANCH  18  19
ATOM     19  N   UNL     1       1.296   8.676  18.298  0.00  0.00    +0.000 NA
ATOM     20  C   UNL     1       2.662   8.156  17.971  0.00  0.00    +0.000 C 
ATOM     21  C   UNL     1       2.617   7.383  19.317  0.00  0.00    +0.000 C 
ATOM     22  C   UNL     1       1.676   8.548  19.740  0.00  0.00    +0.000 C 
BRANCH  21  23
ATOM     23  C   UNL     1       2.047   5.908  19.359  0.00  0.00    +0.000 A 
ATOM     24  C   UNL     1       1.552   5.253  20.490  0.00  0.00    +0.000 A 
ATOM     25  C   UNL     1       1.036   3.964  20.378  0.00  0.00    +0.000 A 
ATOM     26  C   UNL     1       1.031   3.342  19.140  0.00  0.00    +0.000 A 
ATOM     27  C   UNL     1       1.551   4.038  18.066  0.00  0.00    +0.000 A 
ATOM     28  N   UNL     1       2.051   5.294  18.146  0.00  0.00    +0.000 NA
ENDBRANCH  21  23
ENDBRANCH  18  19
BRANCH  18  30
ATOM     29  C   UNL     1       2.460  12.276  18.183  0.00  0.00    +0.000 C 
ATOM     30  C   UNL     1       1.955  10.998  18.847  0.00  0.00    +0.000 C 
ENDBRANCH  18  30
ENDBRANCH   1  18
TORSDOF 5
ENDMDL
