MODEL 1
REMARK VINA RESULT:      -6.8      0.000      0.000
REMARK  Name = 
REMARK  9 active torsions:
REMARK  status: ('A' for Active; 'I' for Inactive)
REMARK    1  A    between atoms: C_1  and  C_2
REMARK    2  A    between atoms: C_5  and  N_6
REMARK    3  A    between atoms: N_9  and  C_10
REMARK    4  A    between atoms: C_10  and  C_11
REMARK    5  A    between atoms: C_11  and  S_12
REMARK    6  A    between atoms: S_12  and  C_13
REMARK    7  A    between atoms: C_13  and  N_15
REMARK    8  A    between atoms: C_18  and  C_19
REMARK    9  A    between atoms: C_19  and  C_20
REMARK                            x       y       z     vdW  Elec       q    Type
REMARK                         _______ _______ _______ _____ _____    ______ ____
ROOT
ATOM      1  C   UNL     1       1.543   8.663  19.451  0.00  0.00    +0.000 C 
ATOM      2  S   UNL     1       2.103   8.828  17.874  0.00  0.00    +0.000 S 
ENDROOT
BRANCH   1   3
ATOM      3  N   UNL     1       0.767   9.598  20.135  0.00  0.00    +0.000 N 
ATOM      4  C   UNL     1       0.611  10.983  19.676  0.00  0.00    +0.000 C 
ATOM      5  C   UNL     1       0.811  11.943  20.838  0.00  0.00    +0.000 C 
ATOM      6  C   UNL     1      -0.188  11.668  21.976  0.00  0.00    +0.000 C 
ATOM      7  C   UNL     1      -0.092  10.188  22.384  0.00  0.00    +0.000 C 
ATOM      8  C   UNL     1      -0.170   9.214  21.202  0.00  0.00    +0.000 C 
BRANCH   6   9
ATOM      9  C   UNL     1      -1.649  12.023  21.634  0.00  0.00    +0.000 C 
BRANCH   9  10
ATOM     10  C   UNL     1      -2.379  12.825  22.683  0.00  0.00    +0.000 A 
ATOM     11  C   UNL     1      -2.166  14.206  22.785  0.00  0.00    +0.000 A 
ATOM     12  C   UNL     1      -2.874  14.965  23.718  0.00  0.00    +0.000 A 
ATOM     13  C   UNL     1      -3.801  14.352  24.556  0.00  0.00    +0.000 A 
ATOM     14  C   UNL     1      -4.015  12.977  24.468  0.00  0.00    +0.000 A 
ATOM     15  C   UNL     1      -3.308  12.216  23.537  0.00  0.00    +0.000 A 
ENDBRANCH   9  10
ENDBRANCH   6   9
ENDBRANCH   1   3
BRANCH   1  16
ATOM     16  S   UNL     1       1.901   7.170  20.336  0.00  0.00    +0.000 S 
BRANCH  16  17
ATOM     17  C   UNL     1       2.687   6.187  19.010  0.00  0.00    +0.000 C 
BRANCH  17  18
ATOM     18  C   UNL     1       3.741   5.221  19.553  0.00  0.00    +0.000 C 
BRANCH  18  24
ATOM     19  C   UNL     1       4.801   3.983  16.909  0.00  0.00    +0.000 C 
ATOM     20  C   UNL     1       3.982   3.280  17.930  0.00  0.00    +0.000 A 
ATOM     21  N   UNL     1       3.539   2.044  17.806  0.00  0.00    +0.000 NA
ATOM     22  C   UNL     1       2.772   1.790  18.907  0.00  0.00    +0.000 A 
ATOM     23  C   UNL     1       2.777   2.885  19.726  0.00  0.00    +0.000 A 
ATOM     24  N   UNL     1       3.555   3.840  19.122  0.00  0.00    +0.000 N 
BRANCH  23  25
ATOM     25  N   UNL     1       2.124   3.057  20.961  0.00  0.00    +0.000 N 
ATOM     26  O   UNL     1       1.006   3.583  20.934  0.00  0.00    +0.000 OA
ATOM     27  O   UNL     1       2.730   2.662  21.956  0.00  0.00    +0.000 OA
ENDBRANCH  23  25
ENDBRANCH  18  24
ENDBRANCH  17  18
ENDBRANCH  16  17
ENDBRANCH   1  16
TORSDOF 8
ENDMDL
MODEL 2
REMARK VINA RESULT:      -6.8      3.579     10.260
REMARK  Name = 
REMARK  9 active torsions:
REMARK  status: ('A' for Active; 'I' for Inactive)
REMARK    1  A    between atoms: C_1  and  C_2
REMARK    2  A    between atoms: C_5  and  N_6
REMARK    3  A    between atoms: N_9  and  C_10
REMARK    4  A    between atoms: C_10  and  C_11
REMARK    5  A    between atoms: C_11  and  S_12
REMARK    6  A    between atoms: S_12  and  C_13
REMARK    7  A    between atoms: C_13  and  N_15
REMARK    8  A    between atoms: C_18  and  C_19
REMARK    9  A    between atoms: C_19  and  C_20
REMARK                            x       y       z     vdW  Elec       q    Type
REMARK                         _______ _______ _______ _____ _____    ______ ____
ROOT
ATOM      1  C   UNL     1       1.460   8.427  20.331  0.00  0.00    +0.000 C 
ATOM      2  S   UNL     1       1.100   8.860  21.915  0.00  0.00    +0.000 S 
ENDROOT
BRANCH   1   3
ATOM      3  N   UNL     1       2.002   7.206  19.931  0.00  0.00    +0.000 N 
ATOM      4  C   UNL     1       2.953   7.089  18.820  0.00  0.00    +0.000 C 
ATOM      5  C   UNL     1       2.544   5.950  17.900  0.00  0.00    +0.000 C 
ATOM      6  C   UNL     1       2.476   4.611  18.656  0.00  0.00    +0.000 C 
ATOM      7  C   UNL     1       1.555   4.769  19.878  0.00  0.00    +0.000 C 
ATOM      8  C   UNL     1       1.885   5.988  20.747  0.00  0.00    +0.000 C 
BRANCH   6   9
ATOM      9  C   UNL     1       3.847   4.065  19.100  0.00  0.00    +0.000 C 
BRANCH   9  10
ATOM     10  C   UNL     1       4.953   4.196  18.081  0.00  0.00    +0.000 A 
ATOM     11  C   UNL     1       4.761   3.729  16.774  0.00  0.00    +0.000 A 
ATOM     12  C   UNL     1       5.759   3.890  15.810  0.00  0.00    +0.000 A 
ATOM     13  C   UNL     1       6.954   4.522  16.144  0.00  0.00    +0.000 A 
ATOM     14  C   UNL     1       7.157   4.984  17.443  0.00  0.00    +0.000 A 
ATOM     15  C   UNL     1       6.163   4.823  18.408  0.00  0.00    +0.000 A 
ENDBRANCH   9  10
ENDBRANCH   6   9
ENDBRANCH   1   3
BRANCH   1  16
ATOM     16  S   UNL     1       1.089   9.566  19.025  0.00  0.00    +0.000 S 
BRANCH  16  17
ATOM     17  C   UNL     1      -0.537  10.186  19.587  0.00  0.00    +0.000 C 
BRANCH  17  18
ATOM     18  C   UNL     1      -0.880  11.546  18.978  0.00  0.00    +0.000 C 
BRANCH  18  24
ATOM     19  C   UNL     1      -2.327  13.170  21.194  0.00  0.00    +0.000 C 
ATOM     20  C   UNL     1      -2.974  12.552  20.008  0.00  0.00    +0.000 A 
ATOM     21  N   UNL     1      -4.273  12.558  19.782  0.00  0.00    +0.000 NA
ATOM     22  C   UNL     1      -4.476  11.832  18.643  0.00  0.00    +0.000 A 
ATOM     23  C   UNL     1      -3.272  11.405  18.156  0.00  0.00    +0.000 A 
ATOM     24  N   UNL     1      -2.302  11.866  19.010  0.00  0.00    +0.000 N 
BRANCH  23  25
ATOM     25  N   UNL     1      -3.016  10.633  17.007  0.00  0.00    +0.000 N 
ATOM     26  O   UNL     1      -3.085   9.405  17.131  0.00  0.00    +0.000 OA
ATOM     27  O   UNL     1      -2.751  11.258  15.981  0.00  0.00    +0.000 OA
ENDBRANCH  23  25
ENDBRANCH  18  24
ENDBRANCH  17  18
ENDBRANCH  16  17
ENDBRANCH   1  16
TORSDOF 8
ENDMDL
MODEL 3
REMARK VINA RESULT:      -6.7      3.619     10.347
REMARK  Name = 
REMARK  9 active torsions:
REMARK  status: ('A' for Active; 'I' for Inactive)
REMARK    1  A    between atoms: C_1  and  C_2
REMARK    2  A    between atoms: C_5  and  N_6
REMARK    3  A    between atoms: N_9  and  C_10
REMARK    4  A    between atoms: C_10  and  C_11
REMARK    5  A    between atoms: C_11  and  S_12
REMARK    6  A    between atoms: S_12  and  C_13
REMARK    7  A    between atoms: C_13  and  N_15
REMARK    8  A    between atoms: C_18  and  C_19
REMARK    9  A    between atoms: C_19  and  C_20
REMARK                            x       y       z     vdW  Elec       q    Type
REMARK                         _______ _______ _______ _____ _____    ______ ____
ROOT
ATOM      1  C   UNL     1       3.214   3.947  19.537  0.00  0.00    +0.000 C 
ATOM      2  S   UNL     1       3.276   2.661  20.618  0.00  0.00    +0.000 S 
ENDROOT
BRANCH   1   3
ATOM      3  N   UNL     1       4.209   4.279  18.618  0.00  0.00    +0.000 N 
ATOM      4  C   UNL     1       5.594   4.551  19.015  0.00  0.00    +0.000 C 
ATOM      5  C   UNL     1       6.092   5.817  18.339  0.00  0.00    +0.000 C 
ATOM      6  C   UNL     1       6.015   5.706  16.805  0.00  0.00    +0.000 C 
ATOM      7  C   UNL     1       4.581   5.321  16.400  0.00  0.00    +0.000 C 
ATOM      8  C   UNL     1       4.025   4.116  17.168  0.00  0.00    +0.000 C 
BRANCH   6   9
ATOM      9  C   UNL     1       7.018   4.710  16.192  0.00  0.00    +0.000 C 
BRANCH   9  10
ATOM     10  C   UNL     1       6.953   4.571  14.691  0.00  0.00    +0.000 A 
ATOM     11  C   UNL     1       7.761   5.375  13.876  0.00  0.00    +0.000 A 
ATOM     12  C   UNL     1       7.745   5.220  12.489  0.00  0.00    +0.000 A 
ATOM     13  C   UNL     1       6.924   4.259  11.905  0.00  0.00    +0.000 A 
ATOM     14  C   UNL     1       6.111   3.459  12.706  0.00  0.00    +0.000 A 
ATOM     15  C   UNL     1       6.124   3.613  14.092  0.00  0.00    +0.000 A 
ENDBRANCH   9  10
ENDBRANCH   6   9
ENDBRANCH   1   3
BRANCH   1  16
ATOM     16  S   UNL     1       1.761   4.961  19.494  0.00  0.00    +0.000 S 
BRANCH  16  17
ATOM     17  C   UNL     1       2.525   6.622  19.466  0.00  0.00    +0.000 C 
BRANCH  17  18
ATOM     18  C   UNL     1       1.999   7.520  20.587  0.00  0.00    +0.000 C 
BRANCH  18  24
ATOM     19  C   UNL     1       2.206   8.789  17.760  0.00  0.00    +0.000 C 
ATOM     20  C   UNL     1       1.356   9.284  18.874  0.00  0.00    +0.000 A 
ATOM     21  N   UNL     1       0.625  10.380  18.822  0.00  0.00    +0.000 NA
ATOM     22  C   UNL     1       0.057  10.531  20.054  0.00  0.00    +0.000 A 
ATOM     23  C   UNL     1       0.428   9.488  20.857  0.00  0.00    +0.000 A 
ATOM     24  N   UNL     1       1.248   8.677  20.115  0.00  0.00    +0.000 N 
BRANCH  23  25
ATOM     25  N   UNL     1       0.072   9.245  22.196  0.00  0.00    +0.000 N 
ATOM     26  O   UNL     1       0.699   9.865  23.063  0.00  0.00    +0.000 OA
ATOM     27  O   UNL     1      -0.836   8.437  22.380  0.00  0.00    +0.000 OA
ENDBRANCH  23  25
ENDBRANCH  18  24
ENDBRANCH  17  18
ENDBRANCH  16  17
ENDBRANCH   1  16
TORSDOF 8
ENDMDL
MODEL 4
REMARK VINA RESULT:      -6.7      4.160     10.264
REMARK  Name = 
REMARK  9 active torsions:
REMARK  status: ('A' for Active; 'I' for Inactive)
REMARK    1  A    between atoms: C_1  and  C_2
REMARK    2  A    between atoms: C_5  and  N_6
REMARK    3  A    between atoms: N_9  and  C_10
REMARK    4  A    between atoms: C_10  and  C_11
REMARK    5  A    between atoms: C_11  and  S_12
REMARK    6  A    between atoms: S_12  and  C_13
REMARK    7  A    between atoms: C_13  and  N_15
REMARK    8  A    between atoms: C_18  and  C_19
REMARK    9  A    between atoms: C_19  and  C_20
REMARK                            x       y       z     vdW  Elec       q    Type
REMARK                         _______ _______ _______ _____ _____    ______ ____
ROOT
ATOM      1  C   UNL     1       1.457   8.438  20.319  0.00  0.00    +0.000 C 
ATOM      2  S   UNL     1       1.082   8.854  21.904  0.00  0.00    +0.000 S 
ENDROOT
BRANCH   1   3
ATOM      3  N   UNL     1       2.026   7.230  19.914  0.00  0.00    +0.000 N 
ATOM      4  C   UNL     1       2.983   7.140  18.805  0.00  0.00    +0.000 C 
ATOM      5  C   UNL     1       2.600   5.998  17.878  0.00  0.00    +0.000 C 
ATOM      6  C   UNL     1       2.559   4.653  18.626  0.00  0.00    +0.000 C 
ATOM      7  C   UNL     1       1.632   4.785  19.847  0.00  0.00    +0.000 C 
ATOM      8  C   UNL     1       1.933   6.006  20.723  0.00  0.00    +0.000 C 
BRANCH   6   9
ATOM      9  C   UNL     1       3.940   4.134  19.071  0.00  0.00    +0.000 C 
BRANCH   9  10
ATOM     10  C   UNL     1       5.027   4.221  18.028  0.00  0.00    +0.000 A 
ATOM     11  C   UNL     1       4.781   3.782  16.721  0.00  0.00    +0.000 A 
ATOM     12  C   UNL     1       5.763   3.903  15.736  0.00  0.00    +0.000 A 
ATOM     13  C   UNL     1       6.997   4.467  16.048  0.00  0.00    +0.000 A 
ATOM     14  C   UNL     1       7.254   4.900  17.348  0.00  0.00    +0.000 A 
ATOM     15  C   UNL     1       6.276   4.778  18.334  0.00  0.00    +0.000 A 
ENDBRANCH   9  10
ENDBRANCH   6   9
ENDBRANCH   1   3
BRANCH   1  16
ATOM     16  S   UNL     1       1.067   9.576  19.018  0.00  0.00    +0.000 S 
BRANCH  16  17
ATOM     17  C   UNL     1      -0.544  10.206  19.610  0.00  0.00    +0.000 C 
BRANCH  17  18
ATOM     18  C   UNL     1      -1.084  11.333  18.729  0.00  0.00    +0.000 C 
BRANCH  18  24
ATOM     19  C   UNL     1      -3.092  10.147  16.678  0.00  0.00    +0.000 C 
ATOM     20  C   UNL     1      -3.444  10.992  17.849  0.00  0.00    +0.000 A 
ATOM     21  N   UNL     1      -4.665  11.406  18.128  0.00  0.00    +0.000 NA
ATOM     22  C   UNL     1      -4.564  12.210  19.226  0.00  0.00    +0.000 A 
ATOM     23  C   UNL     1      -3.260  12.258  19.637  0.00  0.00    +0.000 A 
ATOM     24  N   UNL     1      -2.535  11.476  18.775  0.00  0.00    +0.000 N 
BRANCH  23  25
ATOM     25  N   UNL     1      -2.711  12.962  20.724  0.00  0.00    +0.000 N 
ATOM     26  O   UNL     1      -2.718  12.392  21.821  0.00  0.00    +0.000 OA
ATOM     27  O   UNL     1      -2.270  14.084  20.479  0.00  0.00    +0.000 OA
ENDBRANCH  23  25
ENDBRANCH  18  24
ENDBRANCH  17  18
ENDBRANCH  16  17
ENDBRANCH   1  16
TORSDOF 8
ENDMDL
MODEL 5
REMARK VINA RESULT:      -6.6      6.409     10.296
REMARK  Name = 
REMARK  9 active torsions:
REMARK  status: ('A' for Active; 'I' for Inactive)
REMARK    1  A    between atoms: C_1  and  C_2
REMARK    2  A    between atoms: C_5  and  N_6
REMARK    3  A    between atoms: N_9  and  C_10
REMARK    4  A    between atoms: C_10  and  C_11
REMARK    5  A    between atoms: C_11  and  S_12
REMARK    6  A    between atoms: S_12  and  C_13
REMARK    7  A    between atoms: C_13  and  N_15
REMARK    8  A    between atoms: C_18  and  C_19
REMARK    9  A    between atoms: C_19  and  C_20
REMARK                            x       y       z     vdW  Elec       q    Type
REMARK                         _______ _______ _______ _____ _____    ______ ____
ROOT
ATOM      1  C   UNL     1       4.023   6.050  18.143  0.00  0.00    +0.000 C 
ATOM      2  S   UNL     1       2.774   7.173  18.094  0.00  0.00    +0.000 S 
ENDROOT
BRANCH   1   3
ATOM      3  N   UNL     1       4.819   5.679  17.060  0.00  0.00    +0.000 N 
ATOM      4  C   UNL     1       4.453   4.592  16.145  0.00  0.00    +0.000 C 
ATOM      5  C   UNL     1       5.647   3.680  15.915  0.00  0.00    +0.000 C 
ATOM      6  C   UNL     1       6.846   4.452  15.335  0.00  0.00    +0.000 C 
ATOM      7  C   UNL     1       7.160   5.651  16.247  0.00  0.00    +0.000 C 
ATOM      8  C   UNL     1       5.936   6.510  16.584  0.00  0.00    +0.000 C 
BRANCH   6   9
ATOM      9  C   UNL     1       6.644   4.935  13.885  0.00  0.00    +0.000 C 
BRANCH   9  10
ATOM     10  C   UNL     1       6.259   3.863  12.897  0.00  0.00    +0.000 A 
ATOM     11  C   UNL     1       4.917   3.702  12.524  0.00  0.00    +0.000 A 
ATOM     12  C   UNL     1       4.556   2.746  11.573  0.00  0.00    +0.000 A 
ATOM     13  C   UNL     1       5.531   1.945  10.984  0.00  0.00    +0.000 A 
ATOM     14  C   UNL     1       6.867   2.092  11.354  0.00  0.00    +0.000 A 
ATOM     15  C   UNL     1       7.231   3.045  12.305  0.00  0.00    +0.000 A 
ENDBRANCH   9  10
ENDBRANCH   6   9
ENDBRANCH   1   3
BRANCH   1  16
ATOM     16  S   UNL     1       4.430   5.287  19.690  0.00  0.00    +0.000 S 
BRANCH  16  17
ATOM     17  C   UNL     1       2.755   5.036  20.379  0.00  0.00    +0.000 C 
BRANCH  17  18
ATOM     18  C   UNL     1       2.494   3.575  20.749  0.00  0.00    +0.000 C 
BRANCH  18  24
ATOM     19  C   UNL     1       5.026   1.777  20.747  0.00  0.00    +0.000 C 
ATOM     20  C   UNL     1       4.009   1.846  19.666  0.00  0.00    +0.000 A 
ATOM     21  N   UNL     1       4.094   1.194  18.523  0.00  0.00    +0.000 NA
ATOM     22  C   UNL     1       3.017   1.574  17.774  0.00  0.00    +0.000 A 
ATOM     23  C   UNL     1       2.251   2.451  18.492  0.00  0.00    +0.000 A 
ATOM     24  N   UNL     1       2.866   2.626  19.706  0.00  0.00    +0.000 N 
BRANCH  23  25
ATOM     25  N   UNL     1       1.056   3.087  18.108  0.00  0.00    +0.000 N 
ATOM     26  O   UNL     1       0.003   2.612  18.547  0.00  0.00    +0.000 OA
ATOM     27  O   UNL     1       1.174   4.064  17.369  0.00  0.00    +0.000 OA
ENDBRANCH  23  25
ENDBRANCH  18  24
ENDBRANCH  17  18
ENDBRANCH  16  17
ENDBRANCH   1  16
TORSDOF 8
ENDMDL
MODEL 6
REMARK VINA RESULT:      -6.6      3.496     10.241
REMARK  Name = 
REMARK  9 active torsions:
REMARK  status: ('A' for Active; 'I' for Inactive)
REMARK    1  A    between atoms: C_1  and  C_2
REMARK    2  A    between atoms: C_5  and  N_6
REMARK    3  A    between atoms: N_9  and  C_10
REMARK    4  A    between atoms: C_10  and  C_11
REMARK    5  A    between atoms: C_11  and  S_12
REMARK    6  A    between atoms: S_12  and  C_13
REMARK    7  A    between atoms: C_13  and  N_15
REMARK    8  A    between atoms: C_18  and  C_19
REMARK    9  A    between atoms: C_19  and  C_20
REMARK                            x       y       z     vdW  Elec       q    Type
REMARK                         _______ _______ _______ _____ _____    ______ ____
ROOT
ATOM      1  C   UNL     1       1.378   8.526  20.337  0.00  0.00    +0.000 C 
ATOM      2  S   UNL     1       1.036   8.946  21.929  0.00  0.00    +0.000 S 
ENDROOT
BRANCH   1   3
ATOM      3  N   UNL     1       1.959   7.326  19.926  0.00  0.00    +0.000 N 
ATOM      4  C   UNL     1       2.901   7.248  18.804  0.00  0.00    +0.000 C 
ATOM      5  C   UNL     1       2.522   6.099  17.884  0.00  0.00    +0.000 C 
ATOM      6  C   UNL     1       2.510   4.755  18.633  0.00  0.00    +0.000 C 
ATOM      7  C   UNL     1       1.598   4.875  19.867  0.00  0.00    +0.000 C 
ATOM      8  C   UNL     1       1.894   6.102  20.737  0.00  0.00    +0.000 C 
BRANCH   6   9
ATOM      9  C   UNL     1       3.905   4.257  19.060  0.00  0.00    +0.000 C 
BRANCH   9  10
ATOM     10  C   UNL     1       4.971   4.339  17.996  0.00  0.00    +0.000 A 
ATOM     11  C   UNL     1       6.227   4.881  18.301  0.00  0.00    +0.000 A 
ATOM     12  C   UNL     1       7.237   4.916  17.339  0.00  0.00    +0.000 A 
ATOM     13  C   UNL     1       7.002   4.408  16.063  0.00  0.00    +0.000 A 
ATOM     14  C   UNL     1       5.754   3.874  15.747  0.00  0.00    +0.000 A 
ATOM     15  C   UNL     1       4.743   3.839  16.707  0.00  0.00    +0.000 A 
ENDBRANCH   9  10
ENDBRANCH   6   9
ENDBRANCH   1   3
BRANCH   1  16
ATOM     16  S   UNL     1       0.933   9.647  19.040  0.00  0.00    +0.000 S 
BRANCH  16  17
ATOM     17  C   UNL     1       0.038  10.919  20.002  0.00  0.00    +0.000 C 
BRANCH  17  18
ATOM     18  C   UNL     1      -0.519  12.032  19.113  0.00  0.00    +0.000 C 
BRANCH  18  24
ATOM     19  C   UNL     1      -1.971  13.686  21.304  0.00  0.00    +0.000 C 
ATOM     20  C   UNL     1      -2.630  12.913  20.220  0.00  0.00    +0.000 A 
ATOM     21  N   UNL     1      -3.936  12.775  20.093  0.00  0.00    +0.000 NA
ATOM     22  C   UNL     1      -4.140  11.941  19.031  0.00  0.00    +0.000 A 
ATOM     23  C   UNL     1      -2.933  11.594  18.487  0.00  0.00    +0.000 A 
ATOM     24  N   UNL     1      -1.960  12.215  19.228  0.00  0.00    +0.000 N 
BRANCH  23  25
ATOM     25  N   UNL     1      -2.679  10.758  17.384  0.00  0.00    +0.000 N 
ATOM     26  O   UNL     1      -2.684   9.540  17.592  0.00  0.00    +0.000 OA
ATOM     27  O   UNL     1      -2.478  11.322  16.310  0.00  0.00    +0.000 OA
ENDBRANCH  23  25
ENDBRANCH  18  24
ENDBRANCH  17  18
ENDBRANCH  16  17
ENDBRANCH   1  16
TORSDOF 8
ENDMDL
MODEL 7
REMARK VINA RESULT:      -6.6      6.070     10.850
REMARK  Name = 
REMARK  9 active torsions:
REMARK  status: ('A' for Active; 'I' for Inactive)
REMARK    1  A    between atoms: C_1  and  C_2
REMARK    2  A    between atoms: C_5  and  N_6
REMARK    3  A    between atoms: N_9  and  C_10
REMARK    4  A    between atoms: C_10  and  C_11
REMARK    5  A    between atoms: C_11  and  S_12
REMARK    6  A    between atoms: S_12  and  C_13
REMARK    7  A    between atoms: C_13  and  N_15
REMARK    8  A    between atoms: C_18  and  C_19
REMARK    9  A    between atoms: C_19  and  C_20
REMARK                            x       y       z     vdW  Elec       q    Type
REMARK                         _______ _______ _______ _____ _____    ______ ____
ROOT
ATOM      1  C   UNL     1       7.328   6.649  17.744  0.00  0.00    +0.000 C 
ATOM      2  S   UNL     1       7.863   8.242  17.800  0.00  0.00    +0.000 S 
ENDROOT
BRANCH   1   3
ATOM      3  N   UNL     1       6.845   5.999  16.608  0.00  0.00    +0.000 N 
ATOM      4  C   UNL     1       5.702   6.498  15.837  0.00  0.00    +0.000 C 
ATOM      5  C   UNL     1       4.734   5.362  15.545  0.00  0.00    +0.000 C 
ATOM      6  C   UNL     1       5.418   4.224  14.765  0.00  0.00    +0.000 C 
ATOM      7  C   UNL     1       6.674   3.774  15.530  0.00  0.00    +0.000 C 
ATOM      8  C   UNL     1       7.598   4.929  15.936  0.00  0.00    +0.000 C 
BRANCH   6   9
ATOM      9  C   UNL     1       5.789   4.588  13.314  0.00  0.00    +0.000 C 
BRANCH   9  10
ATOM     10  C   UNL     1       6.152   3.420  12.430  0.00  0.00    +0.000 A 
ATOM     11  C   UNL     1       5.170   2.495  12.051  0.00  0.00    +0.000 A 
ATOM     12  C   UNL     1       5.484   1.439  11.194  0.00  0.00    +0.000 A 
ATOM     13  C   UNL     1       6.781   1.300  10.706  0.00  0.00    +0.000 A 
ATOM     14  C   UNL     1       7.767   2.210  11.083  0.00  0.00    +0.000 A 
ATOM     15  C   UNL     1       7.456   3.265  11.941  0.00  0.00    +0.000 A 
ENDBRANCH   9  10
ENDBRANCH   6   9
ENDBRANCH   1   3
BRANCH   1  16
ATOM     16  S   UNL     1       7.414   5.664  19.214  0.00  0.00    +0.000 S 
BRANCH  16  17
ATOM     17  C   UNL     1       5.911   4.643  19.009  0.00  0.00    +0.000 C 
BRANCH  17  18
ATOM     18  C   UNL     1       4.666   5.324  19.577  0.00  0.00    +0.000 C 
BRANCH  18  24
ATOM     19  C   UNL     1       2.753   7.198  18.004  0.00  0.00    +0.000 C 
ATOM     20  C   UNL     1       2.537   5.750  18.256  0.00  0.00    +0.000 A 
ATOM     21  N   UNL     1       1.455   5.085  17.897  0.00  0.00    +0.000 NA
ATOM     22  C   UNL     1       1.603   3.813  18.369  0.00  0.00    +0.000 A 
ATOM     23  C   UNL     1       2.811   3.699  18.999  0.00  0.00    +0.000 A 
ATOM     24  N   UNL     1       3.424   4.924  18.926  0.00  0.00    +0.000 N 
BRANCH  23  25
ATOM     25  N   UNL     1       3.368   2.569  19.626  0.00  0.00    +0.000 N 
ATOM     26  O   UNL     1       3.296   2.520  20.859  0.00  0.00    +0.000 OA
ATOM     27  O   UNL     1       3.874   1.729  18.883  0.00  0.00    +0.000 OA
ENDBRANCH  23  25
ENDBRANCH  18  24
ENDBRANCH  17  18
ENDBRANCH  16  17
ENDBRANCH   1  16
TORSDOF 8
ENDMDL
MODEL 8
REMARK VINA RESULT:      -6.6      4.036     10.115
REMARK  Name = 
REMARK  9 active torsions:
REMARK  status: ('A' for Active; 'I' for Inactive)
REMARK    1  A    between atoms: C_1  and  C_2
REMARK    2  A    between atoms: C_5  and  N_6
REMARK    3  A    between atoms: N_9  and  C_10
REMARK    4  A    between atoms: C_10  and  C_11
REMARK    5  A    between atoms: C_11  and  S_12
REMARK    6  A    between atoms: S_12  and  C_13
REMARK    7  A    between atoms: C_13  and  N_15
REMARK    8  A    between atoms: C_18  and  C_19
REMARK    9  A    between atoms: C_19  and  C_20
REMARK                            x       y       z     vdW  Elec       q    Type
REMARK                         _______ _______ _______ _____ _____    ______ ____
ROOT
ATOM      1  C   UNL     1       0.753   9.140  20.545  0.00  0.00    +0.000 C 
ATOM      2  S   UNL     1      -0.234   9.059  21.904  0.00  0.00    +0.000 S 
ENDROOT
BRANCH   1   3
ATOM      3  N   UNL     1       1.573   8.113  20.080  0.00  0.00    +0.000 N 
ATOM      4  C   UNL     1       2.391   8.241  18.869  0.00  0.00    +0.000 C 
ATOM      5  C   UNL     1       2.226   7.008  17.995  0.00  0.00    +0.000 C 
ATOM      6  C   UNL     1       2.625   5.725  18.746  0.00  0.00    +0.000 C 
ATOM      7  C   UNL     1       1.836   5.648  20.065  0.00  0.00    +0.000 C 
ATOM      8  C   UNL     1       1.898   6.934  20.898  0.00  0.00    +0.000 C 
BRANCH   6   9
ATOM      9  C   UNL     1       4.135   5.603  19.031  0.00  0.00    +0.000 C 
BRANCH   9  10
ATOM     10  C   UNL     1       4.996   5.318  17.825  0.00  0.00    +0.000 A 
ATOM     11  C   UNL     1       4.537   4.452  16.824  0.00  0.00    +0.000 A 
ATOM     12  C   UNL     1       5.304   4.220  15.681  0.00  0.00    +0.000 A 
ATOM     13  C   UNL     1       6.535   4.853  15.527  0.00  0.00    +0.000 A 
ATOM     14  C   UNL     1       7.004   5.711  16.521  0.00  0.00    +0.000 A 
ATOM     15  C   UNL     1       6.240   5.944  17.665  0.00  0.00    +0.000 A 
ENDBRANCH   9  10
ENDBRANCH   6   9
ENDBRANCH   1   3
BRANCH   1  16
ATOM     16  S   UNL     1       0.741  10.615  19.564  0.00  0.00    +0.000 S 
BRANCH  16  17
ATOM     17  C   UNL     1      -0.781  10.345  18.588  0.00  0.00    +0.000 C 
BRANCH  17  18
ATOM     18  C   UNL     1      -1.399  11.657  18.103  0.00  0.00    +0.000 C 
BRANCH  18  24
ATOM     19  C   UNL     1      -3.146  12.696  20.451  0.00  0.00    +0.000 C 
ATOM     20  C   UNL     1      -3.654  12.092  19.191  0.00  0.00    +0.000 A 
ATOM     21  N   UNL     1      -4.927  11.857  18.940  0.00  0.00    +0.000 NA
ATOM     22  C   UNL     1      -4.977  11.234  17.726  0.00  0.00    +0.000 A 
ATOM     23  C   UNL     1      -3.711  11.120  17.221  0.00  0.00    +0.000 A 
ATOM     24  N   UNL     1      -2.856  11.673  18.140  0.00  0.00    +0.000 N 
BRANCH  23  25
ATOM     25  N   UNL     1      -3.305  10.548  16.001  0.00  0.00    +0.000 N 
ATOM     26  O   UNL     1      -3.285  11.291  15.013  0.00  0.00    +0.000 OA
ATOM     27  O   UNL     1      -3.002   9.356  16.033  0.00  0.00    +0.000 OA
ENDBRANCH  23  25
ENDBRANCH  18  24
ENDBRANCH  17  18
ENDBRANCH  16  17
ENDBRANCH   1  16
TORSDOF 8
ENDMDL
MODEL 9
REMARK VINA RESULT:      -6.5      1.843      2.633
REMARK  Name = 
REMARK  9 active torsions:
REMARK  status: ('A' for Active; 'I' for Inactive)
REMARK    1  A    between atoms: C_1  and  C_2
REMARK    2  A    between atoms: C_5  and  N_6
REMARK    3  A    between atoms: N_9  and  C_10
REMARK    4  A    between atoms: C_10  and  C_11
REMARK    5  A    between atoms: C_11  and  S_12
REMARK    6  A    between atoms: S_12  and  C_13
REMARK    7  A    between atoms: C_13  and  N_15
REMARK    8  A    between atoms: C_18  and  C_19
REMARK    9  A    between atoms: C_19  and  C_20
REMARK                            x       y       z     vdW  Elec       q    Type
REMARK                         _______ _______ _______ _____ _____    ______ ____
ROOT
ATOM      1  C   UNL     1       1.302   9.014  19.778  0.00  0.00    +0.000 C 
ATOM      2  S   UNL     1       1.742   9.083  18.157  0.00  0.00    +0.000 S 
ENDROOT
BRANCH   1   3
ATOM      3  N   UNL     1       0.649  10.025  20.482  0.00  0.00    +0.000 N 
ATOM      4  C   UNL     1       0.665  10.107  21.946  0.00  0.00    +0.000 C 
ATOM      5  C   UNL     1      -0.740  10.355  22.470  0.00  0.00    +0.000 C 
ATOM      6  C   UNL     1      -1.338  11.652  21.894  0.00  0.00    +0.000 C 
ATOM      7  C   UNL     1      -1.259  11.603  20.358  0.00  0.00    +0.000 C 
ATOM      8  C   UNL     1       0.129  11.233  19.822  0.00  0.00    +0.000 C 
BRANCH   6   9
ATOM      9  C   UNL     1      -0.669  12.940  22.412  0.00  0.00    +0.000 C 
BRANCH   9  10
ATOM     10  C   UNL     1      -1.497  13.751  23.379  0.00  0.00    +0.000 A 
ATOM     11  C   UNL     1      -2.810  13.362  23.677  0.00  0.00    +0.000 A 
ATOM     12  C   UNL     1      -3.567  14.075  24.607  0.00  0.00    +0.000 A 
ATOM     13  C   UNL     1      -3.018  15.182  25.251  0.00  0.00    +0.000 A 
ATOM     14  C   UNL     1      -1.716  15.581  24.956  0.00  0.00    +0.000 A 
ATOM     15  C   UNL     1      -0.957  14.871  24.026  0.00  0.00    +0.000 A 
ENDBRANCH   9  10
ENDBRANCH   6   9
ENDBRANCH   1   3
BRANCH   1  16
ATOM     16  S   UNL     1       1.629   7.532  20.693  0.00  0.00    +0.000 S 
BRANCH  16  17
ATOM     17  C   UNL     1       2.577   6.584  19.449  0.00  0.00    +0.000 C 
BRANCH  17  18
ATOM     18  C   UNL     1       3.193   5.313  20.036  0.00  0.00    +0.000 C 
BRANCH  18  24
ATOM     19  C   UNL     1       0.944   3.176  20.151  0.00  0.00    +0.000 C 
ATOM     20  C   UNL     1       2.110   3.161  19.230  0.00  0.00    +0.000 A 
ATOM     21  N   UNL     1       2.375   2.187  18.381  0.00  0.00    +0.000 NA
ATOM     22  C   UNL     1       3.557   2.504  17.777  0.00  0.00    +0.000 A 
ATOM     23  C   UNL     1       3.999   3.710  18.248  0.00  0.00    +0.000 A 
ATOM     24  N   UNL     1       3.080   4.147  19.168  0.00  0.00    +0.000 N 
BRANCH  23  25
ATOM     25  N   UNL     1       5.167   4.412  17.897  0.00  0.00    +0.000 N 
ATOM     26  O   UNL     1       5.092   5.174  16.927  0.00  0.00    +0.000 OA
ATOM     27  O   UNL     1       6.158   4.202  18.595  0.00  0.00    +0.000 OA
ENDBRANCH  23  25
ENDBRANCH  18  24
ENDBRANCH  17  18
ENDBRANCH  16  17
ENDBRANCH   1  16
TORSDOF 8
ENDMDL
