MODEL 1
REMARK VINA RESULT:      -6.5      0.000      0.000
REMARK  Name = 
REMARK  8 active torsions:
REMARK  status: ('A' for Active; 'I' for Inactive)
REMARK    1  A    between atoms: C_1  and  O_2
REMARK    2  A    between atoms: O_2  and  C_3
REMARK    3  A    between atoms: C_9  and  C_10
REMARK    4  A    between atoms: C_21  and  C_22
REMARK    5  A    between atoms: N_24  and  C_25
REMARK    6  A    between atoms: N_28  and  C_29
REMARK    7  A    between atoms: C_29  and  C_30
REMARK    8  A    between atoms: C_30  and  O_31
REMARK                            x       y       z     vdW  Elec       q    Type
REMARK                         _______ _______ _______ _____ _____    ______ ____
ROOT
ATOM      1  C   UNL     1      -1.334  11.755  19.613  0.00  0.00    +0.000 C 
ATOM      2  C   UNL     1      -1.005  10.470  20.401  0.00  0.00    +0.000 C 
ATOM      3  C   UNL     1       0.142   9.859  19.615  0.00  0.00    +0.000 C 
ATOM      4  C   UNL     1       0.967  11.079  19.243  0.00  0.00    +0.000 C 
ATOM      5  N   UNL     1       0.006  12.184  19.156  0.00  0.00    +0.000 N 
ATOM      6  C   UNL     1       0.378  13.511  18.983  0.00  0.00    +0.000 A 
ATOM      7  C   UNL     1       1.756  13.802  18.424  0.00  0.00    +0.000 A 
ATOM      8  C   UNL     1       2.086  15.081  18.230  0.00  0.00    +0.000 A 
ATOM      9  N   UNL     1       1.195  16.082  18.562  0.00  0.00    +0.000 N 
ATOM     10  N   UNL     1       1.403  17.408  18.434  0.00  0.00    +0.000 NA
ATOM     11  C   UNL     1       0.283  17.952  18.906  0.00  0.00    +0.000 A 
ATOM     12  C   UNL     1      -0.668  17.002  19.349  0.00  0.00    +0.000 A 
ATOM     13  C   UNL     1      -0.063  15.776  19.101  0.00  0.00    +0.000 A 
ATOM     14  N   UNL     1      -0.466  14.475  19.291  0.00  0.00    +0.000 NA
ENDROOT
BRANCH   1  21
ATOM     15  C   UNL     1      -3.665  11.791  18.559  0.00  0.00    +0.000 A 
ATOM     16  N   UNL     1      -4.564  11.578  17.565  0.00  0.00    +0.000 NA
ATOM     17  C   UNL     1      -4.089  11.129  16.385  0.00  0.00    +0.000 A 
ATOM     18  C   UNL     1      -2.753  10.887  16.158  0.00  0.00    +0.000 A 
ATOM     19  F   UNL     1      -2.328  10.476  14.958  0.00  0.00    +0.000 F 
ATOM     20  C   UNL     1      -1.850  11.081  17.194  0.00  0.00    +0.000 A 
ATOM     21  C   UNL     1      -2.293  11.526  18.452  0.00  0.00    +0.000 A 
BRANCH  15  23
ATOM     22  C   UNL     1      -5.567  12.196  19.845  0.00  0.00    +0.000 C 
ATOM     23  O   UNL     1      -4.144  12.322  19.741  0.00  0.00    +0.000 OA
ENDBRANCH  15  23
ENDBRANCH   1  21
BRANCH  12  24
ATOM     24  C   UNL     1      -1.952  17.347  19.919  0.00  0.00    +0.000 C 
ATOM     25  O   UNL     1      -2.501  18.410  19.625  0.00  0.00    +0.000 OA
ATOM     26  N   UNL     1      -2.524  16.440  20.786  0.00  0.00    +0.000 N 
ATOM     27  H   UNL     1      -1.969  15.626  21.039  0.00  0.00    +0.000 HD
BRANCH  26  28
ATOM     28  C   UNL     1      -3.805  16.732  21.426  0.00  0.00    +0.000 C 
ATOM     29  C   UNL     1      -3.654  17.272  22.847  0.00  0.00    +0.000 C 
ATOM     30  C   UNL     1      -3.244  16.186  23.840  0.00  0.00    +0.000 C 
ATOM     31  N   UNL     1      -4.124  15.006  23.829  0.00  0.00    +0.000 NA
ATOM     32  C   UNL     1      -4.347  14.487  22.465  0.00  0.00    +0.000 C 
ATOM     33  C   UNL     1      -4.749  15.538  21.438  0.00  0.00    +0.000 C 
BRANCH  31  34
ATOM     34  C   UNL     1      -3.545  13.906  24.651  0.00  0.00    +0.000 C 
BRANCH  34  35
ATOM     35  C   UNL     1      -3.856  12.487  24.149  0.00  0.00    +0.000 C 
BRANCH  35  36
ATOM     36  O   UNL     1      -4.815  11.856  24.989  0.00  0.00    +0.000 OA
ATOM     37  H   UNL     1      -4.340  11.116  25.414  0.00  0.00    +0.000 HD
ENDBRANCH  35  36
ENDBRANCH  34  35
ENDBRANCH  31  34
ENDBRANCH  26  28
ENDBRANCH  12  24
TORSDOF 7
ENDMDL
MODEL 2
REMARK VINA RESULT:      -6.5      2.745      5.691
REMARK  Name = 
REMARK  8 active torsions:
REMARK  status: ('A' for Active; 'I' for Inactive)
REMARK    1  A    between atoms: C_1  and  O_2
REMARK    2  A    between atoms: O_2  and  C_3
REMARK    3  A    between atoms: C_9  and  C_10
REMARK    4  A    between atoms: C_21  and  C_22
REMARK    5  A    between atoms: N_24  and  C_25
REMARK    6  A    between atoms: N_28  and  C_29
REMARK    7  A    between atoms: C_29  and  C_30
REMARK    8  A    between atoms: C_30  and  O_31
REMARK                            x       y       z     vdW  Elec       q    Type
REMARK                         _______ _______ _______ _____ _____    ______ ____
ROOT
ATOM      1  C   UNL     1      -1.059  12.650  20.343  0.00  0.00    +0.000 C 
ATOM      2  C   UNL     1       0.163  13.489  19.914  0.00  0.00    +0.000 C 
ATOM      3  C   UNL     1       0.681  12.755  18.689  0.00  0.00    +0.000 C 
ATOM      4  C   UNL     1      -0.604  12.366  17.977  0.00  0.00    +0.000 C 
ATOM      5  N   UNL     1      -1.605  12.216  19.039  0.00  0.00    +0.000 N 
ATOM      6  C   UNL     1      -2.956  12.011  18.795  0.00  0.00    +0.000 A 
ATOM      7  C   UNL     1      -3.367  11.480  17.436  0.00  0.00    +0.000 A 
ATOM      8  C   UNL     1      -4.665  11.253  17.228  0.00  0.00    +0.000 A 
ATOM      9  N   UNL     1      -5.582  11.528  18.223  0.00  0.00    +0.000 N 
ATOM     10  N   UNL     1      -6.919  11.362  18.143  0.00  0.00    +0.000 NA
ATOM     11  C   UNL     1      -7.362  11.786  19.326  0.00  0.00    +0.000 A 
ATOM     12  C   UNL     1      -6.335  12.233  20.192  0.00  0.00    +0.000 A 
ATOM     13  C   UNL     1      -5.169  12.042  19.461  0.00  0.00    +0.000 A 
ATOM     14  N   UNL     1      -3.841  12.263  19.739  0.00  0.00    +0.000 NA
ENDROOT
BRANCH   1  21
ATOM     15  C   UNL     1      -0.896  11.507  22.627  0.00  0.00    +0.000 A 
ATOM     16  N   UNL     1      -0.568  10.495  23.471  0.00  0.00    +0.000 NA
ATOM     17  C   UNL     1      -0.069   9.368  22.923  0.00  0.00    +0.000 A 
ATOM     18  C   UNL     1       0.114   9.211  21.568  0.00  0.00    +0.000 A 
ATOM     19  F   UNL     1       0.579   8.059  21.072  0.00  0.00    +0.000 F 
ATOM     20  C   UNL     1      -0.198  10.265  20.721  0.00  0.00    +0.000 A 
ATOM     21  C   UNL     1      -0.700  11.472  21.240  0.00  0.00    +0.000 A 
BRANCH  15  23
ATOM     22  C   UNL     1      -2.867  12.431  23.462  0.00  0.00    +0.000 C 
ATOM     23  O   UNL     1      -1.477  12.631  23.183  0.00  0.00    +0.000 OA
ENDBRANCH  15  23
ENDBRANCH   1  21
BRANCH  12  24
ATOM     24  C   UNL     1      -6.567  12.756  21.520  0.00  0.00    +0.000 C 
ATOM     25  O   UNL     1      -6.569  12.003  22.496  0.00  0.00    +0.000 OA
ATOM     26  N   UNL     1      -6.775  14.114  21.638  0.00  0.00    +0.000 N 
ATOM     27  H   UNL     1      -6.839  14.650  20.777  0.00  0.00    +0.000 HD
BRANCH  26  28
ATOM     28  C   UNL     1      -7.047  14.712  22.944  0.00  0.00    +0.000 C 
ATOM     29  C   UNL     1      -7.806  16.034  22.849  0.00  0.00    +0.000 C 
ATOM     30  C   UNL     1      -6.922  17.176  22.352  0.00  0.00    +0.000 C 
ATOM     31  N   UNL     1      -5.682  17.349  23.126  0.00  0.00    +0.000 NA
ATOM     32  C   UNL     1      -4.946  16.080  23.294  0.00  0.00    +0.000 C 
ATOM     33  C   UNL     1      -5.791  14.909  23.781  0.00  0.00    +0.000 C 
BRANCH  31  34
ATOM     34  C   UNL     1      -4.773  18.323  22.458  0.00  0.00    +0.000 C 
BRANCH  34  35
ATOM     35  C   UNL     1      -3.323  17.844  22.284  0.00  0.00    +0.000 C 
BRANCH  35  36
ATOM     36  O   UNL     1      -2.999  17.712  20.904  0.00  0.00    +0.000 OA
ATOM     37  H   UNL     1      -2.273  18.345  20.747  0.00  0.00    +0.000 HD
ENDBRANCH  35  36
ENDBRANCH  34  35
ENDBRANCH  31  34
ENDBRANCH  26  28
ENDBRANCH  12  24
TORSDOF 7
ENDMDL
MODEL 3
REMARK VINA RESULT:      -6.3      6.196      9.387
REMARK  Name = 
REMARK  8 active torsions:
REMARK  status: ('A' for Active; 'I' for Inactive)
REMARK    1  A    between atoms: C_1  and  O_2
REMARK    2  A    between atoms: O_2  and  C_3
REMARK    3  A    between atoms: C_9  and  C_10
REMARK    4  A    between atoms: C_21  and  C_22
REMARK    5  A    between atoms: N_24  and  C_25
REMARK    6  A    between atoms: N_28  and  C_29
REMARK    7  A    between atoms: C_29  and  C_30
REMARK    8  A    between atoms: C_30  and  O_31
REMARK                            x       y       z     vdW  Elec       q    Type
REMARK                         _______ _______ _______ _____ _____    ______ ____
ROOT
ATOM      1  C   UNL     1       3.895   5.286  17.381  0.00  0.00    +0.000 C 
ATOM      2  C   UNL     1       3.735   4.010  16.529  0.00  0.00    +0.000 C 
ATOM      3  C   UNL     1       3.768   2.893  17.558  0.00  0.00    +0.000 C 
ATOM      4  C   UNL     1       2.954   3.479  18.699  0.00  0.00    +0.000 C 
ATOM      5  N   UNL     1       3.148   4.931  18.606  0.00  0.00    +0.000 N 
ATOM      6  C   UNL     1       2.450   5.848  19.382  0.00  0.00    +0.000 A 
ATOM      7  C   UNL     1       1.802   5.359  20.661  0.00  0.00    +0.000 A 
ATOM      8  C   UNL     1       1.165   6.258  21.414  0.00  0.00    +0.000 A 
ATOM      9  N   UNL     1       1.091   7.574  21.003  0.00  0.00    +0.000 N 
ATOM     10  N   UNL     1       0.470   8.579  21.655  0.00  0.00    +0.000 NA
ATOM     11  C   UNL     1       0.649   9.632  20.859  0.00  0.00    +0.000 A 
ATOM     12  C   UNL     1       1.383   9.338  19.684  0.00  0.00    +0.000 A 
ATOM     13  C   UNL     1       1.682   7.987  19.800  0.00  0.00    +0.000 A 
ATOM     14  N   UNL     1       2.377   7.108  19.003  0.00  0.00    +0.000 NA
ENDROOT
BRANCH   1  21
ATOM     15  C   UNL     1       6.186   6.200  16.700  0.00  0.00    +0.000 A 
ATOM     16  N   UNL     1       7.493   6.507  16.903  0.00  0.00    +0.000 NA
ATOM     17  C   UNL     1       7.993   6.306  18.139  0.00  0.00    +0.000 A 
ATOM     18  C   UNL     1       7.240   5.812  19.180  0.00  0.00    +0.000 A 
ATOM     19  F   UNL     1       7.774   5.664  20.398  0.00  0.00    +0.000 F 
ATOM     20  C   UNL     1       5.915   5.474  18.949  0.00  0.00    +0.000 A 
ATOM     21  C   UNL     1       5.348   5.641  17.674  0.00  0.00    +0.000 A 
BRANCH  15  23
ATOM     22  C   UNL     1       5.999   5.472  14.493  0.00  0.00    +0.000 C 
ATOM     23  O   UNL     1       5.658   6.477  15.454  0.00  0.00    +0.000 OA
ENDBRANCH  15  23
ENDBRANCH   1  21
BRANCH  12  24
ATOM     24  C   UNL     1       1.690  10.311  18.658  0.00  0.00    +0.000 C 
ATOM     25  O   UNL     1       2.084   9.945  17.549  0.00  0.00    +0.000 OA
ATOM     26  N   UNL     1       1.518  11.641  18.975  0.00  0.00    +0.000 N 
ATOM     27  H   UNL     1       1.269  11.861  19.936  0.00  0.00    +0.000 HD
BRANCH  26  28
ATOM     28  C   UNL     1       1.837  12.684  18.001  0.00  0.00    +0.000 C 
ATOM     29  C   UNL     1       3.252  13.237  18.161  0.00  0.00    +0.000 C 
ATOM     30  C   UNL     1       3.386  14.141  19.385  0.00  0.00    +0.000 C 
ATOM     31  N   UNL     1       2.398  15.232  19.431  0.00  0.00    +0.000 NA
ATOM     32  C   UNL     1       1.020  14.748  19.220  0.00  0.00    +0.000 C 
ATOM     33  C   UNL     1       0.840  13.834  18.013  0.00  0.00    +0.000 C 
BRANCH  31  34
ATOM     34  C   UNL     1       2.443  15.931  20.746  0.00  0.00    +0.000 C 
BRANCH  34  35
ATOM     35  C   UNL     1       3.657  15.587  21.623  0.00  0.00    +0.000 C 
BRANCH  35  36
ATOM     36  O   UNL     1       3.254  14.852  22.773  0.00  0.00    +0.000 OA
ATOM     37  H   UNL     1       3.533  13.932  22.604  0.00  0.00    +0.000 HD
ENDBRANCH  35  36
ENDBRANCH  34  35
ENDBRANCH  31  34
ENDBRANCH  26  28
ENDBRANCH  12  24
TORSDOF 7
ENDMDL
MODEL 4
REMARK VINA RESULT:      -6.3      2.872      5.736
REMARK  Name = 
REMARK  8 active torsions:
REMARK  status: ('A' for Active; 'I' for Inactive)
REMARK    1  A    between atoms: C_1  and  O_2
REMARK    2  A    between atoms: O_2  and  C_3
REMARK    3  A    between atoms: C_9  and  C_10
REMARK    4  A    between atoms: C_21  and  C_22
REMARK    5  A    between atoms: N_24  and  C_25
REMARK    6  A    between atoms: N_28  and  C_29
REMARK    7  A    between atoms: C_29  and  C_30
REMARK    8  A    between atoms: C_30  and  O_31
REMARK                            x       y       z     vdW  Elec       q    Type
REMARK                         _______ _______ _______ _____ _____    ______ ____
ROOT
ATOM      1  C   UNL     1      -1.123  12.530  20.340  0.00  0.00    +0.000 C 
ATOM      2  C   UNL     1       0.075  13.247  19.684  0.00  0.00    +0.000 C 
ATOM      3  C   UNL     1       0.333  12.428  18.431  0.00  0.00    +0.000 C 
ATOM      4  C   UNL     1      -1.074  12.120  17.949  0.00  0.00    +0.000 C 
ATOM      5  N   UNL     1      -1.901  12.095  19.160  0.00  0.00    +0.000 N 
ATOM      6  C   UNL     1      -3.286  11.993  19.140  0.00  0.00    +0.000 A 
ATOM      7  C   UNL     1      -3.947  11.448  17.890  0.00  0.00    +0.000 A 
ATOM      8  C   UNL     1      -5.276  11.323  17.899  0.00  0.00    +0.000 A 
ATOM      9  N   UNL     1      -5.999  11.711  19.009  0.00  0.00    +0.000 N 
ATOM     10  N   UNL     1      -7.340  11.654  19.147  0.00  0.00    +0.000 NA
ATOM     11  C   UNL     1      -7.555  12.156  20.362  0.00  0.00    +0.000 A 
ATOM     12  C   UNL     1      -6.372  12.548  21.033  0.00  0.00    +0.000 A 
ATOM     13  C   UNL     1      -5.356  12.234  20.140  0.00  0.00    +0.000 A 
ATOM     14  N   UNL     1      -3.987  12.354  20.197  0.00  0.00    +0.000 NA
ENDROOT
BRANCH   1  21
ATOM     15  C   UNL     1      -0.915  11.376  22.614  0.00  0.00    +0.000 A 
ATOM     16  N   UNL     1      -0.547  10.372  23.451  0.00  0.00    +0.000 NA
ATOM     17  C   UNL     1      -0.002   9.270  22.894  0.00  0.00    +0.000 A 
ATOM     18  C   UNL     1       0.188   9.131  21.538  0.00  0.00    +0.000 A 
ATOM     19  F   UNL     1       0.699   8.003  21.033  0.00  0.00    +0.000 F 
ATOM     20  C   UNL     1      -0.167  10.178  20.700  0.00  0.00    +0.000 A 
ATOM     21  C   UNL     1      -0.717  11.360  21.227  0.00  0.00    +0.000 A 
BRANCH  15  23
ATOM     22  C   UNL     1      -2.896  12.184  23.540  0.00  0.00    +0.000 C 
ATOM     23  O   UNL     1      -1.541  12.471  23.179  0.00  0.00    +0.000 OA
ENDBRANCH  15  23
ENDBRANCH   1  21
BRANCH  12  24
ATOM     24  C   UNL     1      -6.349  13.138  22.354  0.00  0.00    +0.000 C 
ATOM     25  O   UNL     1      -6.946  12.600  23.289  0.00  0.00    +0.000 OA
ATOM     26  N   UNL     1      -5.634  14.306  22.513  0.00  0.00    +0.000 N 
ATOM     27  H   UNL     1      -5.239  14.726  21.676  0.00  0.00    +0.000 HD
BRANCH  26  28
ATOM     28  C   UNL     1      -5.589  14.977  23.811  0.00  0.00    +0.000 C 
ATOM     29  C   UNL     1      -6.318  16.320  23.814  0.00  0.00    +0.000 C 
ATOM     30  C   UNL     1      -5.541  17.403  23.067  0.00  0.00    +0.000 C 
ATOM     31  N   UNL     1      -4.154  17.569  23.533  0.00  0.00    +0.000 NA
ATOM     32  C   UNL     1      -3.430  16.284  23.603  0.00  0.00    +0.000 C 
ATOM     33  C   UNL     1      -4.173  15.170  24.332  0.00  0.00    +0.000 C 
BRANCH  31  34
ATOM     34  C   UNL     1      -3.396  18.474  22.624  0.00  0.00    +0.000 C 
BRANCH  34  35
ATOM     35  C   UNL     1      -1.904  18.630  22.959  0.00  0.00    +0.000 C 
BRANCH  35  36
ATOM     36  O   UNL     1      -1.099  18.309  21.830  0.00  0.00    +0.000 OA
ATOM     37  H   UNL     1      -1.271  17.365  21.649  0.00  0.00    +0.000 HD
ENDBRANCH  35  36
ENDBRANCH  34  35
ENDBRANCH  31  34
ENDBRANCH  26  28
ENDBRANCH  12  24
TORSDOF 7
ENDMDL
MODEL 5
REMARK VINA RESULT:      -6.2      3.145      6.271
REMARK  Name = 
REMARK  8 active torsions:
REMARK  status: ('A' for Active; 'I' for Inactive)
REMARK    1  A    between atoms: C_1  and  O_2
REMARK    2  A    between atoms: O_2  and  C_3
REMARK    3  A    between atoms: C_9  and  C_10
REMARK    4  A    between atoms: C_21  and  C_22
REMARK    5  A    between atoms: N_24  and  C_25
REMARK    6  A    between atoms: N_28  and  C_29
REMARK    7  A    between atoms: C_29  and  C_30
REMARK    8  A    between atoms: C_30  and  O_31
REMARK                            x       y       z     vdW  Elec       q    Type
REMARK                         _______ _______ _______ _____ _____    ______ ____
ROOT
ATOM      1  C   UNL     1      -0.850  11.682  19.329  0.00  0.00    +0.000 C 
ATOM      2  C   UNL     1      -0.986  11.317  17.836  0.00  0.00    +0.000 C 
ATOM      3  C   UNL     1      -2.303  10.562  17.777  0.00  0.00    +0.000 C 
ATOM      4  C   UNL     1      -3.179  11.362  18.726  0.00  0.00    +0.000 C 
ATOM      5  N   UNL     1      -2.256  11.941  19.709  0.00  0.00    +0.000 N 
ATOM      6  C   UNL     1      -2.643  12.868  20.668  0.00  0.00    +0.000 A 
ATOM      7  C   UNL     1      -4.113  12.966  21.021  0.00  0.00    +0.000 A 
ATOM      8  C   UNL     1      -4.464  13.836  21.969  0.00  0.00    +0.000 A 
ATOM      9  N   UNL     1      -3.505  14.626  22.571  0.00  0.00    +0.000 N 
ATOM     10  N   UNL     1      -3.721  15.552  23.528  0.00  0.00    +0.000 NA
ATOM     11  C   UNL     1      -2.510  16.057  23.759  0.00  0.00    +0.000 A 
ATOM     12  C   UNL     1      -1.490  15.477  22.966  0.00  0.00    +0.000 A 
ATOM     13  C   UNL     1      -2.155  14.526  22.202  0.00  0.00    +0.000 A 
ATOM     14  N   UNL     1      -1.735  13.623  21.254  0.00  0.00    +0.000 NA
ENDROOT
BRANCH   1  21
ATOM     15  C   UNL     1       0.751   9.713  19.648  0.00  0.00    +0.000 A 
ATOM     16  N   UNL     1       1.322   8.698  20.346  0.00  0.00    +0.000 NA
ATOM     17  C   UNL     1       0.963   8.555  21.638  0.00  0.00    +0.000 A 
ATOM     18  C   UNL     1       0.058   9.384  22.261  0.00  0.00    +0.000 A 
ATOM     19  F   UNL     1      -0.238   9.222  23.555  0.00  0.00    +0.000 F 
ATOM     20  C   UNL     1      -0.540  10.398  21.526  0.00  0.00    +0.000 A 
ATOM     21  C   UNL     1      -0.220  10.579  20.169  0.00  0.00    +0.000 A 
BRANCH  15  23
ATOM     22  C   UNL     1       1.979   8.813  17.883  0.00  0.00    +0.000 C 
ATOM     23  O   UNL     1       1.177   9.904  18.348  0.00  0.00    +0.000 OA
ENDBRANCH  15  23
ENDBRANCH   1  21
BRANCH  12  24
ATOM     24  C   UNL     1      -0.100  15.870  23.022  0.00  0.00    +0.000 C 
ATOM     25  O   UNL     1       0.450  16.070  24.107  0.00  0.00    +0.000 OA
ATOM     26  N   UNL     1       0.570  16.000  21.824  0.00  0.00    +0.000 N 
ATOM     27  H   UNL     1       0.023  15.896  20.973  0.00  0.00    +0.000 HD
BRANCH  26  28
ATOM     28  C   UNL     1       1.969  16.424  21.798  0.00  0.00    +0.000 C 
ATOM     29  C   UNL     1       2.310  17.285  20.583  0.00  0.00    +0.000 C 
ATOM     30  C   UNL     1       2.386  16.466  19.296  0.00  0.00    +0.000 C 
ATOM     31  N   UNL     1       3.293  15.310  19.378  0.00  0.00    +0.000 NA
ATOM     32  C   UNL     1       3.038  14.482  20.573  0.00  0.00    +0.000 C 
ATOM     33  C   UNL     1       2.945  15.259  21.881  0.00  0.00    +0.000 C 
BRANCH  31  34
ATOM     34  C   UNL     1       3.150  14.439  18.177  0.00  0.00    +0.000 C 
BRANCH  34  35
ATOM     35  C   UNL     1       2.571  13.043  18.452  0.00  0.00    +0.000 C 
BRANCH  35  36
ATOM     36  O   UNL     1       2.507  12.280  17.253  0.00  0.00    +0.000 OA
ATOM     37  H   UNL     1       3.272  11.674  17.290  0.00  0.00    +0.000 HD
ENDBRANCH  35  36
ENDBRANCH  34  35
ENDBRANCH  31  34
ENDBRANCH  26  28
ENDBRANCH  12  24
TORSDOF 7
ENDMDL
MODEL 6
REMARK VINA RESULT:      -6.2      2.520      7.115
REMARK  Name = 
REMARK  8 active torsions:
REMARK  status: ('A' for Active; 'I' for Inactive)
REMARK    1  A    between atoms: C_1  and  O_2
REMARK    2  A    between atoms: O_2  and  C_3
REMARK    3  A    between atoms: C_9  and  C_10
REMARK    4  A    between atoms: C_21  and  C_22
REMARK    5  A    between atoms: N_24  and  C_25
REMARK    6  A    between atoms: N_28  and  C_29
REMARK    7  A    between atoms: C_29  and  C_30
REMARK    8  A    between atoms: C_30  and  O_31
REMARK                            x       y       z     vdW  Elec       q    Type
REMARK                         _______ _______ _______ _____ _____    ______ ____
ROOT
ATOM      1  C   UNL     1      -3.931  13.376  21.859  0.00  0.00    +0.000 C 
ATOM      2  C   UNL     1      -4.729  13.217  23.169  0.00  0.00    +0.000 C 
ATOM      3  C   UNL     1      -6.115  13.719  22.801  0.00  0.00    +0.000 C 
ATOM      4  C   UNL     1      -6.304  13.153  21.403  0.00  0.00    +0.000 C 
ATOM      5  N   UNL     1      -4.953  13.059  20.838  0.00  0.00    +0.000 N 
ATOM      6  C   UNL     1      -4.673  12.447  19.623  0.00  0.00    +0.000 A 
ATOM      7  C   UNL     1      -5.805  12.263  18.634  0.00  0.00    +0.000 A 
ATOM      8  C   UNL     1      -5.513  11.706  17.457  0.00  0.00    +0.000 A 
ATOM      9  N   UNL     1      -4.222  11.296  17.189  0.00  0.00    +0.000 N 
ATOM     10  N   UNL     1      -3.793  10.708  16.053  0.00  0.00    +0.000 NA
ATOM     11  C   UNL     1      -2.500  10.481  16.283  0.00  0.00    +0.000 A 
ATOM     12  C   UNL     1      -2.065  10.911  17.560  0.00  0.00    +0.000 A 
ATOM     13  C   UNL     1      -3.203  11.460  18.138  0.00  0.00    +0.000 A 
ATOM     14  N   UNL     1      -3.443  12.058  19.353  0.00  0.00    +0.000 NA
ENDROOT
BRANCH   1  21
ATOM     15  C   UNL     1      -2.208  15.196  22.376  0.00  0.00    +0.000 A 
ATOM     16  N   UNL     1      -1.663  16.434  22.267  0.00  0.00    +0.000 NA
ATOM     17  C   UNL     1      -2.226  17.284  21.383  0.00  0.00    +0.000 A 
ATOM     18  C   UNL     1      -3.309  16.946  20.605  0.00  0.00    +0.000 A 
ATOM     19  F   UNL     1      -3.809  17.814  19.717  0.00  0.00    +0.000 F 
ATOM     20  C   UNL     1      -3.874  15.687  20.750  0.00  0.00    +0.000 A 
ATOM     21  C   UNL     1      -3.343  14.769  21.673  0.00  0.00    +0.000 A 
BRANCH  15  23
ATOM     22  C   UNL     1      -1.337  14.876  24.515  0.00  0.00    +0.000 C 
ATOM     23  O   UNL     1      -1.584  14.303  23.226  0.00  0.00    +0.000 OA
ENDBRANCH  15  23
ENDBRANCH   1  21
BRANCH  12  24
ATOM     24  C   UNL     1      -0.712  10.757  18.048  0.00  0.00    +0.000 C 
ATOM     25  O   UNL     1      -0.082   9.721  17.826  0.00  0.00    +0.000 OA
ATOM     26  N   UNL     1      -0.171  11.809  18.756  0.00  0.00    +0.000 N 
ATOM     27  H   UNL     1      -0.785  12.592  18.965  0.00  0.00    +0.000 HD
BRANCH  26  28
ATOM     28  C   UNL     1       1.179  11.716  19.308  0.00  0.00    +0.000 C 
ATOM     29  C   UNL     1       1.336  12.463  20.631  0.00  0.00    +0.000 C 
ATOM     30  C   UNL     1       1.365  13.978  20.442  0.00  0.00    +0.000 C 
ATOM     31  N   UNL     1       2.370  14.438  19.470  0.00  0.00    +0.000 NA
ATOM     32  C   UNL     1       2.292  13.699  18.194  0.00  0.00    +0.000 C 
ATOM     33  C   UNL     1       2.252  12.182  18.334  0.00  0.00    +0.000 C 
BRANCH  31  34
ATOM     34  C   UNL     1       2.193  15.888  19.173  0.00  0.00    +0.000 C 
BRANCH  34  35
ATOM     35  C   UNL     1       0.815  16.462  19.538  0.00  0.00    +0.000 C 
BRANCH  35  36
ATOM     36  O   UNL     1      -0.068  16.398  18.424  0.00  0.00    +0.000 OA
ATOM     37  H   UNL     1      -0.455  17.291  18.348  0.00  0.00    +0.000 HD
ENDBRANCH  35  36
ENDBRANCH  34  35
ENDBRANCH  31  34
ENDBRANCH  26  28
ENDBRANCH  12  24
TORSDOF 7
ENDMDL
MODEL 7
REMARK VINA RESULT:      -6.1      5.078      8.438
REMARK  Name = 
REMARK  8 active torsions:
REMARK  status: ('A' for Active; 'I' for Inactive)
REMARK    1  A    between atoms: C_1  and  O_2
REMARK    2  A    between atoms: O_2  and  C_3
REMARK    3  A    between atoms: C_9  and  C_10
REMARK    4  A    between atoms: C_21  and  C_22
REMARK    5  A    between atoms: N_24  and  C_25
REMARK    6  A    between atoms: N_28  and  C_29
REMARK    7  A    between atoms: C_29  and  C_30
REMARK    8  A    between atoms: C_30  and  O_31
REMARK                            x       y       z     vdW  Elec       q    Type
REMARK                         _______ _______ _______ _____ _____    ______ ____
ROOT
ATOM      1  C   UNL     1       0.610  11.094  19.330  0.00  0.00    +0.000 C 
ATOM      2  C   UNL     1       0.148  10.082  18.262  0.00  0.00    +0.000 C 
ATOM      3  C   UNL     1      -1.286  10.496  17.982  0.00  0.00    +0.000 C 
ATOM      4  C   UNL     1      -1.195  12.012  17.993  0.00  0.00    +0.000 C 
ATOM      5  N   UNL     1      -0.090  12.326  18.907  0.00  0.00    +0.000 N 
ATOM      6  C   UNL     1       0.419  13.606  19.082  0.00  0.00    +0.000 A 
ATOM      7  C   UNL     1      -0.446  14.783  18.680  0.00  0.00    +0.000 A 
ATOM      8  C   UNL     1       0.042  16.008  18.887  0.00  0.00    +0.000 A 
ATOM      9  N   UNL     1       1.304  16.166  19.423  0.00  0.00    +0.000 N 
ATOM     10  N   UNL     1       1.923  17.339  19.670  0.00  0.00    +0.000 NA
ATOM     11  C   UNL     1       3.111  16.975  20.152  0.00  0.00    +0.000 A 
ATOM     12  C   UNL     1       3.289  15.572  20.227  0.00  0.00    +0.000 A 
ATOM     13  C   UNL     1       2.087  15.053  19.761  0.00  0.00    +0.000 A 
ATOM     14  N   UNL     1       1.620  13.770  19.599  0.00  0.00    +0.000 NA
ENDROOT
BRANCH   1  21
ATOM     15  C   UNL     1       0.821   9.566  21.372  0.00  0.00    +0.000 A 
ATOM     16  N   UNL     1       0.510   9.143  22.624  0.00  0.00    +0.000 NA
ATOM     17  C   UNL     1      -0.371   9.884  23.328  0.00  0.00    +0.000 A 
ATOM     18  C   UNL     1      -0.952  11.029  22.832  0.00  0.00    +0.000 A 
ATOM     19  F   UNL     1      -1.793  11.748  23.584  0.00  0.00    +0.000 F 
ATOM     20  C   UNL     1      -0.647  11.431  21.539  0.00  0.00    +0.000 A 
ATOM     21  C   UNL     1       0.247  10.684  20.752  0.00  0.00    +0.000 A 
BRANCH  15  23
ATOM     22  C   UNL     1       1.554   7.437  20.769  0.00  0.00    +0.000 C 
ATOM     23  O   UNL     1       1.779   8.848  20.682  0.00  0.00    +0.000 OA
ENDBRANCH  15  23
ENDBRANCH   1  21
BRANCH  12  24
ATOM     24  C   UNL     1       4.499  14.934  20.697  0.00  0.00    +0.000 C 
ATOM     25  O   UNL     1       4.441  13.996  21.495  0.00  0.00    +0.000 OA
ATOM     26  N   UNL     1       5.697  15.414  20.213  0.00  0.00    +0.000 N 
ATOM     27  H   UNL     1       5.661  16.242  19.623  0.00  0.00    +0.000 HD
BRANCH  26  28
ATOM     28  C   UNL     1       6.963  14.841  20.665  0.00  0.00    +0.000 C 
ATOM     29  C   UNL     1       7.934  15.890  21.207  0.00  0.00    +0.000 C 
ATOM     30  C   UNL     1       8.551  16.737  20.097  0.00  0.00    +0.000 C 
ATOM     31  N   UNL     1       9.189  15.949  19.030  0.00  0.00    +0.000 NA
ATOM     32  C   UNL     1       8.306  14.882  18.518  0.00  0.00    +0.000 C 
ATOM     33  C   UNL     1       7.660  14.016  19.593  0.00  0.00    +0.000 C 
BRANCH  31  34
ATOM     34  C   UNL     1       9.569  16.821  17.883  0.00  0.00    +0.000 C 
BRANCH  34  35
ATOM     35  C   UNL     1      10.852  16.403  17.147  0.00  0.00    +0.000 C 
BRANCH  35  36
ATOM     36  O   UNL     1      10.566  16.060  15.796  0.00  0.00    +0.000 OA
ATOM     37  H   UNL     1      10.464  15.089  15.790  0.00  0.00    +0.000 HD
ENDBRANCH  35  36
ENDBRANCH  34  35
ENDBRANCH  31  34
ENDBRANCH  26  28
ENDBRANCH  12  24
TORSDOF 7
ENDMDL
MODEL 8
REMARK VINA RESULT:      -6.1      2.643      7.326
REMARK  Name = 
REMARK  8 active torsions:
REMARK  status: ('A' for Active; 'I' for Inactive)
REMARK    1  A    between atoms: C_1  and  O_2
REMARK    2  A    between atoms: O_2  and  C_3
REMARK    3  A    between atoms: C_9  and  C_10
REMARK    4  A    between atoms: C_21  and  C_22
REMARK    5  A    between atoms: N_24  and  C_25
REMARK    6  A    between atoms: N_28  and  C_29
REMARK    7  A    between atoms: C_29  and  C_30
REMARK    8  A    between atoms: C_30  and  O_31
REMARK                            x       y       z     vdW  Elec       q    Type
REMARK                         _______ _______ _______ _____ _____    ______ ____
ROOT
ATOM      1  C   UNL     1      -4.844  13.163  21.879  0.00  0.00    +0.000 C 
ATOM      2  C   UNL     1      -5.854  12.871  23.007  0.00  0.00    +0.000 C 
ATOM      3  C   UNL     1      -7.162  13.415  22.459  0.00  0.00    +0.000 C 
ATOM      4  C   UNL     1      -7.101  13.000  20.999  0.00  0.00    +0.000 C 
ATOM      5  N   UNL     1      -5.671  12.959  20.669  0.00  0.00    +0.000 N 
ATOM      6  C   UNL     1      -5.177  12.477  19.464  0.00  0.00    +0.000 A 
ATOM      7  C   UNL     1      -6.120  12.403  18.280  0.00  0.00    +0.000 A 
ATOM      8  C   UNL     1      -5.621  11.971  17.120  0.00  0.00    +0.000 A 
ATOM      9  N   UNL     1      -4.298  11.585  17.038  0.00  0.00    +0.000 N 
ATOM     10  N   UNL     1      -3.672  11.118  15.938  0.00  0.00    +0.000 NA
ATOM     11  C   UNL     1      -2.435  10.862  16.363  0.00  0.00    +0.000 A 
ATOM     12  C   UNL     1      -2.232  11.153  17.734  0.00  0.00    +0.000 A 
ATOM     13  C   UNL     1      -3.460  11.644  18.161  0.00  0.00    +0.000 A 
ATOM     14  N   UNL     1      -3.914  12.112  19.371  0.00  0.00    +0.000 NA
ENDROOT
BRANCH   1  21
ATOM     15  C   UNL     1      -3.179  14.879  22.789  0.00  0.00    +0.000 A 
ATOM     16  N   UNL     1      -2.635  16.118  22.903  0.00  0.00    +0.000 NA
ATOM     17  C   UNL     1      -3.131  17.089  22.109  0.00  0.00    +0.000 A 
ATOM     18  C   UNL     1      -4.147  16.873  21.207  0.00  0.00    +0.000 A 
ATOM     19  F   UNL     1      -4.580  17.862  20.417  0.00  0.00    +0.000 F 
ATOM     20  C   UNL     1      -4.714  15.609  21.123  0.00  0.00    +0.000 A 
ATOM     21  C   UNL     1      -4.252  14.565  21.943  0.00  0.00    +0.000 A 
BRANCH  15  23
ATOM     22  C   UNL     1      -1.197  13.810  23.390  0.00  0.00    +0.000 C 
ATOM     23  O   UNL     1      -2.619  13.870  23.548  0.00  0.00    +0.000 OA
ENDBRANCH  15  23
ENDBRANCH   1  21
BRANCH  12  24
ATOM     24  C   UNL     1      -0.982  10.943  18.430  0.00  0.00    +0.000 C 
ATOM     25  O   UNL     1      -0.821   9.947  19.137  0.00  0.00    +0.000 OA
ATOM     26  N   UNL     1       0.004  11.891  18.260  0.00  0.00    +0.000 N 
ATOM     27  H   UNL     1      -0.238  12.722  17.726  0.00  0.00    +0.000 HD
BRANCH  26  28
ATOM     28  C   UNL     1       1.284  11.764  18.955  0.00  0.00    +0.000 C 
ATOM     29  C   UNL     1       1.267  12.377  20.354  0.00  0.00    +0.000 C 
ATOM     30  C   UNL     1       1.277  13.904  20.318  0.00  0.00    +0.000 C 
ATOM     31  N   UNL     1       2.375  14.474  19.519  0.00  0.00    +0.000 NA
ATOM     32  C   UNL     1       2.465  13.865  18.178  0.00  0.00    +0.000 C 
ATOM     33  C   UNL     1       2.450  12.341  18.165  0.00  0.00    +0.000 C 
BRANCH  31  34
ATOM     34  C   UNL     1       2.195  15.943  19.346  0.00  0.00    +0.000 C 
BRANCH  34  35
ATOM     35  C   UNL     1       3.111  16.817  20.218  0.00  0.00    +0.000 C 
BRANCH  35  36
ATOM     36  O   UNL     1       2.970  18.190  19.874  0.00  0.00    +0.000 OA
ATOM     37  H   UNL     1       2.470  18.592  20.610  0.00  0.00    +0.000 HD
ENDBRANCH  35  36
ENDBRANCH  34  35
ENDBRANCH  31  34
ENDBRANCH  26  28
ENDBRANCH  12  24
TORSDOF 7
ENDMDL
MODEL 9
REMARK VINA RESULT:      -6.1      3.370      7.935
REMARK  Name = 
REMARK  8 active torsions:
REMARK  status: ('A' for Active; 'I' for Inactive)
REMARK    1  A    between atoms: C_1  and  O_2
REMARK    2  A    between atoms: O_2  and  C_3
REMARK    3  A    between atoms: C_9  and  C_10
REMARK    4  A    between atoms: C_21  and  C_22
REMARK    5  A    between atoms: N_24  and  C_25
REMARK    6  A    between atoms: N_28  and  C_29
REMARK    7  A    between atoms: C_29  and  C_30
REMARK    8  A    between atoms: C_30  and  O_31
REMARK                            x       y       z     vdW  Elec       q    Type
REMARK                         _______ _______ _______ _____ _____    ______ ____
ROOT
ATOM      1  C   UNL     1      -4.971  13.284  22.291  0.00  0.00    +0.000 C 
ATOM      2  C   UNL     1      -5.676  12.881  23.602  0.00  0.00    +0.000 C 
ATOM      3  C   UNL     1      -7.151  13.000  23.260  0.00  0.00    +0.000 C 
ATOM      4  C   UNL     1      -7.203  12.440  21.849  0.00  0.00    +0.000 C 
ATOM      5  N   UNL     1      -5.886  12.729  21.269  0.00  0.00    +0.000 N 
ATOM      6  C   UNL     1      -5.470  12.247  20.035  0.00  0.00    +0.000 A 
ATOM      7  C   UNL     1      -6.527  11.790  19.050  0.00  0.00    +0.000 A 
ATOM      8  C   UNL     1      -6.114  11.363  17.855  0.00  0.00    +0.000 A 
ATOM      9  N   UNL     1      -4.765  11.324  17.564  0.00  0.00    +0.000 N 
ATOM     10  N   UNL     1      -4.211  10.903  16.408  0.00  0.00    +0.000 NA
ATOM     11  C   UNL     1      -2.902  11.028  16.621  0.00  0.00    +0.000 A 
ATOM     12  C   UNL     1      -2.578  11.526  17.906  0.00  0.00    +0.000 A 
ATOM     13  C   UNL     1      -3.813  11.733  18.510  0.00  0.00    +0.000 A 
ATOM     14  N   UNL     1      -4.185  12.211  19.743  0.00  0.00    +0.000 NA
ENDROOT
BRANCH   1  21
ATOM     15  C   UNL     1      -3.806  15.489  22.861  0.00  0.00    +0.000 A 
ATOM     16  N   UNL     1      -3.618  16.832  22.783  0.00  0.00    +0.000 NA
ATOM     17  C   UNL     1      -4.391  17.518  21.916  0.00  0.00    +0.000 A 
ATOM     18  C   UNL     1      -5.342  16.917  21.124  0.00  0.00    +0.000 A 
ATOM     19  F   UNL     1      -6.059  17.638  20.254  0.00  0.00    +0.000 F 
ATOM     20  C   UNL     1      -5.544  15.549  21.236  0.00  0.00    +0.000 A 
ATOM     21  C   UNL     1      -4.783  14.788  22.140  0.00  0.00    +0.000 A 
BRANCH  15  23
ATOM     22  C   UNL     1      -2.488  15.580  24.781  0.00  0.00    +0.000 C 
ATOM     23  O   UNL     1      -2.963  14.780  23.693  0.00  0.00    +0.000 OA
ENDBRANCH  15  23
ENDBRANCH   1  21
BRANCH  12  24
ATOM     24  C   UNL     1      -1.227  11.730  18.378  0.00  0.00    +0.000 C 
ATOM     25  O   UNL     1      -0.720  12.854  18.355  0.00  0.00    +0.000 OA
ATOM     26  N   UNL     1      -0.549  10.628  18.853  0.00  0.00    +0.000 N 
ATOM     27  H   UNL     1      -1.008   9.725  18.762  0.00  0.00    +0.000 HD
BRANCH  26  28
ATOM     28  C   UNL     1       0.832  10.749  19.318  0.00  0.00    +0.000 C 
ATOM     29  C   UNL     1       1.857  10.558  18.202  0.00  0.00    +0.000 C 
ATOM     30  C   UNL     1       1.981   9.098  17.772  0.00  0.00    +0.000 C 
ATOM     31  N   UNL     1       2.251   8.170  18.883  0.00  0.00    +0.000 NA
ATOM     32  C   UNL     1       1.318   8.362  20.011  0.00  0.00    +0.000 C 
ATOM     33  C   UNL     1       1.156   9.807  20.469  0.00  0.00    +0.000 C 
BRANCH  31  34
ATOM     34  C   UNL     1       2.139   6.755  18.429  0.00  0.00    +0.000 C 
BRANCH  34  35
ATOM     35  C   UNL     1       2.426   5.702  19.511  0.00  0.00    +0.000 C 
BRANCH  35  36
ATOM     36  O   UNL     1       3.769   5.808  19.971  0.00  0.00    +0.000 OA
ATOM     37  H   UNL     1       3.907   5.034  20.550  0.00  0.00    +0.000 HD
ENDBRANCH  35  36
ENDBRANCH  34  35
ENDBRANCH  31  34
ENDBRANCH  26  28
ENDBRANCH  12  24
TORSDOF 7
ENDMDL
