MODEL 1
REMARK VINA RESULT:      -9.2      0.000      0.000
REMARK  Name = 
REMARK  9 active torsions:
REMARK  status: ('A' for Active; 'I' for Inactive)
REMARK    1  A    between atoms: C_1  and  O_2
REMARK    2  A    between atoms: O_2  and  C_3
REMARK    3  A    between atoms: C_6  and  C_7
REMARK    4  A    between atoms: C_17  and  O_18
REMARK    5  A    between atoms: O_18  and  C_19
REMARK    6  A    between atoms: C_19  and  C_20
REMARK    7  A    between atoms: N_22  and  C_23
REMARK    8  A    between atoms: C_34  and  O_35
REMARK    9  A    between atoms: O_35  and  C_36
REMARK                            x       y       z     vdW  Elec       q    Type
REMARK                         _______ _______ _______ _____ _____    ______ ____
ROOT
ATOM      1  C   UNL     1       4.863   4.230  16.420  0.00  0.00    +0.000 A 
ATOM      2  O   UNL     1       5.057   3.425  15.300  0.00  0.00    +0.000 OA
ATOM      3  C   UNL     1       5.883   3.881  14.303  0.00  0.00    +0.000 A 
ATOM      4  C   UNL     1       5.874   3.226  13.070  0.00  0.00    +0.000 A 
ATOM      5  C   UNL     1       6.769   3.626  12.070  0.00  0.00    +0.000 A 
ATOM      6  C   UNL     1       7.701   4.637  12.308  0.00  0.00    +0.000 A 
ATOM      7  C   UNL     1       7.687   5.313  13.524  0.00  0.00    +0.000 A 
ATOM      8  C   UNL     1       6.752   4.943  14.500  0.00  0.00    +0.000 A 
ATOM      9  C   UNL     1       6.650   5.706  15.741  0.00  0.00    +0.000 A 
ATOM     10  O   UNL     1       7.525   6.513  16.030  0.00  0.00    +0.000 OA
ATOM     11  C   UNL     1       5.466   5.428  16.608  0.00  0.00    +0.000 A 
ENDROOT
BRANCH   1  15
ATOM     12  C   UNL     1       2.211   2.557  19.408  0.00  0.00    +0.000 A 
ATOM     13  C   UNL     1       1.717   3.094  18.218  0.00  0.00    +0.000 A 
ATOM     14  C   UNL     1       2.585   3.605  17.255  0.00  0.00    +0.000 A 
ATOM     15  C   UNL     1       3.977   3.611  17.447  0.00  0.00    +0.000 A 
ATOM     16  C   UNL     1       4.451   3.160  18.685  0.00  0.00    +0.000 A 
ATOM     17  C   UNL     1       3.585   2.647  19.677  0.00  0.00    +0.000 A 
BRANCH  12  19
ATOM     18  C   UNL     1       1.203   2.711  21.538  0.00  0.00    +0.000 C 
ATOM     19  O   UNL     1       1.358   1.989  20.314  0.00  0.00    +0.000 OA
ENDBRANCH  12  19
BRANCH  17  20
ATOM     20  O   UNL     1       4.253   2.279  20.817  0.00  0.00    +0.000 OA
ATOM     21  C   UNL     1       5.146   1.175  20.759  0.00  0.00    +0.000 C 
ENDBRANCH  17  20
ENDBRANCH   1  15
BRANCH  11  22
ATOM     22  O   UNL     1       5.026   6.313  17.585  0.00  0.00    +0.000 OA
BRANCH  22  23
ATOM     23  C   UNL     1       4.023   7.249  17.209  0.00  0.00    +0.000 C 
BRANCH  23  24
ATOM     24  C   UNL     1       3.055   7.468  18.357  0.00  0.00    +0.000 C 
ATOM     25  O   UNL     1       2.809   6.572  19.163  0.00  0.00    +0.000 OA
ATOM     26  N   UNL     1       2.506   8.749  18.388  0.00  0.00    +0.000 N 
ATOM     27  H   UNL     1       2.451   9.200  17.480  0.00  0.00    +0.000 HD
BRANCH  26  28
ATOM     28  C   UNL     1       1.511   9.061  19.331  0.00  0.00    +0.000 A 
ATOM     29  C   UNL     1       1.548   8.412  20.581  0.00  0.00    +0.000 A 
ATOM     30  C   UNL     1       0.766   8.888  21.632  0.00  0.00    +0.000 A 
ATOM     31  C   UNL     1      -0.088   9.948  21.369  0.00  0.00    +0.000 A 
ATOM     32  C   UNL     1      -0.239  10.491  20.111  0.00  0.00    +0.000 A 
ATOM     33  C   UNL     1       0.565  10.065  19.072  0.00  0.00    +0.000 A 
ATOM     34  C   UNL     1      -1.288  11.524  20.151  0.00  0.00    +0.000 C 
ATOM     35  O   UNL     1      -1.510  11.702  21.566  0.00  0.00    +0.000 OA
ATOM     36  C   UNL     1      -0.874  10.741  22.302  0.00  0.00    +0.000 C 
ATOM     37  O   UNL     1      -0.911  10.607  23.510  0.00  0.00    +0.000 OA
ENDBRANCH  26  28
ENDBRANCH  23  24
ENDBRANCH  22  23
ENDBRANCH  11  22
TORSDOF 7
ENDMDL
MODEL 2
REMARK VINA RESULT:      -9.0      4.657      6.480
REMARK  Name = 
REMARK  9 active torsions:
REMARK  status: ('A' for Active; 'I' for Inactive)
REMARK    1  A    between atoms: C_1  and  O_2
REMARK    2  A    between atoms: O_2  and  C_3
REMARK    3  A    between atoms: C_6  and  C_7
REMARK    4  A    between atoms: C_17  and  O_18
REMARK    5  A    between atoms: O_18  and  C_19
REMARK    6  A    between atoms: C_19  and  C_20
REMARK    7  A    between atoms: N_22  and  C_23
REMARK    8  A    between atoms: C_34  and  O_35
REMARK    9  A    between atoms: O_35  and  C_36
REMARK                            x       y       z     vdW  Elec       q    Type
REMARK                         _______ _______ _______ _____ _____    ______ ____
ROOT
ATOM      1  C   UNL     1       5.151   4.853  16.528  0.00  0.00    +0.000 A 
ATOM      2  O   UNL     1       4.786   3.949  15.533  0.00  0.00    +0.000 OA
ATOM      3  C   UNL     1       5.452   3.994  14.333  0.00  0.00    +0.000 A 
ATOM      4  C   UNL     1       4.926   3.296  13.245  0.00  0.00    +0.000 A 
ATOM      5  C   UNL     1       5.636   3.263  12.039  0.00  0.00    +0.000 A 
ATOM      6  C   UNL     1       6.883   3.878  11.926  0.00  0.00    +0.000 A 
ATOM      7  C   UNL     1       7.391   4.604  13.000  0.00  0.00    +0.000 A 
ATOM      8  C   UNL     1       6.649   4.677  14.186  0.00  0.00    +0.000 A 
ATOM      9  C   UNL     1       7.114   5.517  15.287  0.00  0.00    +0.000 A 
ATOM     10  O   UNL     1       8.252   5.968  15.267  0.00  0.00    +0.000 OA
ATOM     11  C   UNL     1       6.150   5.758  16.403  0.00  0.00    +0.000 A 
ENDROOT
BRANCH   1  15
ATOM     12  C   UNL     1       2.837   4.248  20.139  0.00  0.00    +0.000 A 
ATOM     13  C   UNL     1       3.488   3.187  19.508  0.00  0.00    +0.000 A 
ATOM     14  C   UNL     1       4.250   3.402  18.361  0.00  0.00    +0.000 A 
ATOM     15  C   UNL     1       4.382   4.681  17.794  0.00  0.00    +0.000 A 
ATOM     16  C   UNL     1       3.646   5.717  18.380  0.00  0.00    +0.000 A 
ATOM     17  C   UNL     1       2.860   5.516  19.538  0.00  0.00    +0.000 A 
BRANCH  12  19
ATOM     18  C   UNL     1       1.405   2.825  21.366  0.00  0.00    +0.000 C 
ATOM     19  O   UNL     1       2.154   4.042  21.307  0.00  0.00    +0.000 OA
ENDBRANCH  12  19
BRANCH  17  20
ATOM     20  O   UNL     1       2.209   6.656  19.934  0.00  0.00    +0.000 OA
ATOM     21  C   UNL     1       2.231   7.789  19.076  0.00  0.00    +0.000 C 
ENDBRANCH  17  20
ENDBRANCH   1  15
BRANCH  11  22
ATOM     22  O   UNL     1       6.285   6.815  17.296  0.00  0.00    +0.000 OA
BRANCH  22  23
ATOM     23  C   UNL     1       7.570   7.016  17.873  0.00  0.00    +0.000 C 
BRANCH  23  24
ATOM     24  C   UNL     1       7.880   8.500  17.952  0.00  0.00    +0.000 C 
ATOM     25  O   UNL     1       7.320   9.309  17.215  0.00  0.00    +0.000 OA
ATOM     26  N   UNL     1       8.829   8.820  18.920  0.00  0.00    +0.000 N 
ATOM     27  H   UNL     1       9.485   8.072  19.124  0.00  0.00    +0.000 HD
BRANCH  26  28
ATOM     28  C   UNL     1       9.296  10.143  19.033  0.00  0.00    +0.000 A 
ATOM     29  C   UNL     1       9.409  10.703  20.320  0.00  0.00    +0.000 A 
ATOM     30  C   UNL     1      10.121  11.888  20.499  0.00  0.00    +0.000 A 
ATOM     31  C   UNL     1      10.625  12.512  19.368  0.00  0.00    +0.000 A 
ATOM     32  C   UNL     1      10.390  12.048  18.092  0.00  0.00    +0.000 A 
ATOM     33  C   UNL     1       9.731  10.850  17.901  0.00  0.00    +0.000 A 
ATOM     34  C   UNL     1      10.974  12.987  17.119  0.00  0.00    +0.000 C 
ATOM     35  O   UNL     1      11.777  13.852  17.949  0.00  0.00    +0.000 OA
ATOM     36  C   UNL     1      11.535  13.644  19.279  0.00  0.00    +0.000 C 
ATOM     37  O   UNL     1      12.029  14.249  20.211  0.00  0.00    +0.000 OA
ENDBRANCH  26  28
ENDBRANCH  23  24
ENDBRANCH  22  23
ENDBRANCH  11  22
TORSDOF 7
ENDMDL
MODEL 3
REMARK VINA RESULT:      -9.0      1.197      1.636
REMARK  Name = 
REMARK  9 active torsions:
REMARK  status: ('A' for Active; 'I' for Inactive)
REMARK    1  A    between atoms: C_1  and  O_2
REMARK    2  A    between atoms: O_2  and  C_3
REMARK    3  A    between atoms: C_6  and  C_7
REMARK    4  A    between atoms: C_17  and  O_18
REMARK    5  A    between atoms: O_18  and  C_19
REMARK    6  A    between atoms: C_19  and  C_20
REMARK    7  A    between atoms: N_22  and  C_23
REMARK    8  A    between atoms: C_34  and  O_35
REMARK    9  A    between atoms: O_35  and  C_36
REMARK                            x       y       z     vdW  Elec       q    Type
REMARK                         _______ _______ _______ _____ _____    ______ ____
ROOT
ATOM      1  C   UNL     1       4.794   4.320  16.616  0.00  0.00    +0.000 A 
ATOM      2  O   UNL     1       4.987   3.525  15.488  0.00  0.00    +0.000 OA
ATOM      3  C   UNL     1       5.812   3.990  14.494  0.00  0.00    +0.000 A 
ATOM      4  C   UNL     1       5.802   3.346  13.256  0.00  0.00    +0.000 A 
ATOM      5  C   UNL     1       6.697   3.756  12.259  0.00  0.00    +0.000 A 
ATOM      6  C   UNL     1       7.629   4.764  12.506  0.00  0.00    +0.000 A 
ATOM      7  C   UNL     1       7.615   5.429  13.729  0.00  0.00    +0.000 A 
ATOM      8  C   UNL     1       6.681   5.050  14.702  0.00  0.00    +0.000 A 
ATOM      9  C   UNL     1       6.580   5.802  15.950  0.00  0.00    +0.000 A 
ATOM     10  O   UNL     1       7.455   6.606  16.245  0.00  0.00    +0.000 OA
ATOM     11  C   UNL     1       5.396   5.515  16.814  0.00  0.00    +0.000 A 
ENDROOT
BRANCH   1  15
ATOM     12  C   UNL     1       2.143   2.619  19.589  0.00  0.00    +0.000 A 
ATOM     13  C   UNL     1       1.648   3.167  18.404  0.00  0.00    +0.000 A 
ATOM     14  C   UNL     1       2.516   3.687  17.446  0.00  0.00    +0.000 A 
ATOM     15  C   UNL     1       3.908   3.691  17.638  0.00  0.00    +0.000 A 
ATOM     16  C   UNL     1       4.383   3.229  18.871  0.00  0.00    +0.000 A 
ATOM     17  C   UNL     1       3.517   2.707  19.858  0.00  0.00    +0.000 A 
BRANCH  12  19
ATOM     18  C   UNL     1       1.198   2.709  21.752  0.00  0.00    +0.000 C 
ATOM     19  O   UNL     1       1.290   2.042  20.491  0.00  0.00    +0.000 OA
ENDBRANCH  12  19
BRANCH  17  20
ATOM     20  O   UNL     1       4.185   2.328  20.995  0.00  0.00    +0.000 OA
ATOM     21  C   UNL     1       5.097   1.240  20.920  0.00  0.00    +0.000 C 
ENDBRANCH  17  20
ENDBRANCH   1  15
BRANCH  11  22
ATOM     22  O   UNL     1       4.957   6.392  17.800  0.00  0.00    +0.000 OA
BRANCH  22  23
ATOM     23  C   UNL     1       4.443   7.646  17.371  0.00  0.00    +0.000 C 
BRANCH  23  24
ATOM     24  C   UNL     1       3.051   7.861  17.935  0.00  0.00    +0.000 C 
ATOM     25  O   UNL     1       2.381   6.920  18.358  0.00  0.00    +0.000 OA
ATOM     26  N   UNL     1       2.642   9.194  17.920  0.00  0.00    +0.000 N 
ATOM     27  H   UNL     1       3.072   9.753  17.190  0.00  0.00    +0.000 HD
BRANCH  26  28
ATOM     28  C   UNL     1       1.333   9.529  18.311  0.00  0.00    +0.000 A 
ATOM     29  C   UNL     1       1.145  10.117  19.577  0.00  0.00    +0.000 A 
ATOM     30  C   UNL     1      -0.075  10.716  19.888  0.00  0.00    +0.000 A 
ATOM     31  C   UNL     1      -1.090  10.631  18.948  0.00  0.00    +0.000 A 
ATOM     32  C   UNL     1      -0.960   9.929  17.769  0.00  0.00    +0.000 A 
ATOM     33  C   UNL     1       0.256   9.375  17.424  0.00  0.00    +0.000 A 
ATOM     34  C   UNL     1      -2.243   9.951  17.047  0.00  0.00    +0.000 C 
ATOM     35  O   UNL     1      -3.005  10.939  17.774  0.00  0.00    +0.000 OA
ATOM     36  C   UNL     1      -2.382  11.302  18.937  0.00  0.00    +0.000 C 
ATOM     37  O   UNL     1      -2.800  12.078  19.773  0.00  0.00    +0.000 OA
ENDBRANCH  26  28
ENDBRANCH  23  24
ENDBRANCH  22  23
ENDBRANCH  11  22
TORSDOF 7
ENDMDL
MODEL 4
REMARK VINA RESULT:      -8.7      3.513      9.756
REMARK  Name = 
REMARK  9 active torsions:
REMARK  status: ('A' for Active; 'I' for Inactive)
REMARK    1  A    between atoms: C_1  and  O_2
REMARK    2  A    between atoms: O_2  and  C_3
REMARK    3  A    between atoms: C_6  and  C_7
REMARK    4  A    between atoms: C_17  and  O_18
REMARK    5  A    between atoms: O_18  and  C_19
REMARK    6  A    between atoms: C_19  and  C_20
REMARK    7  A    between atoms: N_22  and  C_23
REMARK    8  A    between atoms: C_34  and  O_35
REMARK    9  A    between atoms: O_35  and  C_36
REMARK                            x       y       z     vdW  Elec       q    Type
REMARK                         _______ _______ _______ _____ _____    ______ ____
ROOT
ATOM      1  C   UNL     1      -0.604  12.488  18.551  0.00  0.00    +0.000 A 
ATOM      2  O   UNL     1      -0.336  13.853  18.472  0.00  0.00    +0.000 OA
ATOM      3  C   UNL     1       0.969  14.268  18.554  0.00  0.00    +0.000 A 
ATOM      4  C   UNL     1       1.232  15.625  18.751  0.00  0.00    +0.000 A 
ATOM      5  C   UNL     1       2.557  16.077  18.756  0.00  0.00    +0.000 A 
ATOM      6  C   UNL     1       3.614  15.196  18.518  0.00  0.00    +0.000 A 
ATOM      7  C   UNL     1       3.354  13.839  18.357  0.00  0.00    +0.000 A 
ATOM      8  C   UNL     1       2.028  13.386  18.408  0.00  0.00    +0.000 A 
ATOM      9  C   UNL     1       1.742  11.956  18.345  0.00  0.00    +0.000 A 
ATOM     10  O   UNL     1       2.626  11.174  18.017  0.00  0.00    +0.000 OA
ATOM     11  C   UNL     1       0.348  11.533  18.673  0.00  0.00    +0.000 A 
ENDROOT
BRANCH   1  15
ATOM     12  C   UNL     1      -4.800  11.450  18.264  0.00  0.00    +0.000 A 
ATOM     13  C   UNL     1      -4.261  11.976  19.439  0.00  0.00    +0.000 A 
ATOM     14  C   UNL     1      -2.914  12.329  19.508  0.00  0.00    +0.000 A 
ATOM     15  C   UNL     1      -2.052  12.160  18.411  0.00  0.00    +0.000 A 
ATOM     16  C   UNL     1      -2.583  11.541  17.273  0.00  0.00    +0.000 A 
ATOM     17  C   UNL     1      -3.943  11.168  17.189  0.00  0.00    +0.000 A 
BRANCH  12  19
ATOM     18  C   UNL     1      -6.558   9.985  18.850  0.00  0.00    +0.000 C 
ATOM     19  O   UNL     1      -6.138  11.177  18.180  0.00  0.00    +0.000 OA
ENDBRANCH  12  19
BRANCH  17  20
ATOM     20  O   UNL     1      -4.248  10.562  15.997  0.00  0.00    +0.000 OA
ATOM     21  C   UNL     1      -3.234  10.454  15.006  0.00  0.00    +0.000 C 
ENDBRANCH  17  20
ENDBRANCH   1  15
BRANCH  11  22
ATOM     22  O   UNL     1       0.023  10.231  19.036  0.00  0.00    +0.000 OA
BRANCH  22  23
ATOM     23  C   UNL     1       0.446   9.791  20.321  0.00  0.00    +0.000 C 
BRANCH  23  24
ATOM     24  C   UNL     1       1.358   8.586  20.186  0.00  0.00    +0.000 C 
ATOM     25  O   UNL     1       1.785   7.995  21.176  0.00  0.00    +0.000 OA
ATOM     26  N   UNL     1       1.637   8.242  18.864  0.00  0.00    +0.000 N 
ATOM     27  H   UNL     1       1.594   9.021  18.214  0.00  0.00    +0.000 HD
BRANCH  26  28
ATOM     28  C   UNL     1       2.556   7.213  18.588  0.00  0.00    +0.000 A 
ATOM     29  C   UNL     1       3.718   7.535  17.860  0.00  0.00    +0.000 A 
ATOM     30  C   UNL     1       4.775   6.627  17.806  0.00  0.00    +0.000 A 
ATOM     31  C   UNL     1       4.596   5.395  18.418  0.00  0.00    +0.000 A 
ATOM     32  C   UNL     1       3.406   5.018  19.002  0.00  0.00    +0.000 A 
ATOM     33  C   UNL     1       2.369   5.923  19.108  0.00  0.00    +0.000 A 
ATOM     34  C   UNL     1       3.514   3.624  19.465  0.00  0.00    +0.000 C 
ATOM     35  O   UNL     1       4.926   3.352  19.340  0.00  0.00    +0.000 OA
ATOM     36  C   UNL     1       5.574   4.346  18.660  0.00  0.00    +0.000 C 
ATOM     37  O   UNL     1       6.753   4.375  18.365  0.00  0.00    +0.000 OA
ENDBRANCH  26  28
ENDBRANCH  23  24
ENDBRANCH  22  23
ENDBRANCH  11  22
TORSDOF 7
ENDMDL
MODEL 5
REMARK VINA RESULT:      -8.6      3.133      7.293
REMARK  Name = 
REMARK  9 active torsions:
REMARK  status: ('A' for Active; 'I' for Inactive)
REMARK    1  A    between atoms: C_1  and  O_2
REMARK    2  A    between atoms: O_2  and  C_3
REMARK    3  A    between atoms: C_6  and  C_7
REMARK    4  A    between atoms: C_17  and  O_18
REMARK    5  A    between atoms: O_18  and  C_19
REMARK    6  A    between atoms: C_19  and  C_20
REMARK    7  A    between atoms: N_22  and  C_23
REMARK    8  A    between atoms: C_34  and  O_35
REMARK    9  A    between atoms: O_35  and  C_36
REMARK                            x       y       z     vdW  Elec       q    Type
REMARK                         _______ _______ _______ _____ _____    ______ ____
ROOT
ATOM      1  C   UNL     1       1.874   8.587  18.997  0.00  0.00    +0.000 A 
ATOM      2  O   UNL     1       2.514   8.105  17.857  0.00  0.00    +0.000 OA
ATOM      3  C   UNL     1       3.156   6.894  17.931  0.00  0.00    +0.000 A 
ATOM      4  C   UNL     1       4.022   6.528  16.900  0.00  0.00    +0.000 A 
ATOM      5  C   UNL     1       4.621   5.263  16.919  0.00  0.00    +0.000 A 
ATOM      6  C   UNL     1       4.324   4.347  17.930  0.00  0.00    +0.000 A 
ATOM      7  C   UNL     1       3.489   4.724  18.976  0.00  0.00    +0.000 A 
ATOM      8  C   UNL     1       2.936   6.012  18.978  0.00  0.00    +0.000 A 
ATOM      9  C   UNL     1       2.142   6.464  20.117  0.00  0.00    +0.000 A 
ATOM     10  O   UNL     1       1.765   5.654  20.954  0.00  0.00    +0.000 OA
ATOM     11  C   UNL     1       1.815   7.921  20.174  0.00  0.00    +0.000 A 
ENDROOT
BRANCH   1  15
ATOM     12  C   UNL     1      -0.114  12.405  18.511  0.00  0.00    +0.000 A 
ATOM     13  C   UNL     1       1.164  12.317  19.066  0.00  0.00    +0.000 A 
ATOM     14  C   UNL     1       1.801  11.084  19.192  0.00  0.00    +0.000 A 
ATOM     15  C   UNL     1       1.183   9.891  18.781  0.00  0.00    +0.000 A 
ATOM     16  C   UNL     1      -0.135   9.982  18.318  0.00  0.00    +0.000 A 
ATOM     17  C   UNL     1      -0.800  11.223  18.193  0.00  0.00    +0.000 A 
BRANCH  12  19
ATOM     18  C   UNL     1       0.029  14.739  18.841  0.00  0.00    +0.000 C 
ATOM     19  O   UNL     1      -0.702  13.626  18.322  0.00  0.00    +0.000 OA
ENDBRANCH  12  19
BRANCH  17  20
ATOM     20  O   UNL     1      -2.087  11.084  17.739  0.00  0.00    +0.000 OA
ATOM     21  C   UNL     1      -2.316  10.339  16.550  0.00  0.00    +0.000 C 
ENDBRANCH  17  20
ENDBRANCH   1  15
BRANCH  11  22
ATOM     22  O   UNL     1       1.425   8.558  21.347  0.00  0.00    +0.000 OA
BRANCH  22  23
ATOM     23  C   UNL     1       0.028   8.645  21.603  0.00  0.00    +0.000 C 
BRANCH  23  24
ATOM     24  C   UNL     1      -0.280   9.902  22.395  0.00  0.00    +0.000 C 
ATOM     25  O   UNL     1       0.065  10.017  23.570  0.00  0.00    +0.000 OA
ATOM     26  N   UNL     1      -0.966  10.869  21.662  0.00  0.00    +0.000 N 
ATOM     27  H   UNL     1      -1.536  10.495  20.911  0.00  0.00    +0.000 HD
BRANCH  26  28
ATOM     28  C   UNL     1      -1.414  12.042  22.298  0.00  0.00    +0.000 A 
ATOM     29  C   UNL     1      -2.596  11.977  23.060  0.00  0.00    +0.000 A 
ATOM     30  C   UNL     1      -2.921  13.022  23.924  0.00  0.00    +0.000 A 
ATOM     31  C   UNL     1      -2.090  14.132  23.931  0.00  0.00    +0.000 A 
ATOM     32  C   UNL     1      -1.015  14.265  23.079  0.00  0.00    +0.000 A 
ATOM     33  C   UNL     1      -0.651  13.219  22.255  0.00  0.00    +0.000 A 
ATOM     34  C   UNL     1      -0.406  15.593  23.271  0.00  0.00    +0.000 C 
ATOM     35  O   UNL     1      -1.049  16.071  24.471  0.00  0.00    +0.000 OA
ATOM     36  C   UNL     1      -2.093  15.268  24.840  0.00  0.00    +0.000 C 
ATOM     37  O   UNL     1      -2.845  15.439  25.780  0.00  0.00    +0.000 OA
ENDBRANCH  26  28
ENDBRANCH  23  24
ENDBRANCH  22  23
ENDBRANCH  11  22
TORSDOF 7
ENDMDL
MODEL 6
REMARK VINA RESULT:      -8.6      4.596      6.268
REMARK  Name = 
REMARK  9 active torsions:
REMARK  status: ('A' for Active; 'I' for Inactive)
REMARK    1  A    between atoms: C_1  and  O_2
REMARK    2  A    between atoms: O_2  and  C_3
REMARK    3  A    between atoms: C_6  and  C_7
REMARK    4  A    between atoms: C_17  and  O_18
REMARK    5  A    between atoms: O_18  and  C_19
REMARK    6  A    between atoms: C_19  and  C_20
REMARK    7  A    between atoms: N_22  and  C_23
REMARK    8  A    between atoms: C_34  and  O_35
REMARK    9  A    between atoms: O_35  and  C_36
REMARK                            x       y       z     vdW  Elec       q    Type
REMARK                         _______ _______ _______ _____ _____    ______ ____
ROOT
ATOM      1  C   UNL     1       5.029   4.847  16.425  0.00  0.00    +0.000 A 
ATOM      2  O   UNL     1       4.678   3.987  15.386  0.00  0.00    +0.000 OA
ATOM      3  C   UNL     1       5.404   4.039  14.221  0.00  0.00    +0.000 A 
ATOM      4  C   UNL     1       4.905   3.393  13.089  0.00  0.00    +0.000 A 
ATOM      5  C   UNL     1       5.671   3.368  11.917  0.00  0.00    +0.000 A 
ATOM      6  C   UNL     1       6.946   3.936  11.883  0.00  0.00    +0.000 A 
ATOM      7  C   UNL     1       7.427   4.610  13.001  0.00  0.00    +0.000 A 
ATOM      8  C   UNL     1       6.632   4.679  14.153  0.00  0.00    +0.000 A 
ATOM      9  C   UNL     1       7.074   5.468  15.299  0.00  0.00    +0.000 A 
ATOM     10  O   UNL     1       8.228   5.874  15.347  0.00  0.00    +0.000 OA
ATOM     11  C   UNL     1       6.066   5.715  16.374  0.00  0.00    +0.000 A 
ENDROOT
BRANCH   1  15
ATOM     12  C   UNL     1       2.635   4.469  20.014  0.00  0.00    +0.000 A 
ATOM     13  C   UNL     1       2.435   5.518  19.115  0.00  0.00    +0.000 A 
ATOM     14  C   UNL     1       3.196   5.611  17.951  0.00  0.00    +0.000 A 
ATOM     15  C   UNL     1       4.193   4.669  17.647  0.00  0.00    +0.000 A 
ATOM     16  C   UNL     1       4.450   3.681  18.604  0.00  0.00    +0.000 A 
ATOM     17  C   UNL     1       3.695   3.577  19.794  0.00  0.00    +0.000 A 
BRANCH  12  19
ATOM     18  C   UNL     1       1.178   3.079  21.249  0.00  0.00    +0.000 C 
ATOM     19  O   UNL     1       1.833   4.343  21.116  0.00  0.00    +0.000 OA
ENDBRANCH  12  19
BRANCH  17  20
ATOM     20  O   UNL     1       4.123   2.552  20.599  0.00  0.00    +0.000 OA
ATOM     21  C   UNL     1       4.783   1.444  20.001  0.00  0.00    +0.000 C 
ENDBRANCH  17  20
ENDBRANCH   1  15
BRANCH  11  22
ATOM     22  O   UNL     1       6.197   6.740  17.305  0.00  0.00    +0.000 OA
BRANCH  22  23
ATOM     23  C   UNL     1       7.484   6.934  17.879  0.00  0.00    +0.000 C 
BRANCH  23  24
ATOM     24  C   UNL     1       7.813   8.414  17.937  0.00  0.00    +0.000 C 
ATOM     25  O   UNL     1       7.265   9.219  17.186  0.00  0.00    +0.000 OA
ATOM     26  N   UNL     1       8.764   8.737  18.903  0.00  0.00    +0.000 N 
ATOM     27  H   UNL     1       9.409   7.984  19.120  0.00  0.00    +0.000 HD
BRANCH  26  28
ATOM     28  C   UNL     1       9.246  10.055  18.997  0.00  0.00    +0.000 A 
ATOM     29  C   UNL     1       9.330  10.645  20.273  0.00  0.00    +0.000 A 
ATOM     30  C   UNL     1      10.054  11.824  20.445  0.00  0.00    +0.000 A 
ATOM     31  C   UNL     1      10.600  12.413  19.315  0.00  0.00    +0.000 A 
ATOM     32  C   UNL     1      10.396  11.921  18.043  0.00  0.00    +0.000 A 
ATOM     33  C   UNL     1       9.725  10.728  17.862  0.00  0.00    +0.000 A 
ATOM     34  C   UNL     1      11.022  12.828  17.066  0.00  0.00    +0.000 C 
ATOM     35  O   UNL     1      11.814  13.701  17.898  0.00  0.00    +0.000 OA
ATOM     36  C   UNL     1      11.530  13.529  19.226  0.00  0.00    +0.000 C 
ATOM     37  O   UNL     1      12.005  14.150  20.157  0.00  0.00    +0.000 OA
ENDBRANCH  26  28
ENDBRANCH  23  24
ENDBRANCH  22  23
ENDBRANCH  11  22
TORSDOF 7
ENDMDL
MODEL 7
REMARK VINA RESULT:      -8.6      3.160      7.408
REMARK  Name = 
REMARK  9 active torsions:
REMARK  status: ('A' for Active; 'I' for Inactive)
REMARK    1  A    between atoms: C_1  and  O_2
REMARK    2  A    between atoms: O_2  and  C_3
REMARK    3  A    between atoms: C_6  and  C_7
REMARK    4  A    between atoms: C_17  and  O_18
REMARK    5  A    between atoms: O_18  and  C_19
REMARK    6  A    between atoms: C_19  and  C_20
REMARK    7  A    between atoms: N_22  and  C_23
REMARK    8  A    between atoms: C_34  and  O_35
REMARK    9  A    between atoms: O_35  and  C_36
REMARK                            x       y       z     vdW  Elec       q    Type
REMARK                         _______ _______ _______ _____ _____    ______ ____
ROOT
ATOM      1  C   UNL     1       1.913   8.706  19.019  0.00  0.00    +0.000 A 
ATOM      2  O   UNL     1       2.572   8.280  17.868  0.00  0.00    +0.000 OA
ATOM      3  C   UNL     1       3.222   7.071  17.896  0.00  0.00    +0.000 A 
ATOM      4  C   UNL     1       4.104   6.758  16.861  0.00  0.00    +0.000 A 
ATOM      5  C   UNL     1       4.713   5.497  16.832  0.00  0.00    +0.000 A 
ATOM      6  C   UNL     1       4.410   4.535  17.797  0.00  0.00    +0.000 A 
ATOM      7  C   UNL     1       3.558   4.859  18.848  0.00  0.00    +0.000 A 
ATOM      8  C   UNL     1       2.996   6.142  18.900  0.00  0.00    +0.000 A 
ATOM      9  C   UNL     1       2.183   6.537  20.047  0.00  0.00    +0.000 A 
ATOM     10  O   UNL     1       1.802   5.687  20.841  0.00  0.00    +0.000 OA
ATOM     11  C   UNL     1       1.844   7.987  20.164  0.00  0.00    +0.000 A 
ENDROOT
BRANCH   1  15
ATOM     12  C   UNL     1      -0.101  12.525  18.678  0.00  0.00    +0.000 A 
ATOM     13  C   UNL     1       1.162  12.420  19.264  0.00  0.00    +0.000 A 
ATOM     14  C   UNL     1       1.808  11.188  19.343  0.00  0.00    +0.000 A 
ATOM     15  C   UNL     1       1.215  10.013  18.852  0.00  0.00    +0.000 A 
ATOM     16  C   UNL     1      -0.091  10.116  18.356  0.00  0.00    +0.000 A 
ATOM     17  C   UNL     1      -0.765  11.356  18.277  0.00  0.00    +0.000 A 
BRANCH  12  19
ATOM     18  C   UNL     1       0.079  14.859  18.998  0.00  0.00    +0.000 C 
ATOM     19  O   UNL     1      -0.696  13.749  18.536  0.00  0.00    +0.000 OA
ENDBRANCH  12  19
BRANCH  17  20
ATOM     20  O   UNL     1      -2.037  11.230  17.780  0.00  0.00    +0.000 OA
ATOM     21  C   UNL     1      -3.133  11.598  18.606  0.00  0.00    +0.000 C 
ENDBRANCH  17  20
ENDBRANCH   1  15
BRANCH  11  22
ATOM     22  O   UNL     1       1.433   8.568  21.359  0.00  0.00    +0.000 OA
BRANCH  22  23
ATOM     23  C   UNL     1       0.032   8.658  21.588  0.00  0.00    +0.000 C 
BRANCH  23  24
ATOM     24  C   UNL     1      -0.277   9.856  22.466  0.00  0.00    +0.000 C 
ATOM     25  O   UNL     1       0.045   9.878  23.652  0.00  0.00    +0.000 OA
ATOM     26  N   UNL     1      -0.938  10.884  21.794  0.00  0.00    +0.000 N 
ATOM     27  H   UNL     1      -1.498  10.574  21.006  0.00  0.00    +0.000 HD
BRANCH  26  28
ATOM     28  C   UNL     1      -1.386  12.011  22.507  0.00  0.00    +0.000 A 
ATOM     29  C   UNL     1      -0.582  13.168  22.500  0.00  0.00    +0.000 A 
ATOM     30  C   UNL     1      -1.107  14.379  22.947  0.00  0.00    +0.000 A 
ATOM     31  C   UNL     1      -2.395  14.370  23.462  0.00  0.00    +0.000 A 
ATOM     32  C   UNL     1      -3.132  13.215  23.610  0.00  0.00    +0.000 A 
ATOM     33  C   UNL     1      -2.646  12.017  23.125  0.00  0.00    +0.000 A 
ATOM     34  C   UNL     1      -4.407  13.534  24.274  0.00  0.00    +0.000 C 
ATOM     35  O   UNL     1      -4.437  14.977  24.236  0.00  0.00    +0.000 OA
ATOM     36  C   UNL     1      -3.238  15.497  23.831  0.00  0.00    +0.000 C 
ATOM     37  O   UNL     1      -2.950  16.674  23.742  0.00  0.00    +0.000 OA
ENDBRANCH  26  28
ENDBRANCH  23  24
ENDBRANCH  22  23
ENDBRANCH  11  22
TORSDOF 7
ENDMDL
MODEL 8
REMARK VINA RESULT:      -8.6      4.665      6.413
REMARK  Name = 
REMARK  9 active torsions:
REMARK  status: ('A' for Active; 'I' for Inactive)
REMARK    1  A    between atoms: C_1  and  O_2
REMARK    2  A    between atoms: O_2  and  C_3
REMARK    3  A    between atoms: C_6  and  C_7
REMARK    4  A    between atoms: C_17  and  O_18
REMARK    5  A    between atoms: O_18  and  C_19
REMARK    6  A    between atoms: C_19  and  C_20
REMARK    7  A    between atoms: N_22  and  C_23
REMARK    8  A    between atoms: C_34  and  O_35
REMARK    9  A    between atoms: O_35  and  C_36
REMARK                            x       y       z     vdW  Elec       q    Type
REMARK                         _______ _______ _______ _____ _____    ______ ____
ROOT
ATOM      1  C   UNL     1       5.084   4.912  16.378  0.00  0.00    +0.000 A 
ATOM      2  O   UNL     1       4.731   4.007  15.379  0.00  0.00    +0.000 OA
ATOM      3  C   UNL     1       5.435   4.026  14.201  0.00  0.00    +0.000 A 
ATOM      4  C   UNL     1       4.929   3.329  13.103  0.00  0.00    +0.000 A 
ATOM      5  C   UNL     1       5.675   3.271  11.920  0.00  0.00    +0.000 A 
ATOM      6  C   UNL     1       6.939   3.858  11.842  0.00  0.00    +0.000 A 
ATOM      7  C   UNL     1       7.428   4.583  12.924  0.00  0.00    +0.000 A 
ATOM      8  C   UNL     1       6.651   4.682  14.086  0.00  0.00    +0.000 A 
ATOM      9  C   UNL     1       7.098   5.522  15.194  0.00  0.00    +0.000 A 
ATOM     10  O   UNL     1       8.246   5.949  15.207  0.00  0.00    +0.000 OA
ATOM     11  C   UNL     1       6.105   5.794  16.276  0.00  0.00    +0.000 A 
ENDROOT
BRANCH   1  15
ATOM     12  C   UNL     1       2.825   4.398  20.038  0.00  0.00    +0.000 A 
ATOM     13  C   UNL     1       4.173   4.760  20.061  0.00  0.00    +0.000 A 
ATOM     14  C   UNL     1       4.879   4.947  18.875  0.00  0.00    +0.000 A 
ATOM     15  C   UNL     1       4.272   4.768  17.621  0.00  0.00    +0.000 A 
ATOM     16  C   UNL     1       2.949   4.309  17.612  0.00  0.00    +0.000 A 
ATOM     17  C   UNL     1       2.220   4.106  18.806  0.00  0.00    +0.000 A 
BRANCH  12  19
ATOM     18  C   UNL     1       2.125   2.991  21.802  0.00  0.00    +0.000 C 
ATOM     19  O   UNL     1       2.119   4.290  21.205  0.00  0.00    +0.000 OA
ENDBRANCH  12  19
BRANCH  17  20
ATOM     20  O   UNL     1       0.952   3.639  18.572  0.00  0.00    +0.000 OA
ATOM     21  C   UNL     1       0.710   2.241  18.669  0.00  0.00    +0.000 C 
ENDBRANCH  17  20
ENDBRANCH   1  15
BRANCH  11  22
ATOM     22  O   UNL     1       6.234   6.856  17.165  0.00  0.00    +0.000 OA
BRANCH  22  23
ATOM     23  C   UNL     1       7.504   7.036  17.780  0.00  0.00    +0.000 C 
BRANCH  23  24
ATOM     24  C   UNL     1       7.831   8.514  17.882  0.00  0.00    +0.000 C 
ATOM     25  O   UNL     1       7.282   9.340  17.156  0.00  0.00    +0.000 OA
ATOM     26  N   UNL     1       8.784   8.809  18.855  0.00  0.00    +0.000 N 
ATOM     27  H   UNL     1       9.431   8.050  19.048  0.00  0.00    +0.000 HD
BRANCH  26  28
ATOM     28  C   UNL     1       9.266  10.124  18.987  0.00  0.00    +0.000 A 
ATOM     29  C   UNL     1       9.401  10.658  20.283  0.00  0.00    +0.000 A 
ATOM     30  C   UNL     1      10.128  11.832  20.476  0.00  0.00    +0.000 A 
ATOM     31  C   UNL     1      10.624  12.473  19.351  0.00  0.00    +0.000 A 
ATOM     32  C   UNL     1      10.368  12.036  18.069  0.00  0.00    +0.000 A 
ATOM     33  C   UNL     1       9.695  10.849  17.864  0.00  0.00    +0.000 A 
ATOM     34  C   UNL     1      10.950  12.988  17.108  0.00  0.00    +0.000 C 
ATOM     35  O   UNL     1      11.773  13.828  17.944  0.00  0.00    +0.000 OA
ATOM     36  C   UNL     1      11.546  13.597  19.273  0.00  0.00    +0.000 C 
ATOM     37  O   UNL     1      12.057  14.178  20.210  0.00  0.00    +0.000 OA
ENDBRANCH  26  28
ENDBRANCH  23  24
ENDBRANCH  22  23
ENDBRANCH  11  22
TORSDOF 7
ENDMDL
MODEL 9
REMARK VINA RESULT:      -8.3      3.619     10.909
REMARK  Name = 
REMARK  9 active torsions:
REMARK  status: ('A' for Active; 'I' for Inactive)
REMARK    1  A    between atoms: C_1  and  O_2
REMARK    2  A    between atoms: O_2  and  C_3
REMARK    3  A    between atoms: C_6  and  C_7
REMARK    4  A    between atoms: C_17  and  O_18
REMARK    5  A    between atoms: O_18  and  C_19
REMARK    6  A    between atoms: C_19  and  C_20
REMARK    7  A    between atoms: N_22  and  C_23
REMARK    8  A    between atoms: C_34  and  O_35
REMARK    9  A    between atoms: O_35  and  C_36
REMARK                            x       y       z     vdW  Elec       q    Type
REMARK                         _______ _______ _______ _____ _____    ______ ____
ROOT
ATOM      1  C   UNL     1      -1.835  12.015  20.492  0.00  0.00    +0.000 A 
ATOM      2  O   UNL     1      -2.911  12.648  21.112  0.00  0.00    +0.000 OA
ATOM      3  C   UNL     1      -2.681  13.337  22.277  0.00  0.00    +0.000 A 
ATOM      4  C   UNL     1      -3.773  13.738  23.048  0.00  0.00    +0.000 A 
ATOM      5  C   UNL     1      -3.559  14.512  24.195  0.00  0.00    +0.000 A 
ATOM      6  C   UNL     1      -2.275  14.927  24.549  0.00  0.00    +0.000 A 
ATOM      7  C   UNL     1      -1.183  14.497  23.801  0.00  0.00    +0.000 A 
ATOM      8  C   UNL     1      -1.400  13.678  22.685  0.00  0.00    +0.000 A 
ATOM      9  C   UNL     1      -0.264  13.131  21.948  0.00  0.00    +0.000 A 
ATOM     10  O   UNL     1       0.861  13.569  22.155  0.00  0.00    +0.000 OA
ATOM     11  C   UNL     1      -0.562  12.062  20.948  0.00  0.00    +0.000 A 
ENDROOT
BRANCH   1  15
ATOM     12  C   UNL     1      -2.786  10.093  16.729  0.00  0.00    +0.000 A 
ATOM     13  C   UNL     1      -1.545   9.915  17.342  0.00  0.00    +0.000 A 
ATOM     14  C   UNL     1      -1.263  10.519  18.566  0.00  0.00    +0.000 A 
ATOM     15  C   UNL     1      -2.204  11.333  19.218  0.00  0.00    +0.000 A 
ATOM     16  C   UNL     1      -3.407  11.583  18.546  0.00  0.00    +0.000 A 
ATOM     17  C   UNL     1      -3.705  10.986  17.300  0.00  0.00    +0.000 A 
BRANCH  12  19
ATOM     18  C   UNL     1      -3.025  10.237  14.384  0.00  0.00    +0.000 C 
ATOM     19  O   UNL     1      -3.082   9.435  15.566  0.00  0.00    +0.000 OA
ENDBRANCH  12  19
BRANCH  17  20
ATOM     20  O   UNL     1      -4.925  11.379  16.810  0.00  0.00    +0.000 OA
ATOM     21  C   UNL     1      -5.723  12.259  17.589  0.00  0.00    +0.000 C 
ENDBRANCH  17  20
ENDBRANCH   1  15
BRANCH  11  22
ATOM     22  O   UNL     1       0.410  11.191  20.469  0.00  0.00    +0.000 OA
BRANCH  22  23
ATOM     23  C   UNL     1       1.005  10.302  21.407  0.00  0.00    +0.000 C 
BRANCH  23  24
ATOM     24  C   UNL     1       0.817   8.865  20.958  0.00  0.00    +0.000 C 
ATOM     25  O   UNL     1      -0.203   8.238  21.236  0.00  0.00    +0.000 OA
ATOM     26  N   UNL     1       1.890   8.366  20.222  0.00  0.00    +0.000 N 
ATOM     27  H   UNL     1       2.782   8.801  20.439  0.00  0.00    +0.000 HD
BRANCH  26  28
ATOM     28  C   UNL     1       1.904   7.014  19.833  0.00  0.00    +0.000 A 
ATOM     29  C   UNL     1       2.194   6.710  18.489  0.00  0.00    +0.000 A 
ATOM     30  C   UNL     1       2.493   5.398  18.125  0.00  0.00    +0.000 A 
ATOM     31  C   UNL     1       2.410   4.423  19.108  0.00  0.00    +0.000 A 
ATOM     32  C   UNL     1       1.982   4.691  20.391  0.00  0.00    +0.000 A 
ATOM     33  C   UNL     1       1.732   5.992  20.780  0.00  0.00    +0.000 A 
ATOM     34  C   UNL     1       1.912   3.432  21.152  0.00  0.00    +0.000 C 
ATOM     35  O   UNL     1       2.589   2.495  20.287  0.00  0.00    +0.000 OA
ATOM     36  C   UNL     1       2.827   3.030  19.050  0.00  0.00    +0.000 C 
ATOM     37  O   UNL     1       3.341   2.469  18.102  0.00  0.00    +0.000 OA
ENDBRANCH  26  28
ENDBRANCH  23  24
ENDBRANCH  22  23
ENDBRANCH  11  22
TORSDOF 7
ENDMDL
