MODEL 1
REMARK VINA RESULT:      -8.2      0.000      0.000
REMARK  Name = 
REMARK  5 active torsions:
REMARK  status: ('A' for Active; 'I' for Inactive)
REMARK    1  A    between atoms: C_2  and  C_5
REMARK    2  A    between atoms: C_5  and  O_6
REMARK    3  A    between atoms: O_6  and  C_7
REMARK    4  A    between atoms: N_12  and  C_13
REMARK    5  A    between atoms: C_16  and  C_17
REMARK                            x       y       z     vdW  Elec       q    Type
REMARK                         _______ _______ _______ _____ _____    ______ ____
ROOT
ATOM      1  C   UNL     1       2.300   3.906  17.852  0.00  0.00    +0.000 A 
ATOM      2  C   UNL     1       3.397   3.293  17.317  0.00  0.00    +0.000 A 
ATOM      3  C   UNL     1       4.445   4.134  17.042  0.00  0.00    +0.000 A 
ATOM      4  N   UNL     1       4.409   5.468  17.244  0.00  0.00    +0.000 NA
ATOM      5  C   UNL     1       3.278   5.977  17.754  0.00  0.00    +0.000 A 
ATOM      6  N   UNL     1       3.228   7.362  17.934  0.00  0.00    +0.000 N 
ATOM      7  N   UNL     1       2.214   5.224  18.060  0.00  0.00    +0.000 NA
ATOM      8  H   UNL     1       4.024   7.809  17.508  0.00  0.00    +0.000 HD
ENDROOT
BRANCH   6   9
ATOM      9  C   UNL     1       2.204   8.157  18.463  0.00  0.00    +0.000 A 
ATOM     10  C   UNL     1       1.500   9.079  17.687  0.00  0.00    +0.000 A 
ATOM     11  C   UNL     1       0.592   9.973  18.250  0.00  0.00    +0.000 A 
ATOM     12  C   UNL     1       0.346   9.974  19.628  0.00  0.00    +0.000 A 
ATOM     13  C   UNL     1       1.005   9.016  20.410  0.00  0.00    +0.000 A 
ATOM     14 CL   UNL     1       0.736   8.884  22.112  0.00  0.00    +0.000 Cl
ATOM     15  C   UNL     1       1.929   8.122  19.833  0.00  0.00    +0.000 A 
BRANCH  12  16
ATOM     16  C   UNL     1      -0.635  10.979  20.201  0.00  0.00    +0.000 C 
ATOM     17  C   UNL     1      -1.498  11.610  19.077  0.00  0.00    +0.000 C 
ATOM     18  N   UNL     1      -2.392  12.684  19.564  0.00  0.00    +0.000 NA
ATOM     19  C   UNL     1      -1.578  13.670  20.297  0.00  0.00    +0.000 C 
ATOM     20  C   UNL     1      -0.754  13.018  21.415  0.00  0.00    +0.000 C 
ATOM     21  O   UNL     1       0.111  12.002  20.899  0.00  0.00    +0.000 OA
ATOM     22  H   UNL     1      -3.066  12.272  20.210  0.00  0.00    +0.000 HD
ENDBRANCH  12  16
ENDBRANCH   6   9
BRANCH   1  23
ATOM     23  O   UNL     1       1.236   3.107  18.203  0.00  0.00    +0.000 OA
BRANCH  23  24
ATOM     24  C   UNL     1       1.486   2.351  19.401  0.00  0.00    +0.000 C 
BRANCH  24  26
ATOM     25  F   UNL     1       0.855   2.494  21.706  0.00  0.00    +0.000 F 
ATOM     26  C   UNL     1       1.282   3.209  20.641  0.00  0.00    +0.000 C 
ATOM     27  F   UNL     1       0.373   4.185  20.418  0.00  0.00    +0.000 F 
ATOM     28  F   UNL     1       2.440   3.814  21.002  0.00  0.00    +0.000 F 
ENDBRANCH  24  26
ENDBRANCH  23  24
ENDBRANCH   1  23
TORSDOF 5
ENDMDL
MODEL 2
REMARK VINA RESULT:      -8.1      6.098      7.747
REMARK  Name = 
REMARK  5 active torsions:
REMARK  status: ('A' for Active; 'I' for Inactive)
REMARK    1  A    between atoms: C_2  and  C_5
REMARK    2  A    between atoms: C_5  and  O_6
REMARK    3  A    between atoms: O_6  and  C_7
REMARK    4  A    between atoms: N_12  and  C_13
REMARK    5  A    between atoms: C_16  and  C_17
REMARK                            x       y       z     vdW  Elec       q    Type
REMARK                         _______ _______ _______ _____ _____    ______ ____
ROOT
ATOM      1  C   UNL     1       6.063   3.767  13.030  0.00  0.00    +0.000 A 
ATOM      2  C   UNL     1       7.005   4.096  12.096  0.00  0.00    +0.000 A 
ATOM      3  C   UNL     1       7.952   4.989  12.528  0.00  0.00    +0.000 A 
ATOM      4  N   UNL     1       7.958   5.538  13.761  0.00  0.00    +0.000 NA
ATOM      5  C   UNL     1       6.979   5.166  14.599  0.00  0.00    +0.000 A 
ATOM      6  N   UNL     1       6.966   5.757  15.865  0.00  0.00    +0.000 N 
ATOM      7  N   UNL     1       6.022   4.292  14.259  0.00  0.00    +0.000 NA
ATOM      8  H   UNL     1       7.634   6.509  15.917  0.00  0.00    +0.000 HD
ENDROOT
BRANCH   6   9
ATOM      9  C   UNL     1       6.094   5.546  16.940  0.00  0.00    +0.000 A 
ATOM     10  C   UNL     1       6.209   4.442  17.786  0.00  0.00    +0.000 A 
ATOM     11  C   UNL     1       5.250   4.155  18.756  0.00  0.00    +0.000 A 
ATOM     12  C   UNL     1       4.128   4.977  18.921  0.00  0.00    +0.000 A 
ATOM     13  C   UNL     1       4.030   6.119  18.115  0.00  0.00    +0.000 A 
ATOM     14 CL   UNL     1       2.722   7.237  18.270  0.00  0.00    +0.000 Cl
ATOM     15  C   UNL     1       5.000   6.395  17.131  0.00  0.00    +0.000 A 
BRANCH  12  16
ATOM     16  C   UNL     1       3.099   4.615  19.975  0.00  0.00    +0.000 C 
ATOM     17  C   UNL     1       3.533   3.349  20.759  0.00  0.00    +0.000 C 
ATOM     18  N   UNL     1       2.511   2.881  21.720  0.00  0.00    +0.000 NA
ATOM     19  C   UNL     1       1.237   2.712  20.998  0.00  0.00    +0.000 C 
ATOM     20  C   UNL     1       0.824   3.987  20.252  0.00  0.00    +0.000 C 
ATOM     21  O   UNL     1       1.830   4.392  19.319  0.00  0.00    +0.000 OA
ATOM     22  H   UNL     1       2.388   3.601  22.433  0.00  0.00    +0.000 HD
ENDBRANCH  12  16
ENDBRANCH   6   9
BRANCH   1  23
ATOM     23  O   UNL     1       5.118   2.832  12.675  0.00  0.00    +0.000 OA
BRANCH  23  24
ATOM     24  C   UNL     1       4.973   2.708  11.249  0.00  0.00    +0.000 C 
BRANCH  24  26
ATOM     25  F   UNL     1       2.591   2.750  11.486  0.00  0.00    +0.000 F 
ATOM     26  C   UNL     1       3.631   3.257  10.787  0.00  0.00    +0.000 C 
ATOM     27  F   UNL     1       3.414   2.982   9.480  0.00  0.00    +0.000 F 
ATOM     28  F   UNL     1       3.590   4.604  10.925  0.00  0.00    +0.000 F 
ENDBRANCH  24  26
ENDBRANCH  23  24
ENDBRANCH   1  23
TORSDOF 5
ENDMDL
MODEL 3
REMARK VINA RESULT:      -7.7      0.676      1.048
REMARK  Name = 
REMARK  5 active torsions:
REMARK  status: ('A' for Active; 'I' for Inactive)
REMARK    1  A    between atoms: C_2  and  C_5
REMARK    2  A    between atoms: C_5  and  O_6
REMARK    3  A    between atoms: O_6  and  C_7
REMARK    4  A    between atoms: N_12  and  C_13
REMARK    5  A    between atoms: C_16  and  C_17
REMARK                            x       y       z     vdW  Elec       q    Type
REMARK                         _______ _______ _______ _____ _____    ______ ____
ROOT
ATOM      1  C   UNL     1       3.065   4.060  17.537  0.00  0.00    +0.000 A 
ATOM      2  C   UNL     1       4.206   3.612  16.933  0.00  0.00    +0.000 A 
ATOM      3  C   UNL     1       5.117   4.592  16.632  0.00  0.00    +0.000 A 
ATOM      4  N   UNL     1       4.913   5.904  16.874  0.00  0.00    +0.000 NA
ATOM      5  C   UNL     1       3.752   6.245  17.451  0.00  0.00    +0.000 A 
ATOM      6  N   UNL     1       3.528   7.606  17.673  0.00  0.00    +0.000 N 
ATOM      7  N   UNL     1       2.815   5.349  17.786  0.00  0.00    +0.000 NA
ATOM      8  H   UNL     1       4.234   8.165  17.223  0.00  0.00    +0.000 HD
ENDROOT
BRANCH   6   9
ATOM      9  C   UNL     1       2.436   8.244  18.273  0.00  0.00    +0.000 A 
ATOM     10  C   UNL     1       1.598   9.109  17.567  0.00  0.00    +0.000 A 
ATOM     11  C   UNL     1       0.610   9.858  18.202  0.00  0.00    +0.000 A 
ATOM     12  C   UNL     1       0.416   9.765  19.586  0.00  0.00    +0.000 A 
ATOM     13  C   UNL     1       1.214   8.858  20.298  0.00  0.00    +0.000 A 
ATOM     14 CL   UNL     1       1.024   8.614  21.998  0.00  0.00    +0.000 Cl
ATOM     15  C   UNL     1       2.217   8.112  19.648  0.00  0.00    +0.000 A 
BRANCH  12  16
ATOM     16  C   UNL     1      -0.657  10.614  20.240  0.00  0.00    +0.000 C 
ATOM     17  C   UNL     1      -1.598  11.232  19.171  0.00  0.00    +0.000 C 
ATOM     18  N   UNL     1      -2.594  12.165  19.744  0.00  0.00    +0.000 NA
ATOM     19  C   UNL     1      -1.877  13.175  20.543  0.00  0.00    +0.000 C 
ATOM     20  C   UNL     1      -0.973  12.534  21.604  0.00  0.00    +0.000 C 
ATOM     21  O   UNL     1      -0.014  11.656  21.008  0.00  0.00    +0.000 OA
ATOM     22  H   UNL     1      -3.210  11.637  20.362  0.00  0.00    +0.000 HD
ENDBRANCH  12  16
ENDBRANCH   6   9
BRANCH   1  23
ATOM     23  O   UNL     1       2.136   3.117  17.915  0.00  0.00    +0.000 OA
BRANCH  23  24
ATOM     24  C   UNL     1       2.246   2.762  19.305  0.00  0.00    +0.000 C 
BRANCH  24  26
ATOM     25  F   UNL     1       0.787   4.413  20.244  0.00  0.00    +0.000 F 
ATOM     26  C   UNL     1       0.962   3.086  20.055  0.00  0.00    +0.000 C 
ATOM     27  F   UNL     1       0.944   2.497  21.273  0.00  0.00    +0.000 F 
ATOM     28  F   UNL     1      -0.119   2.631  19.374  0.00  0.00    +0.000 F 
ENDBRANCH  24  26
ENDBRANCH  23  24
ENDBRANCH   1  23
TORSDOF 5
ENDMDL
MODEL 4
REMARK VINA RESULT:      -7.4      6.202      7.894
REMARK  Name = 
REMARK  5 active torsions:
REMARK  status: ('A' for Active; 'I' for Inactive)
REMARK    1  A    between atoms: C_2  and  C_5
REMARK    2  A    between atoms: C_5  and  O_6
REMARK    3  A    between atoms: O_6  and  C_7
REMARK    4  A    between atoms: N_12  and  C_13
REMARK    5  A    between atoms: C_16  and  C_17
REMARK                            x       y       z     vdW  Elec       q    Type
REMARK                         _______ _______ _______ _____ _____    ______ ____
ROOT
ATOM      1  C   UNL     1       6.303   3.842  12.554  0.00  0.00    +0.000 A 
ATOM      2  C   UNL     1       7.350   4.229  11.766  0.00  0.00    +0.000 A 
ATOM      3  C   UNL     1       8.216   5.111  12.359  0.00  0.00    +0.000 A 
ATOM      4  N   UNL     1       8.053   5.598  13.607  0.00  0.00    +0.000 NA
ATOM      5  C   UNL     1       6.983   5.172  14.293  0.00  0.00    +0.000 A 
ATOM      6  N   UNL     1       6.796   5.700  15.573  0.00  0.00    +0.000 N 
ATOM      7  N   UNL     1       6.095   4.304  13.791  0.00  0.00    +0.000 NA
ATOM      8  H   UNL     1       7.438   6.456  15.747  0.00  0.00    +0.000 HD
ENDROOT
BRANCH   6   9
ATOM      9  C   UNL     1       5.798   5.424  16.515  0.00  0.00    +0.000 A 
ATOM     10  C   UNL     1       5.620   4.151  17.061  0.00  0.00    +0.000 A 
ATOM     11  C   UNL     1       4.534   3.847  17.878  0.00  0.00    +0.000 A 
ATOM     12  C   UNL     1       3.574   4.818  18.189  0.00  0.00    +0.000 A 
ATOM     13  C   UNL     1       3.771   6.114  17.692  0.00  0.00    +0.000 A 
ATOM     14 CL   UNL     1       2.686   7.407  18.058  0.00  0.00    +0.000 Cl
ATOM     15  C   UNL     1       4.868   6.410  16.859  0.00  0.00    +0.000 A 
BRANCH  12  16
ATOM     16  C   UNL     1       2.395   4.437  19.065  0.00  0.00    +0.000 C 
ATOM     17  C   UNL     1       2.788   4.476  20.565  0.00  0.00    +0.000 C 
ATOM     18  N   UNL     1       1.710   3.999  21.460  0.00  0.00    +0.000 NA
ATOM     19  C   UNL     1       1.283   2.665  21.003  0.00  0.00    +0.000 C 
ATOM     20  C   UNL     1       0.881   2.664  19.523  0.00  0.00    +0.000 C 
ATOM     21  O   UNL     1       1.956   3.111  18.692  0.00  0.00    +0.000 OA
ATOM     22  H   UNL     1       0.920   4.640  21.380  0.00  0.00    +0.000 HD
ENDBRANCH  12  16
ENDBRANCH   6   9
BRANCH   1  23
ATOM     23  O   UNL     1       5.430   2.913  12.036  0.00  0.00    +0.000 OA
BRANCH  23  24
ATOM     24  C   UNL     1       4.075   3.393  11.994  0.00  0.00    +0.000 C 
BRANCH  24  26
ATOM     25  F   UNL     1       4.468   3.022   9.661  0.00  0.00    +0.000 F 
ATOM     26  C   UNL     1       3.537   3.388  10.570  0.00  0.00    +0.000 C 
ATOM     27  F   UNL     1       3.082   4.611  10.214  0.00  0.00    +0.000 F 
ATOM     28  F   UNL     1       2.499   2.524  10.451  0.00  0.00    +0.000 F 
ENDBRANCH  24  26
ENDBRANCH  23  24
ENDBRANCH   1  23
TORSDOF 5
ENDMDL
MODEL 5
REMARK VINA RESULT:      -7.3      6.335      7.917
REMARK  Name = 
REMARK  5 active torsions:
REMARK  status: ('A' for Active; 'I' for Inactive)
REMARK    1  A    between atoms: C_2  and  C_5
REMARK    2  A    between atoms: C_5  and  O_6
REMARK    3  A    between atoms: O_6  and  C_7
REMARK    4  A    between atoms: N_12  and  C_13
REMARK    5  A    between atoms: C_16  and  C_17
REMARK                            x       y       z     vdW  Elec       q    Type
REMARK                         _______ _______ _______ _____ _____    ______ ____
ROOT
ATOM      1  C   UNL     1       6.082   3.634  12.816  0.00  0.00    +0.000 A 
ATOM      2  C   UNL     1       7.050   3.981  11.917  0.00  0.00    +0.000 A 
ATOM      3  C   UNL     1       7.944   4.917  12.372  0.00  0.00    +0.000 A 
ATOM      4  N   UNL     1       7.876   5.487  13.594  0.00  0.00    +0.000 NA
ATOM      5  C   UNL     1       6.876   5.093  14.396  0.00  0.00    +0.000 A 
ATOM      6  N   UNL     1       6.787   5.704  15.649  0.00  0.00    +0.000 N 
ATOM      7  N   UNL     1       5.968   4.177  14.032  0.00  0.00    +0.000 NA
ATOM      8  H   UNL     1       7.424   6.481  15.716  0.00  0.00    +0.000 HD
ENDROOT
BRANCH   6   9
ATOM      9  C   UNL     1       5.877   5.479  16.689  0.00  0.00    +0.000 A 
ATOM     10  C   UNL     1       6.100   5.943  17.987  0.00  0.00    +0.000 A 
ATOM     11  C   UNL     1       5.271   5.586  19.048  0.00  0.00    +0.000 A 
ATOM     12  C   UNL     1       4.170   4.743  18.848  0.00  0.00    +0.000 A 
ATOM     13  C   UNL     1       3.905   4.315  17.540  0.00  0.00    +0.000 A 
ATOM     14 CL   UNL     1       2.542   3.323  17.163  0.00  0.00    +0.000 Cl
ATOM     15  C   UNL     1       4.754   4.675  16.475  0.00  0.00    +0.000 A 
BRANCH  12  16
ATOM     16  C   UNL     1       3.308   4.362  20.036  0.00  0.00    +0.000 C 
ATOM     17  C   UNL     1       3.538   2.880  20.431  0.00  0.00    +0.000 C 
ATOM     18  N   UNL     1       2.636   2.420  21.511  0.00  0.00    +0.000 NA
ATOM     19  C   UNL     1       1.247   2.708  21.110  0.00  0.00    +0.000 C 
ATOM     20  C   UNL     1       1.048   4.185  20.747  0.00  0.00    +0.000 C 
ATOM     21  O   UNL     1       1.922   4.583  19.687  0.00  0.00    +0.000 OA
ATOM     22  H   UNL     1       2.849   2.952  22.355  0.00  0.00    +0.000 HD
ENDBRANCH  12  16
ENDBRANCH   6   9
BRANCH   1  23
ATOM     23  O   UNL     1       5.189   2.657  12.439  0.00  0.00    +0.000 OA
BRANCH  23  24
ATOM     24  C   UNL     1       4.925   2.667  11.024  0.00  0.00    +0.000 C 
BRANCH  24  26
ATOM     25  F   UNL     1       2.631   2.898  11.672  0.00  0.00    +0.000 F 
ATOM     26  C   UNL     1       3.542   3.232  10.730  0.00  0.00    +0.000 C 
ATOM     27  F   UNL     1       3.076   2.790   9.540  0.00  0.00    +0.000 F 
ATOM     28  F   UNL     1       3.579   4.585  10.670  0.00  0.00    +0.000 F 
ENDBRANCH  24  26
ENDBRANCH  23  24
ENDBRANCH   1  23
TORSDOF 5
ENDMDL
MODEL 6
REMARK VINA RESULT:      -7.3      4.283      5.166
REMARK  Name = 
REMARK  5 active torsions:
REMARK  status: ('A' for Active; 'I' for Inactive)
REMARK    1  A    between atoms: C_2  and  C_5
REMARK    2  A    between atoms: C_5  and  O_6
REMARK    3  A    between atoms: O_6  and  C_7
REMARK    4  A    between atoms: N_12  and  C_13
REMARK    5  A    between atoms: C_16  and  C_17
REMARK                            x       y       z     vdW  Elec       q    Type
REMARK                         _______ _______ _______ _____ _____    ______ ____
ROOT
ATOM      1  C   UNL     1       6.736   6.932  17.332  0.00  0.00    +0.000 A 
ATOM      2  C   UNL     1       7.375   5.743  17.118  0.00  0.00    +0.000 A 
ATOM      3  C   UNL     1       6.589   4.632  17.291  0.00  0.00    +0.000 A 
ATOM      4  N   UNL     1       5.295   4.681  17.673  0.00  0.00    +0.000 NA
ATOM      5  C   UNL     1       4.765   5.896  17.878  0.00  0.00    +0.000 A 
ATOM      6  N   UNL     1       3.436   5.946  18.303  0.00  0.00    +0.000 N 
ATOM      7  N   UNL     1       5.461   7.029  17.720  0.00  0.00    +0.000 NA
ATOM      8  H   UNL     1       3.098   5.027  18.538  0.00  0.00    +0.000 HD
ENDROOT
BRANCH   6   9
ATOM      9  C   UNL     1       2.624   7.056  18.566  0.00  0.00    +0.000 A 
ATOM     10  C   UNL     1       2.320   8.005  17.588  0.00  0.00    +0.000 A 
ATOM     11  C   UNL     1       1.642   9.184  17.893  0.00  0.00    +0.000 A 
ATOM     12  C   UNL     1       1.233   9.459  19.204  0.00  0.00    +0.000 A 
ATOM     13  C   UNL     1       1.484   8.489  20.183  0.00  0.00    +0.000 A 
ATOM     14 CL   UNL     1       0.972   8.692  21.821  0.00  0.00    +0.000 Cl
ATOM     15  C   UNL     1       2.178   7.304  19.868  0.00  0.00    +0.000 A 
BRANCH  12  16
ATOM     16  C   UNL     1       0.517  10.765  19.494  0.00  0.00    +0.000 C 
ATOM     17  C   UNL     1      -0.871  10.798  18.802  0.00  0.00    +0.000 C 
ATOM     18  N   UNL     1      -1.565  12.096  18.954  0.00  0.00    +0.000 NA
ATOM     19  C   UNL     1      -0.659  13.164  18.495  0.00  0.00    +0.000 C 
ATOM     20  C   UNL     1       0.696  13.117  19.213  0.00  0.00    +0.000 C 
ATOM     21  O   UNL     1       1.342  11.855  19.023  0.00  0.00    +0.000 OA
ATOM     22  H   UNL     1      -1.763  12.240  19.945  0.00  0.00    +0.000 HD
ENDBRANCH  12  16
ENDBRANCH   6   9
BRANCH   1  23
ATOM     23  O   UNL     1       7.456   8.085  17.118  0.00  0.00    +0.000 OA
BRANCH  23  24
ATOM     24  C   UNL     1       8.370   8.372  18.192  0.00  0.00    +0.000 C 
BRANCH  24  26
ATOM     25  F   UNL     1       8.760  10.297  19.561  0.00  0.00    +0.000 F 
ATOM     26  C   UNL     1       8.652   9.864  18.284  0.00  0.00    +0.000 C 
ATOM     27  F   UNL     1       7.674  10.586  17.693  0.00  0.00    +0.000 F 
ATOM     28  F   UNL     1       9.814  10.173  17.657  0.00  0.00    +0.000 F 
ENDBRANCH  24  26
ENDBRANCH  23  24
ENDBRANCH   1  23
TORSDOF 5
ENDMDL
MODEL 7
REMARK VINA RESULT:      -7.3      3.605      8.163
REMARK  Name = 
REMARK  5 active torsions:
REMARK  status: ('A' for Active; 'I' for Inactive)
REMARK    1  A    between atoms: C_2  and  C_5
REMARK    2  A    between atoms: C_5  and  O_6
REMARK    3  A    between atoms: O_6  and  C_7
REMARK    4  A    between atoms: N_12  and  C_13
REMARK    5  A    between atoms: C_16  and  C_17
REMARK                            x       y       z     vdW  Elec       q    Type
REMARK                         _______ _______ _______ _____ _____    ______ ____
ROOT
ATOM      1  C   UNL     1      -0.832  11.328  19.445  0.00  0.00    +0.000 A 
ATOM      2  C   UNL     1      -1.070  12.360  20.308  0.00  0.00    +0.000 A 
ATOM      3  C   UNL     1      -0.492  12.217  21.544  0.00  0.00    +0.000 A 
ATOM      4  N   UNL     1       0.231  11.139  21.913  0.00  0.00    +0.000 NA
ATOM      5  C   UNL     1       0.391  10.170  21.000  0.00  0.00    +0.000 A 
ATOM      6  N   UNL     1       1.113   9.040  21.392  0.00  0.00    +0.000 N 
ATOM      7  N   UNL     1      -0.131  10.237  19.769  0.00  0.00    +0.000 NA
ATOM      8  H   UNL     1       1.296   9.055  22.382  0.00  0.00    +0.000 HD
ENDROOT
BRANCH   6   9
ATOM      9  C   UNL     1       1.456   7.900  20.654  0.00  0.00    +0.000 A 
ATOM     10  C   UNL     1       1.173   6.609  21.104  0.00  0.00    +0.000 A 
ATOM     11  C   UNL     1       1.651   5.479  20.443  0.00  0.00    +0.000 A 
ATOM     12  C   UNL     1       2.436   5.600  19.290  0.00  0.00    +0.000 A 
ATOM     13  C   UNL     1       2.681   6.889  18.798  0.00  0.00    +0.000 A 
ATOM     14 CL   UNL     1       3.586   7.158  17.351  0.00  0.00    +0.000 Cl
ATOM     15  C   UNL     1       2.201   8.026  19.478  0.00  0.00    +0.000 A 
BRANCH  12  16
ATOM     16  C   UNL     1       2.954   4.343  18.615  0.00  0.00    +0.000 C 
ATOM     17  C   UNL     1       1.780   3.483  18.077  0.00  0.00    +0.000 C 
ATOM     18  N   UNL     1       2.220   2.188  17.513  0.00  0.00    +0.000 NA
ATOM     19  C   UNL     1       3.036   1.494  18.525  0.00  0.00    +0.000 C 
ATOM     20  C   UNL     1       4.200   2.362  19.020  0.00  0.00    +0.000 C 
ATOM     21  O   UNL     1       3.730   3.593  19.577  0.00  0.00    +0.000 OA
ATOM     22  H   UNL     1       2.803   2.375  16.697  0.00  0.00    +0.000 HD
ENDBRANCH  12  16
ENDBRANCH   6   9
BRANCH   1  23
ATOM     23  O   UNL     1      -1.338  11.440  18.170  0.00  0.00    +0.000 OA
BRANCH  23  24
ATOM     24  C   UNL     1      -2.765  11.265  18.126  0.00  0.00    +0.000 C 
BRANCH  24  26
ATOM     25  F   UNL     1      -4.171  10.410  16.386  0.00  0.00    +0.000 F 
ATOM     26  C   UNL     1      -3.147  10.107  17.215  0.00  0.00    +0.000 C 
ATOM     27  F   UNL     1      -3.513   9.020  17.931  0.00  0.00    +0.000 F 
ATOM     28  F   UNL     1      -2.097   9.741  16.438  0.00  0.00    +0.000 F 
ENDBRANCH  24  26
ENDBRANCH  23  24
ENDBRANCH   1  23
TORSDOF 5
ENDMDL
MODEL 8
REMARK VINA RESULT:      -7.3      6.185      7.931
REMARK  Name = 
REMARK  5 active torsions:
REMARK  status: ('A' for Active; 'I' for Inactive)
REMARK    1  A    between atoms: C_2  and  C_5
REMARK    2  A    between atoms: C_5  and  O_6
REMARK    3  A    between atoms: O_6  and  C_7
REMARK    4  A    between atoms: N_12  and  C_13
REMARK    5  A    between atoms: C_16  and  C_17
REMARK                            x       y       z     vdW  Elec       q    Type
REMARK                         _______ _______ _______ _____ _____    ______ ____
ROOT
ATOM      1  C   UNL     1       6.393   3.603  12.712  0.00  0.00    +0.000 A 
ATOM      2  C   UNL     1       7.229   4.093  11.750  0.00  0.00    +0.000 A 
ATOM      3  C   UNL     1       8.025   5.133  12.159  0.00  0.00    +0.000 A 
ATOM      4  N   UNL     1       7.982   5.667  13.398  0.00  0.00    +0.000 NA
ATOM      5  C   UNL     1       7.112   5.129  14.264  0.00  0.00    +0.000 A 
ATOM      6  N   UNL     1       7.045   5.702  15.537  0.00  0.00    +0.000 N 
ATOM      7  N   UNL     1       6.308   4.106  13.948  0.00  0.00    +0.000 NA
ATOM      8  H   UNL     1       7.576   6.556  15.575  0.00  0.00    +0.000 HD
ENDROOT
BRANCH   6   9
ATOM      9  C   UNL     1       6.262   5.338  16.639  0.00  0.00    +0.000 A 
ATOM     10  C   UNL     1       6.757   4.544  17.675  0.00  0.00    +0.000 A 
ATOM     11  C   UNL     1       5.933   4.059  18.689  0.00  0.00    +0.000 A 
ATOM     12  C   UNL     1       4.565   4.359  18.707  0.00  0.00    +0.000 A 
ATOM     13  C   UNL     1       4.067   5.200  17.703  0.00  0.00    +0.000 A 
ATOM     14 CL   UNL     1       2.409   5.686  17.658  0.00  0.00    +0.000 Cl
ATOM     15  C   UNL     1       4.906   5.678  16.677  0.00  0.00    +0.000 A 
BRANCH  12  16
ATOM     16  C   UNL     1       3.701   3.792  19.817  0.00  0.00    +0.000 C 
ATOM     17  C   UNL     1       2.768   2.676  19.275  0.00  0.00    +0.000 C 
ATOM     18  N   UNL     1       1.819   2.168  20.290  0.00  0.00    +0.000 NA
ATOM     19  C   UNL     1       1.088   3.315  20.858  0.00  0.00    +0.000 C 
ATOM     20  C   UNL     1       2.037   4.389  21.405  0.00  0.00    +0.000 C 
ATOM     21  O   UNL     1       2.922   4.868  20.388  0.00  0.00    +0.000 OA
ATOM     22  H   UNL     1       2.356   1.722  21.035  0.00  0.00    +0.000 HD
ENDBRANCH  12  16
ENDBRANCH   6   9
BRANCH   1  23
ATOM     23  O   UNL     1       5.609   2.521  12.379  0.00  0.00    +0.000 OA
BRANCH  23  24
ATOM     24  C   UNL     1       5.138   2.578  11.021  0.00  0.00    +0.000 C 
BRANCH  24  26
ATOM     25  F   UNL     1       2.907   2.401  10.171  0.00  0.00    +0.000 F 
ATOM     26  C   UNL     1       3.724   3.137  10.956  0.00  0.00    +0.000 C 
ATOM     27  F   UNL     1       3.719   4.401  10.474  0.00  0.00    +0.000 F 
ATOM     28  F   UNL     1       3.166   3.177  12.191  0.00  0.00    +0.000 F 
ENDBRANCH  24  26
ENDBRANCH  23  24
ENDBRANCH   1  23
TORSDOF 5
ENDMDL
MODEL 9
REMARK VINA RESULT:      -7.2      4.211      8.060
REMARK  Name = 
REMARK  5 active torsions:
REMARK  status: ('A' for Active; 'I' for Inactive)
REMARK    1  A    between atoms: C_2  and  C_5
REMARK    2  A    between atoms: C_5  and  O_6
REMARK    3  A    between atoms: O_6  and  C_7
REMARK    4  A    between atoms: N_12  and  C_13
REMARK    5  A    between atoms: C_16  and  C_17
REMARK                            x       y       z     vdW  Elec       q    Type
REMARK                         _______ _______ _______ _____ _____    ______ ____
ROOT
ATOM      1  C   UNL     1      -2.586  10.320  18.017  0.00  0.00    +0.000 A 
ATOM      2  C   UNL     1      -3.230  11.458  18.413  0.00  0.00    +0.000 A 
ATOM      3  C   UNL     1      -2.513  12.253  19.269  0.00  0.00    +0.000 A 
ATOM      4  N   UNL     1      -1.280  11.944  19.724  0.00  0.00    +0.000 NA
ATOM      5  C   UNL     1      -0.741  10.794  19.292  0.00  0.00    +0.000 A 
ATOM      6  N   UNL     1       0.521  10.459  19.787  0.00  0.00    +0.000 N 
ATOM      7  N   UNL     1      -1.371   9.967  18.448  0.00  0.00    +0.000 NA
ATOM      8  H   UNL     1       0.794  11.080  20.531  0.00  0.00    +0.000 HD
ENDROOT
BRANCH   6   9
ATOM      9  C   UNL     1       1.328   9.351  19.497  0.00  0.00    +0.000 A 
ATOM     10  C   UNL     1       2.051   9.247  18.307  0.00  0.00    +0.000 A 
ATOM     11  C   UNL     1       2.727   8.080  17.957  0.00  0.00    +0.000 A 
ATOM     12  C   UNL     1       2.709   6.960  18.797  0.00  0.00    +0.000 A 
ATOM     13  C   UNL     1       2.033   7.071  20.020  0.00  0.00    +0.000 A 
ATOM     14 CL   UNL     1       1.993   5.776  21.162  0.00  0.00    +0.000 Cl
ATOM     15  C   UNL     1       1.344   8.252  20.361  0.00  0.00    +0.000 A 
BRANCH  12  16
ATOM     16  C   UNL     1       3.440   5.703  18.366  0.00  0.00    +0.000 C 
ATOM     17  C   UNL     1       4.709   6.057  17.546  0.00  0.00    +0.000 C 
ATOM     18  N   UNL     1       5.398   4.867  16.999  0.00  0.00    +0.000 NA
ATOM     19  C   UNL     1       4.418   4.070  16.241  0.00  0.00    +0.000 C 
ATOM     20  C   UNL     1       3.186   3.718  17.086  0.00  0.00    +0.000 C 
ATOM     21  O   UNL     1       2.538   4.895  17.576  0.00  0.00    +0.000 OA
ATOM     22  H   UNL     1       5.740   4.307  17.781  0.00  0.00    +0.000 HD
ENDBRANCH  12  16
ENDBRANCH   6   9
BRANCH   1  23
ATOM     23  O   UNL     1      -3.232   9.508  17.112  0.00  0.00    +0.000 OA
BRANCH  23  24
ATOM     24  C   UNL     1      -2.499   9.358  15.884  0.00  0.00    +0.000 C 
BRANCH  24  26
ATOM     25  F   UNL     1      -3.252  11.455  15.006  0.00  0.00    +0.000 F 
ATOM     26  C   UNL     1      -3.163  10.130  14.753  0.00  0.00    +0.000 C 
ATOM     27  F   UNL     1      -4.416   9.676  14.520  0.00  0.00    +0.000 F 
ATOM     28  F   UNL     1      -2.465   9.988  13.600  0.00  0.00    +0.000 F 
ENDBRANCH  24  26
ENDBRANCH  23  24
ENDBRANCH   1  23
TORSDOF 5
ENDMDL
