MODEL 1
REMARK VINA RESULT:      -9.2      0.000      0.000
REMARK  Name = 
REMARK  4 active torsions:
REMARK  status: ('A' for Active; 'I' for Inactive)
REMARK    1  A    between atoms: C_2  and  C_3
REMARK    2  A    between atoms: C_5  and  C_6
REMARK    3  A    between atoms: C_15  and  C_16
REMARK    4  A    between atoms: C_23  and  N_24
REMARK                            x       y       z     vdW  Elec       q    Type
REMARK                         _______ _______ _______ _____ _____    ______ ____
ROOT
ATOM      1  C   UNL     1       2.281   5.742  20.019  0.00  0.00    +0.000 A 
ATOM      2  C   UNL     1       2.011   4.891  21.068  0.00  0.00    +0.000 A 
ATOM      3  C   UNL     1       2.448   3.595  20.927  0.00  0.00    +0.000 A 
ATOM      4  N   UNL     1       3.124   3.145  19.854  0.00  0.00    +0.000 NA
ATOM      5  C   UNL     1       3.403   4.045  18.899  0.00  0.00    +0.000 A 
ATOM      6  N   UNL     1       4.156   3.591  17.823  0.00  0.00    +0.000 N 
ATOM      7  C   UNL     1       4.864   4.395  17.023  0.00  0.00    +0.000 A 
ATOM      8  N   UNL     1       5.058   5.695  17.088  0.00  0.00    +0.000 NA
ATOM      9  C   UNL     1       5.845   5.983  16.015  0.00  0.00    +0.000 A 
ATOM     10  C   UNL     1       6.122   4.838  15.311  0.00  0.00    +0.000 A 
ATOM     11  O   UNL     1       5.517   3.792  15.973  0.00  0.00    +0.000 OA
ATOM     12  N   UNL     1       2.975   5.317  18.947  0.00  0.00    +0.000 NA
ATOM     13  H   UNL     1       4.336   2.604  17.869  0.00  0.00    +0.000 HD
ENDROOT
BRANCH   1  16
ATOM     14  C   UNL     1       0.913   9.156  21.086  0.00  0.00    +0.000 A 
ATOM     15  C   UNL     1       1.342   7.806  21.117  0.00  0.00    +0.000 A 
ATOM     16  C   UNL     1       1.839   7.153  19.977  0.00  0.00    +0.000 A 
ATOM     17  C   UNL     1       1.911   7.915  18.808  0.00  0.00    +0.000 A 
ATOM     18  C   UNL     1       1.493   9.256  18.772  0.00  0.00    +0.000 A 
ATOM     19  C   UNL     1       0.977   9.920  19.896  0.00  0.00    +0.000 A 
BRANCH  19  20
ATOM     20  N   UNL     1       0.549  11.242  19.814  0.00  0.00    +0.000 N 
ATOM     21  C   UNL     1      -0.824  11.635  19.480  0.00  0.00    +0.000 C 
ATOM     22  C   UNL     1      -0.667  12.679  18.383  0.00  0.00    +0.000 C 
ATOM     23  C   UNL     1       0.619  13.385  18.767  0.00  0.00    +0.000 C 
ATOM     24  C   UNL     1       1.495  12.273  19.348  0.00  0.00    +0.000 C 
ENDBRANCH  19  20
BRANCH  14  26
ATOM     25  N   UNL     1      -0.059  10.103  23.306  0.00  0.00    +0.000 NA
ATOM     26  C   UNL     1       0.361   9.681  22.303  0.00  0.00    +0.000 C 
ENDBRANCH  14  26
ENDBRANCH   1  16
BRANCH  10  27
ATOM     27  C   UNL     1       6.867   4.650  14.098  0.00  0.00    +0.000 C 
ATOM     28  N   UNL     1       6.477   3.609  13.305  0.00  0.00    +0.000 N 
ATOM     29  O   UNL     1       7.799   5.366  13.744  0.00  0.00    +0.000 OA
ATOM     30  H   UNL     1       5.691   3.022  13.543  0.00  0.00    +0.000 HD
ATOM     31  H   UNL     1       6.952   3.492  12.422  0.00  0.00    +0.000 HD
ENDBRANCH  10  27
TORSDOF 4
ENDMDL
MODEL 2
REMARK VINA RESULT:      -8.9      0.647      1.023
REMARK  Name = 
REMARK  4 active torsions:
REMARK  status: ('A' for Active; 'I' for Inactive)
REMARK    1  A    between atoms: C_2  and  C_3
REMARK    2  A    between atoms: C_5  and  C_6
REMARK    3  A    between atoms: C_15  and  C_16
REMARK    4  A    between atoms: C_23  and  N_24
REMARK                            x       y       z     vdW  Elec       q    Type
REMARK                         _______ _______ _______ _____ _____    ______ ____
ROOT
ATOM      1  C   UNL     1       2.342   5.604  20.054  0.00  0.00    +0.000 A 
ATOM      2  C   UNL     1       2.084   4.731  21.089  0.00  0.00    +0.000 A 
ATOM      3  C   UNL     1       2.529   3.441  20.922  0.00  0.00    +0.000 A 
ATOM      4  N   UNL     1       3.200   3.015  19.836  0.00  0.00    +0.000 NA
ATOM      5  C   UNL     1       3.467   3.934  18.895  0.00  0.00    +0.000 A 
ATOM      6  N   UNL     1       4.215   3.505  17.806  0.00  0.00    +0.000 N 
ATOM      7  C   UNL     1       4.912   4.329  17.016  0.00  0.00    +0.000 A 
ATOM      8  N   UNL     1       5.098   5.628  17.104  0.00  0.00    +0.000 NA
ATOM      9  C   UNL     1       5.876   5.941  16.030  0.00  0.00    +0.000 A 
ATOM     10  C   UNL     1       6.155   4.811  15.304  0.00  0.00    +0.000 A 
ATOM     11  O   UNL     1       5.561   3.749  15.951  0.00  0.00    +0.000 OA
ATOM     12  N   UNL     1       3.031   5.202  18.970  0.00  0.00    +0.000 NA
ATOM     13  H   UNL     1       4.402   2.519  17.833  0.00  0.00    +0.000 HD
ENDROOT
BRANCH   1  16
ATOM     14  C   UNL     1       0.963   8.990  21.194  0.00  0.00    +0.000 A 
ATOM     15  C   UNL     1       1.401   7.642  21.197  0.00  0.00    +0.000 A 
ATOM     16  C   UNL     1       1.890   7.012  20.041  0.00  0.00    +0.000 A 
ATOM     17  C   UNL     1       1.945   7.794  18.885  0.00  0.00    +0.000 A 
ATOM     18  C   UNL     1       1.518   9.133  18.876  0.00  0.00    +0.000 A 
ATOM     19  C   UNL     1       1.010   9.774  20.017  0.00  0.00    +0.000 A 
BRANCH  19  20
ATOM     20  N   UNL     1       0.573  11.094  19.962  0.00  0.00    +0.000 N 
ATOM     21  C   UNL     1       1.290  12.216  20.581  0.00  0.00    +0.000 C 
ATOM     22  C   UNL     1       0.224  12.958  21.375  0.00  0.00    +0.000 C 
ATOM     23  C   UNL     1      -1.020  12.779  20.527  0.00  0.00    +0.000 C 
ATOM     24  C   UNL     1      -0.875  11.370  19.948  0.00  0.00    +0.000 C 
ENDBRANCH  19  20
BRANCH  14  26
ATOM     25  N   UNL     1       0.009   9.891  23.440  0.00  0.00    +0.000 NA
ATOM     26  C   UNL     1       0.421   9.490  22.426  0.00  0.00    +0.000 C 
ENDBRANCH  14  26
ENDBRANCH   1  16
BRANCH  10  27
ATOM     27  C   UNL     1       6.893   4.650  14.083  0.00  0.00    +0.000 C 
ATOM     28  N   UNL     1       6.500   3.624  13.271  0.00  0.00    +0.000 N 
ATOM     29  O   UNL     1       7.820   5.375  13.738  0.00  0.00    +0.000 OA
ATOM     30  H   UNL     1       5.718   3.030  13.501  0.00  0.00    +0.000 HD
ATOM     31  H   UNL     1       6.971   3.527  12.382  0.00  0.00    +0.000 HD
ENDBRANCH  10  27
TORSDOF 4
ENDMDL
MODEL 3
REMARK VINA RESULT:      -8.4      1.198      2.122
REMARK  Name = 
REMARK  4 active torsions:
REMARK  status: ('A' for Active; 'I' for Inactive)
REMARK    1  A    between atoms: C_2  and  C_3
REMARK    2  A    between atoms: C_5  and  C_6
REMARK    3  A    between atoms: C_15  and  C_16
REMARK    4  A    between atoms: C_23  and  N_24
REMARK                            x       y       z     vdW  Elec       q    Type
REMARK                         _______ _______ _______ _____ _____    ______ ____
ROOT
ATOM      1  C   UNL     1       2.408   5.183  20.216  0.00  0.00    +0.000 A 
ATOM      2  C   UNL     1       2.230   4.274  21.237  0.00  0.00    +0.000 A 
ATOM      3  C   UNL     1       2.757   3.021  21.033  0.00  0.00    +0.000 A 
ATOM      4  N   UNL     1       3.432   2.663  19.925  0.00  0.00    +0.000 NA
ATOM      5  C   UNL     1       3.617   3.617  19.000  0.00  0.00    +0.000 A 
ATOM      6  N   UNL     1       4.370   3.262  17.888  0.00  0.00    +0.000 N 
ATOM      7  C   UNL     1       4.994   4.146  17.103  0.00  0.00    +0.000 A 
ATOM      8  N   UNL     1       5.095   5.453  17.215  0.00  0.00    +0.000 NA
ATOM      9  C   UNL     1       5.829   5.840  16.135  0.00  0.00    +0.000 A 
ATOM     10  C   UNL     1       6.168   4.746  15.378  0.00  0.00    +0.000 A 
ATOM     11  O   UNL     1       5.659   3.633  16.013  0.00  0.00    +0.000 OA
ATOM     12  N   UNL     1       3.100   4.851  19.111  0.00  0.00    +0.000 NA
ATOM     13  H   UNL     1       4.623   2.290  17.889  0.00  0.00    +0.000 HD
ENDROOT
BRANCH   1  16
ATOM     14  C   UNL     1       1.622   8.801  19.238  0.00  0.00    +0.000 A 
ATOM     15  C   UNL     1       2.137   7.481  19.220  0.00  0.00    +0.000 A 
ATOM     16  C   UNL     1       1.863   6.558  20.243  0.00  0.00    +0.000 A 
ATOM     17  C   UNL     1       1.032   7.004  21.273  0.00  0.00    +0.000 A 
ATOM     18  C   UNL     1       0.514   8.309  21.294  0.00  0.00    +0.000 A 
ATOM     19  C   UNL     1       0.791   9.251  20.291  0.00  0.00    +0.000 A 
BRANCH  19  20
ATOM     20  N   UNL     1       0.278  10.543  20.359  0.00  0.00    +0.000 N 
ATOM     21  C   UNL     1       0.393  11.404  21.542  0.00  0.00    +0.000 C 
ATOM     22  C   UNL     1      -1.020  11.916  21.781  0.00  0.00    +0.000 C 
ATOM     23  C   UNL     1      -1.579  12.041  20.378  0.00  0.00    +0.000 C 
ATOM     24  C   UNL     1      -0.959  10.863  19.623  0.00  0.00    +0.000 C 
ENDBRANCH  19  20
BRANCH  14  26
ATOM     25  N   UNL     1       2.402  10.365  17.310  0.00  0.00    +0.000 NA
ATOM     26  C   UNL     1       2.036   9.665  18.167  0.00  0.00    +0.000 C 
ENDBRANCH  14  26
ENDBRANCH   1  16
BRANCH  10  27
ATOM     27  C   UNL     1       6.889   4.660  14.140  0.00  0.00    +0.000 C 
ATOM     28  N   UNL     1       6.518   3.655  13.294  0.00  0.00    +0.000 N 
ATOM     29  O   UNL     1       7.785   5.430  13.810  0.00  0.00    +0.000 OA
ATOM     30  H   UNL     1       5.760   3.025  13.512  0.00  0.00    +0.000 HD
ATOM     31  H   UNL     1       6.976   3.609  12.394  0.00  0.00    +0.000 HD
ENDBRANCH  10  27
TORSDOF 4
ENDMDL
MODEL 4
REMARK VINA RESULT:      -8.2      0.931      1.303
REMARK  Name = 
REMARK  4 active torsions:
REMARK  status: ('A' for Active; 'I' for Inactive)
REMARK    1  A    between atoms: C_2  and  C_3
REMARK    2  A    between atoms: C_5  and  C_6
REMARK    3  A    between atoms: C_15  and  C_16
REMARK    4  A    between atoms: C_23  and  N_24
REMARK                            x       y       z     vdW  Elec       q    Type
REMARK                         _______ _______ _______ _____ _____    ______ ____
ROOT
ATOM      1  C   UNL     1       2.035   6.702  19.662  0.00  0.00    +0.000 A 
ATOM      2  C   UNL     1       1.645   5.990  20.776  0.00  0.00    +0.000 A 
ATOM      3  C   UNL     1       1.964   4.653  20.785  0.00  0.00    +0.000 A 
ATOM      4  N   UNL     1       2.637   4.037  19.796  0.00  0.00    +0.000 NA
ATOM      5  C   UNL     1       3.037   4.806  18.771  0.00  0.00    +0.000 A 
ATOM      6  N   UNL     1       3.785   4.179  17.783  0.00  0.00    +0.000 N 
ATOM      7  C   UNL     1       4.597   4.830  16.943  0.00  0.00    +0.000 A 
ATOM      8  N   UNL     1       4.909   6.108  16.890  0.00  0.00    +0.000 NA
ATOM      9  C   UNL     1       5.762   6.213  15.833  0.00  0.00    +0.000 A 
ATOM     10  C   UNL     1       5.958   4.981  15.259  0.00  0.00    +0.000 A 
ATOM     11  O   UNL     1       5.231   4.066  15.991  0.00  0.00    +0.000 OA
ATOM     12  N   UNL     1       2.728   6.109  18.673  0.00  0.00    +0.000 NA
ATOM     13  H   UNL     1       3.871   3.189  17.935  0.00  0.00    +0.000 HD
ENDROOT
BRANCH   1  16
ATOM     14  C   UNL     1       0.877  10.297  20.297  0.00  0.00    +0.000 A 
ATOM     15  C   UNL     1       1.177   8.925  20.483  0.00  0.00    +0.000 A 
ATOM     16  C   UNL     1       1.729   8.135  19.460  0.00  0.00    +0.000 A 
ATOM     17  C   UNL     1       1.992   8.783  18.251  0.00  0.00    +0.000 A 
ATOM     18  C   UNL     1       1.702  10.145  18.062  0.00  0.00    +0.000 A 
ATOM     19  C   UNL     1       1.134  10.945  19.066  0.00  0.00    +0.000 A 
BRANCH  19  20
ATOM     20  N   UNL     1       0.839  12.285  18.833  0.00  0.00    +0.000 N 
ATOM     21  C   UNL     1       1.611  13.399  19.395  0.00  0.00    +0.000 C 
ATOM     22  C   UNL     1       0.564  14.321  20.004  0.00  0.00    +0.000 C 
ATOM     23  C   UNL     1      -0.617  14.161  19.067  0.00  0.00    +0.000 C 
ATOM     24  C   UNL     1      -0.568  12.688  18.655  0.00  0.00    +0.000 C 
ENDBRANCH  19  20
BRANCH  14  26
ATOM     25  N   UNL     1      -0.284  11.500  22.291  0.00  0.00    +0.000 NA
ATOM     26  C   UNL     1       0.251  10.970  21.401  0.00  0.00    +0.000 C 
ENDBRANCH  14  26
ENDBRANCH   1  16
BRANCH  10  27
ATOM     27  C   UNL     1       6.729   4.604  14.109  0.00  0.00    +0.000 C 
ATOM     28  N   UNL     1       6.337   3.465  13.466  0.00  0.00    +0.000 N 
ATOM     29  O   UNL     1       7.685   5.244  13.681  0.00  0.00    +0.000 OA
ATOM     30  H   UNL     1       5.534   2.932  13.765  0.00  0.00    +0.000 HD
ATOM     31  H   UNL     1       6.833   3.211  12.623  0.00  0.00    +0.000 HD
ENDBRANCH  10  27
TORSDOF 4
ENDMDL
MODEL 5
REMARK VINA RESULT:      -8.0      3.770      8.197
REMARK  Name = 
REMARK  4 active torsions:
REMARK  status: ('A' for Active; 'I' for Inactive)
REMARK    1  A    between atoms: C_2  and  C_3
REMARK    2  A    between atoms: C_5  and  C_6
REMARK    3  A    between atoms: C_15  and  C_16
REMARK    4  A    between atoms: C_23  and  N_24
REMARK                            x       y       z     vdW  Elec       q    Type
REMARK                         _______ _______ _______ _____ _____    ______ ____
ROOT
ATOM      1  C   UNL     1       0.676   8.995  21.331  0.00  0.00    +0.000 A 
ATOM      2  C   UNL     1      -0.327   8.809  22.258  0.00  0.00    +0.000 A 
ATOM      3  C   UNL     1      -0.846   9.947  22.828  0.00  0.00    +0.000 A 
ATOM      4  N   UNL     1      -0.444  11.192  22.515  0.00  0.00    +0.000 NA
ATOM      5  C   UNL     1       0.494  11.299  21.562  0.00  0.00    +0.000 A 
ATOM      6  N   UNL     1       0.860  12.588  21.197  0.00  0.00    +0.000 N 
ATOM      7  C   UNL     1       1.435  12.892  20.028  0.00  0.00    +0.000 A 
ATOM      8  N   UNL     1       1.714  12.122  18.997  0.00  0.00    +0.000 NA
ATOM      9  C   UNL     1       2.304  12.952  18.093  0.00  0.00    +0.000 A 
ATOM     10  C   UNL     1       2.369  14.228  18.595  0.00  0.00    +0.000 A 
ATOM     11  O   UNL     1       1.779  14.211  19.840  0.00  0.00    +0.000 OA
ATOM     12  N   UNL     1       1.076  10.233  20.988  0.00  0.00    +0.000 NA
ATOM     13  H   UNL     1       0.414  13.289  21.760  0.00  0.00    +0.000 HD
ENDROOT
BRANCH   1  16
ATOM     14  C   UNL     1       2.096   5.521  20.571  0.00  0.00    +0.000 A 
ATOM     15  C   UNL     1       1.418   6.590  21.206  0.00  0.00    +0.000 A 
ATOM     16  C   UNL     1       1.384   7.884  20.659  0.00  0.00    +0.000 A 
ATOM     17  C   UNL     1       2.038   8.057  19.436  0.00  0.00    +0.000 A 
ATOM     18  C   UNL     1       2.707   6.999  18.799  0.00  0.00    +0.000 A 
ATOM     19  C   UNL     1       2.767   5.704  19.339  0.00  0.00    +0.000 A 
BRANCH  19  20
ATOM     20  N   UNL     1       3.461   4.688  18.689  0.00  0.00    +0.000 N 
ATOM     21  C   UNL     1       4.913   4.497  18.793  0.00  0.00    +0.000 C 
ATOM     22  C   UNL     1       5.384   4.360  17.352  0.00  0.00    +0.000 C 
ATOM     23  C   UNL     1       4.225   3.651  16.680  0.00  0.00    +0.000 C 
ATOM     24  C   UNL     1       2.986   4.224  17.373  0.00  0.00    +0.000 C 
ENDBRANCH  19  20
BRANCH  14  26
ATOM     25  N   UNL     1       2.110   3.263  21.865  0.00  0.00    +0.000 NA
ATOM     26  C   UNL     1       2.112   4.267  21.272  0.00  0.00    +0.000 C 
ENDBRANCH  14  26
ENDBRANCH   1  16
BRANCH  10  27
ATOM     27  C   UNL     1       2.937  15.420  18.032  0.00  0.00    +0.000 C 
ATOM     28  N   UNL     1       3.899  15.240  17.080  0.00  0.00    +0.000 N 
ATOM     29  O   UNL     1       2.601  16.558  18.346  0.00  0.00    +0.000 OA
ATOM     30  H   UNL     1       4.176  14.321  16.767  0.00  0.00    +0.000 HD
ATOM     31  H   UNL     1       4.273  16.065  16.632  0.00  0.00    +0.000 HD
ENDBRANCH  10  27
TORSDOF 4
ENDMDL
MODEL 6
REMARK VINA RESULT:      -7.6      3.813      8.214
REMARK  Name = 
REMARK  4 active torsions:
REMARK  status: ('A' for Active; 'I' for Inactive)
REMARK    1  A    between atoms: C_2  and  C_3
REMARK    2  A    between atoms: C_5  and  C_6
REMARK    3  A    between atoms: C_15  and  C_16
REMARK    4  A    between atoms: C_23  and  N_24
REMARK                            x       y       z     vdW  Elec       q    Type
REMARK                         _______ _______ _______ _____ _____    ______ ____
ROOT
ATOM      1  C   UNL     1       0.724   8.808  21.268  0.00  0.00    +0.000 A 
ATOM      2  C   UNL     1      -0.278   8.693  22.206  0.00  0.00    +0.000 A 
ATOM      3  C   UNL     1      -0.721   9.868  22.768  0.00  0.00    +0.000 A 
ATOM      4  N   UNL     1      -0.248  11.082  22.435  0.00  0.00    +0.000 NA
ATOM      5  C   UNL     1       0.685  11.121  21.472  0.00  0.00    +0.000 A 
ATOM      6  N   UNL     1       1.125  12.381  21.087  0.00  0.00    +0.000 N 
ATOM      7  C   UNL     1       1.705  12.635  19.909  0.00  0.00    +0.000 A 
ATOM      8  N   UNL     1       1.926  11.838  18.886  0.00  0.00    +0.000 NA
ATOM      9  C   UNL     1       2.556  12.620  17.965  0.00  0.00    +0.000 A 
ATOM     10  C   UNL     1       2.704  13.895  18.451  0.00  0.00    +0.000 A 
ATOM     11  O   UNL     1       2.126  13.929  19.702  0.00  0.00    +0.000 OA
ATOM     12  N   UNL     1       1.195  10.015  20.906  0.00  0.00    +0.000 NA
ATOM     13  H   UNL     1       0.727  13.115  21.646  0.00  0.00    +0.000 HD
ENDROOT
BRANCH   1  16
ATOM     14  C   UNL     1       2.832   6.700  18.863  0.00  0.00    +0.000 A 
ATOM     15  C   UNL     1       2.224   7.805  19.509  0.00  0.00    +0.000 A 
ATOM     16  C   UNL     1       1.357   7.648  20.603  0.00  0.00    +0.000 A 
ATOM     17  C   UNL     1       1.142   6.338  21.040  0.00  0.00    +0.000 A 
ATOM     18  C   UNL     1       1.747   5.239  20.408  0.00  0.00    +0.000 A 
ATOM     19  C   UNL     1       2.602   5.375  19.303  0.00  0.00    +0.000 A 
BRANCH  19  20
ATOM     20  N   UNL     1       3.162   4.259  18.688  0.00  0.00    +0.000 N 
ATOM     21  C   UNL     1       2.611   3.630  17.483  0.00  0.00    +0.000 C 
ATOM     22  C   UNL     1       2.537   2.148  17.824  0.00  0.00    +0.000 C 
ATOM     23  C   UNL     1       3.744   1.945  18.720  0.00  0.00    +0.000 C 
ATOM     24  C   UNL     1       3.836   3.245  19.521  0.00  0.00    +0.000 C 
ENDBRANCH  19  20
BRANCH  14  26
ATOM     25  N   UNL     1       4.319   7.248  16.800  0.00  0.00    +0.000 NA
ATOM     26  C   UNL     1       3.641   6.995  17.714  0.00  0.00    +0.000 C 
ENDBRANCH  14  26
ENDBRANCH   1  16
BRANCH  10  27
ATOM     27  C   UNL     1       3.337  15.043  17.868  0.00  0.00    +0.000 C 
ATOM     28  N   UNL     1       4.633  14.881  17.469  0.00  0.00    +0.000 N 
ATOM     29  O   UNL     1       2.783  16.126  17.704  0.00  0.00    +0.000 OA
ATOM     30  H   UNL     1       5.111  13.996  17.552  0.00  0.00    +0.000 HD
ATOM     31  H   UNL     1       5.080  15.661  17.007  0.00  0.00    +0.000 HD
ENDBRANCH  10  27
TORSDOF 4
ENDMDL
MODEL 7
REMARK VINA RESULT:      -7.5      3.862      8.392
REMARK  Name = 
REMARK  4 active torsions:
REMARK  status: ('A' for Active; 'I' for Inactive)
REMARK    1  A    between atoms: C_2  and  C_3
REMARK    2  A    between atoms: C_5  and  C_6
REMARK    3  A    between atoms: C_15  and  C_16
REMARK    4  A    between atoms: C_23  and  N_24
REMARK                            x       y       z     vdW  Elec       q    Type
REMARK                         _______ _______ _______ _____ _____    ______ ____
ROOT
ATOM      1  C   UNL     1       0.647   9.347  21.226  0.00  0.00    +0.000 A 
ATOM      2  C   UNL     1      -0.296   9.142  22.210  0.00  0.00    +0.000 A 
ATOM      3  C   UNL     1      -0.747  10.265  22.863  0.00  0.00    +0.000 A 
ATOM      4  N   UNL     1      -0.336  11.513  22.577  0.00  0.00    +0.000 NA
ATOM      5  C   UNL     1       0.539  11.642  21.568  0.00  0.00    +0.000 A 
ATOM      6  N   UNL     1       0.912  12.938  21.234  0.00  0.00    +0.000 N 
ATOM      7  C   UNL     1       1.415  13.280  20.043  0.00  0.00    +0.000 A 
ATOM      8  N   UNL     1       1.605  12.551  18.964  0.00  0.00    +0.000 NA
ATOM      9  C   UNL     1       2.154  13.407  18.058  0.00  0.00    +0.000 A 
ATOM     10  C   UNL     1       2.285  14.657  18.609  0.00  0.00    +0.000 A 
ATOM     11  O   UNL     1       1.779  14.598  19.890  0.00  0.00    +0.000 OA
ATOM     12  N   UNL     1       1.054  10.590  20.911  0.00  0.00    +0.000 NA
ATOM     13  H   UNL     1       0.522  13.623  21.856  0.00  0.00    +0.000 HD
ENDROOT
BRANCH   1  16
ATOM     14  C   UNL     1       1.987   5.894  20.253  0.00  0.00    +0.000 A 
ATOM     15  C   UNL     1       1.380   6.949  20.978  0.00  0.00    +0.000 A 
ATOM     16  C   UNL     1       1.280   8.252  20.460  0.00  0.00    +0.000 A 
ATOM     17  C   UNL     1       1.792   8.448  19.176  0.00  0.00    +0.000 A 
ATOM     18  C   UNL     1       2.391   7.405  18.449  0.00  0.00    +0.000 A 
ATOM     19  C   UNL     1       2.516   6.102  18.957  0.00  0.00    +0.000 A 
BRANCH  19  20
ATOM     20  N   UNL     1       3.137   5.101  18.217  0.00  0.00    +0.000 N 
ATOM     21  C   UNL     1       2.415   4.003  17.564  0.00  0.00    +0.000 C 
ATOM     22  C   UNL     1       3.160   2.747  17.994  0.00  0.00    +0.000 C 
ATOM     23  C   UNL     1       4.598   3.218  18.087  0.00  0.00    +0.000 C 
ATOM     24  C   UNL     1       4.486   4.652  18.609  0.00  0.00    +0.000 C 
ENDBRANCH  19  20
BRANCH  14  26
ATOM     25  N   UNL     1       2.160   3.588  21.445  0.00  0.00    +0.000 NA
ATOM     26  C   UNL     1       2.087   4.629  20.926  0.00  0.00    +0.000 C 
ENDBRANCH  14  26
ENDBRANCH   1  16
BRANCH  10  27
ATOM     27  C   UNL     1       2.844  15.860  18.061  0.00  0.00    +0.000 C 
ATOM     28  N   UNL     1       2.709  16.989  18.818  0.00  0.00    +0.000 N 
ATOM     29  O   UNL     1       3.431  15.919  16.985  0.00  0.00    +0.000 OA
ATOM     30  H   UNL     1       2.267  16.974  19.725  0.00  0.00    +0.000 HD
ATOM     31  H   UNL     1       3.143  17.835  18.475  0.00  0.00    +0.000 HD
ENDBRANCH  10  27
TORSDOF 4
ENDMDL
MODEL 8
REMARK VINA RESULT:      -7.4      3.692      8.168
REMARK  Name = 
REMARK  4 active torsions:
REMARK  status: ('A' for Active; 'I' for Inactive)
REMARK    1  A    between atoms: C_2  and  C_3
REMARK    2  A    between atoms: C_5  and  C_6
REMARK    3  A    between atoms: C_15  and  C_16
REMARK    4  A    between atoms: C_23  and  N_24
REMARK                            x       y       z     vdW  Elec       q    Type
REMARK                         _______ _______ _______ _____ _____    ______ ____
ROOT
ATOM      1  C   UNL     1       1.292   8.135  20.414  0.00  0.00    +0.000 A 
ATOM      2  C   UNL     1       0.264   7.693  21.218  0.00  0.00    +0.000 A 
ATOM      3  C   UNL     1      -0.455   8.664  21.874  0.00  0.00    +0.000 A 
ATOM      4  N   UNL     1      -0.217   9.983  21.752  0.00  0.00    +0.000 NA
ATOM      5  C   UNL     1       0.761  10.341  20.906  0.00  0.00    +0.000 A 
ATOM      6  N   UNL     1       0.960  11.705  20.734  0.00  0.00    +0.000 N 
ATOM      7  C   UNL     1       1.566  12.236  19.667  0.00  0.00    +0.000 A 
ATOM      8  N   UNL     1       2.027  11.655  18.580  0.00  0.00    +0.000 NA
ATOM      9  C   UNL     1       2.552  12.670  17.839  0.00  0.00    +0.000 A 
ATOM     10  C   UNL     1       2.396  13.865  18.496  0.00  0.00    +0.000 A 
ATOM     11  O   UNL     1       1.727  13.603  19.673  0.00  0.00    +0.000 OA
ATOM     12  N   UNL     1       1.531   9.450  20.262  0.00  0.00    +0.000 NA
ATOM     13  H   UNL     1       0.377  12.258  21.337  0.00  0.00    +0.000 HD
ENDROOT
BRANCH   1  16
ATOM     14  C   UNL     1       3.271   5.023  19.382  0.00  0.00    +0.000 A 
ATOM     15  C   UNL     1       2.401   5.897  20.079  0.00  0.00    +0.000 A 
ATOM     16  C   UNL     1       2.200   7.229  19.678  0.00  0.00    +0.000 A 
ATOM     17  C   UNL     1       2.889   7.642  18.535  0.00  0.00    +0.000 A 
ATOM     18  C   UNL     1       3.749   6.779  17.836  0.00  0.00    +0.000 A 
ATOM     19  C   UNL     1       3.976   5.450  18.232  0.00  0.00    +0.000 A 
BRANCH  19  20
ATOM     20  N   UNL     1       4.854   4.633  17.527  0.00  0.00    +0.000 N 
ATOM     21  C   UNL     1       6.304   4.604  17.758  0.00  0.00    +0.000 C 
ATOM     22  C   UNL     1       6.914   4.741  16.370  0.00  0.00    +0.000 C 
ATOM     23  C   UNL     1       5.924   4.006  15.488  0.00  0.00    +0.000 C 
ATOM     24  C   UNL     1       4.564   4.316  16.117  0.00  0.00    +0.000 C 
ENDBRANCH  19  20
BRANCH  14  26
ATOM     25  N   UNL     1       3.564   2.631  20.362  0.00  0.00    +0.000 NA
ATOM     26  C   UNL     1       3.439   3.709  19.938  0.00  0.00    +0.000 C 
ENDBRANCH  14  26
ENDBRANCH   1  16
BRANCH  10  27
ATOM     27  C   UNL     1       2.822  15.187  18.135  0.00  0.00    +0.000 C 
ATOM     28  N   UNL     1       3.720  15.273  17.109  0.00  0.00    +0.000 N 
ATOM     29  O   UNL     1       2.422  16.212  18.678  0.00  0.00    +0.000 OA
ATOM     30  H   UNL     1       4.043  14.456  16.612  0.00  0.00    +0.000 HD
ATOM     31  H   UNL     1       3.992  16.197  16.804  0.00  0.00    +0.000 HD
ENDBRANCH  10  27
TORSDOF 4
ENDMDL
MODEL 9
REMARK VINA RESULT:      -7.4      4.498      9.949
REMARK  Name = 
REMARK  4 active torsions:
REMARK  status: ('A' for Active; 'I' for Inactive)
REMARK    1  A    between atoms: C_2  and  C_3
REMARK    2  A    between atoms: C_5  and  C_6
REMARK    3  A    between atoms: C_15  and  C_16
REMARK    4  A    between atoms: C_23  and  N_24
REMARK                            x       y       z     vdW  Elec       q    Type
REMARK                         _______ _______ _______ _____ _____    ______ ____
ROOT
ATOM      1  C   UNL     1       1.351  10.475  19.150  0.00  0.00    +0.000 A 
ATOM      2  C   UNL     1       2.094  11.249  18.284  0.00  0.00    +0.000 A 
ATOM      3  C   UNL     1       1.694  12.557  18.144  0.00  0.00    +0.000 A 
ATOM      4  N   UNL     1       0.657  13.099  18.808  0.00  0.00    +0.000 NA
ATOM      5  C   UNL     1       0.018  12.302  19.678  0.00  0.00    +0.000 A 
ATOM      6  N   UNL     1      -1.011  12.883  20.408  0.00  0.00    +0.000 N 
ATOM      7  C   UNL     1      -1.461  12.396  21.570  0.00  0.00    +0.000 A 
ATOM      8  N   UNL     1      -1.037  11.372  22.279  0.00  0.00    +0.000 NA
ATOM      9  C   UNL     1      -1.867  11.328  23.357  0.00  0.00    +0.000 A 
ATOM     10  C   UNL     1      -2.791  12.341  23.285  0.00  0.00    +0.000 A 
ATOM     11  O   UNL     1      -2.519  13.064  22.143  0.00  0.00    +0.000 OA
ATOM     12  N   UNL     1       0.325  11.004  19.840  0.00  0.00    +0.000 NA
ATOM     13  H   UNL     1      -1.192  13.831  20.130  0.00  0.00    +0.000 HD
ENDROOT
BRANCH   1  16
ATOM     14  C   UNL     1       2.682   6.907  18.744  0.00  0.00    +0.000 A 
ATOM     15  C   UNL     1       2.435   8.286  18.532  0.00  0.00    +0.000 A 
ATOM     16  C   UNL     1       1.605   9.036  19.381  0.00  0.00    +0.000 A 
ATOM     17  C   UNL     1       1.050   8.354  20.467  0.00  0.00    +0.000 A 
ATOM     18  C   UNL     1       1.295   6.988  20.687  0.00  0.00    +0.000 A 
ATOM     19  C   UNL     1       2.107   6.217  19.839  0.00  0.00    +0.000 A 
BRANCH  19  20
ATOM     20  N   UNL     1       2.306   4.861  20.075  0.00  0.00    +0.000 N 
ATOM     21  C   UNL     1       1.726   3.796  19.249  0.00  0.00    +0.000 C 
ATOM     22  C   UNL     1       1.086   2.843  20.249  0.00  0.00    +0.000 C 
ATOM     23  C   UNL     1       2.015   2.928  21.444  0.00  0.00    +0.000 C 
ATOM     24  C   UNL     1       2.462   4.391  21.464  0.00  0.00    +0.000 C 
ENDBRANCH  19  20
BRANCH  14  26
ATOM     25  N   UNL     1       4.173   5.702  16.986  0.00  0.00    +0.000 NA
ATOM     26  C   UNL     1       3.492   6.242  17.762  0.00  0.00    +0.000 C 
ENDBRANCH  14  26
ENDBRANCH   1  16
BRANCH  10  27
ATOM     27  C   UNL     1      -3.883  12.667  24.156  0.00  0.00    +0.000 C 
ATOM     28  N   UNL     1      -3.933  13.955  24.607  0.00  0.00    +0.000 N 
ATOM     29  O   UNL     1      -4.755  11.872  24.495  0.00  0.00    +0.000 OA
ATOM     30  H   UNL     1      -3.256  14.647  24.321  0.00  0.00    +0.000 HD
ATOM     31  H   UNL     1      -4.723  14.219  25.178  0.00  0.00    +0.000 HD
ENDBRANCH  10  27
TORSDOF 4
ENDMDL
