MODEL 1
REMARK VINA RESULT:      -8.4      0.000      0.000
REMARK  Name = 
REMARK  5 active torsions:
REMARK  status: ('A' for Active; 'I' for Inactive)
REMARK    1  A    between atoms: N_3  and  C_4
REMARK    2  A    between atoms: C_12  and  C_13
REMARK    3  A    between atoms: C_13  and  C_14
REMARK    4  A    between atoms: C_14  and  O_15
REMARK    5  A    between atoms: O_15  and  C_16
REMARK                            x       y       z     vdW  Elec       q    Type
REMARK                         _______ _______ _______ _____ _____    ______ ____
ROOT
ATOM      1  O   UNL     1       5.489   3.486  19.662  0.00  0.00    +0.000 OA
ATOM      2  C   UNL     1       5.187   4.313  18.806  0.00  0.00    +0.000 C 
ATOM      3  N   UNL     1       3.888   4.494  18.399  0.00  0.00    +0.000 N 
ATOM      4  N   UNL     1       6.117   5.135  18.213  0.00  0.00    +0.000 N 
ATOM      5  C   UNL     1       7.519   4.972  18.544  0.00  0.00    +0.000 C 
ATOM      6  C   UNL     1       8.061   6.384  18.566  0.00  0.00    +0.000 C 
ATOM      7  C   UNL     1       7.272   7.086  17.456  0.00  0.00    +0.000 C 
ATOM      8  C   UNL     1       5.884   6.410  17.535  0.00  0.00    +0.000 C 
ATOM      9  H   UNL     1       3.766   4.860  17.466  0.00  0.00    +0.000 HD
ENDROOT
BRANCH   3  10
ATOM     10  C   UNL     1       2.830   3.681  18.967  0.00  0.00    +0.000 C 
ATOM     11  C   UNL     1       2.000   4.436  19.998  0.00  0.00    +0.000 C 
ATOM     12  C   UNL     1       0.783   3.543  20.195  0.00  0.00    +0.000 C 
ATOM     13  C   UNL     1       0.564   2.841  18.855  0.00  0.00    +0.000 C 
ATOM     14  C   UNL     1       1.760   3.212  17.974  0.00  0.00    +0.000 C 
ENDBRANCH   3  10
BRANCH   7  15
ATOM     15  C   UNL     1       7.256   8.613  17.631  0.00  0.00    +0.000 C 
BRANCH  15  16
ATOM     16  C   UNL     1       8.543   9.132  18.287  0.00  0.00    +0.000 C 
BRANCH  16  17
ATOM     17  O   UNL     1       8.674  10.538  18.062  0.00  0.00    +0.000 OA
BRANCH  17  18
ATOM     18  C   UNL     1       9.755  11.147  18.651  0.00  0.00    +0.000 A 
ATOM     19  C   UNL     1      10.738  11.598  17.760  0.00  0.00    +0.000 A 
ATOM     20  C   UNL     1      11.899  12.224  18.230  0.00  0.00    +0.000 A 
ATOM     21  C   UNL     1      12.093  12.409  19.597  0.00  0.00    +0.000 A 
ATOM     22  C   UNL     1      11.121  11.971  20.493  0.00  0.00    +0.000 A 
ATOM     23  C   UNL     1       9.968  11.350  20.019  0.00  0.00    +0.000 A 
ATOM     24  F   UNL     1       9.072  10.950  20.942  0.00  0.00    +0.000 F 
ENDBRANCH  17  18
ENDBRANCH  16  17
ENDBRANCH  15  16
ENDBRANCH   7  15
TORSDOF 5
ENDMDL
MODEL 2
REMARK VINA RESULT:      -8.1      1.199      1.516
REMARK  Name = 
REMARK  5 active torsions:
REMARK  status: ('A' for Active; 'I' for Inactive)
REMARK    1  A    between atoms: N_3  and  C_4
REMARK    2  A    between atoms: C_12  and  C_13
REMARK    3  A    between atoms: C_13  and  C_14
REMARK    4  A    between atoms: C_14  and  O_15
REMARK    5  A    between atoms: O_15  and  C_16
REMARK                            x       y       z     vdW  Elec       q    Type
REMARK                         _______ _______ _______ _____ _____    ______ ____
ROOT
ATOM      1  O   UNL     1       5.628   3.773  19.675  0.00  0.00    +0.000 OA
ATOM      2  C   UNL     1       5.358   4.568  18.780  0.00  0.00    +0.000 C 
ATOM      3  N   UNL     1       4.080   4.718  18.302  0.00  0.00    +0.000 N 
ATOM      4  N   UNL     1       6.306   5.386  18.210  0.00  0.00    +0.000 N 
ATOM      5  C   UNL     1       7.692   5.255  18.616  0.00  0.00    +0.000 C 
ATOM      6  C   UNL     1       8.213   6.674  18.621  0.00  0.00    +0.000 C 
ATOM      7  C   UNL     1       7.472   7.330  17.452  0.00  0.00    +0.000 C 
ATOM      8  C   UNL     1       6.091   6.636  17.481  0.00  0.00    +0.000 C 
ATOM      9  H   UNL     1       4.000   5.053  17.353  0.00  0.00    +0.000 HD
ENDROOT
BRANCH   3  10
ATOM     10  C   UNL     1       3.005   3.907  18.841  0.00  0.00    +0.000 C 
ATOM     11  C   UNL     1       2.162   4.655  19.865  0.00  0.00    +0.000 C 
ATOM     12  C   UNL     1       0.934   3.770  20.029  0.00  0.00    +0.000 C 
ATOM     13  C   UNL     1       0.735   3.084  18.677  0.00  0.00    +0.000 C 
ATOM     14  C   UNL     1       1.951   3.456  17.823  0.00  0.00    +0.000 C 
ENDBRANCH   3  10
BRANCH   7  15
ATOM     15  C   UNL     1       7.426   8.861  17.578  0.00  0.00    +0.000 C 
BRANCH  15  16
ATOM     16  C   UNL     1       8.560   9.402  18.461  0.00  0.00    +0.000 C 
BRANCH  16  17
ATOM     17  O   UNL     1       9.203  10.503  17.813  0.00  0.00    +0.000 OA
BRANCH  17  18
ATOM     18  C   UNL     1       9.730  11.466  18.638  0.00  0.00    +0.000 A 
ATOM     19  C   UNL     1       9.796  11.112  19.993  0.00  0.00    +0.000 A 
ATOM     20  C   UNL     1      10.299  12.008  20.944  0.00  0.00    +0.000 A 
ATOM     21  C   UNL     1      10.747  13.269  20.554  0.00  0.00    +0.000 A 
ATOM     22  C   UNL     1      10.694  13.629  19.210  0.00  0.00    +0.000 A 
ATOM     23  C   UNL     1      10.192  12.733  18.269  0.00  0.00    +0.000 A 
ATOM     24  F   UNL     1      10.168  13.150  16.987  0.00  0.00    +0.000 F 
ENDBRANCH  17  18
ENDBRANCH  16  17
ENDBRANCH  15  16
ENDBRANCH   7  15
TORSDOF 5
ENDMDL
MODEL 3
REMARK VINA RESULT:      -7.7      1.333      1.422
REMARK  Name = 
REMARK  5 active torsions:
REMARK  status: ('A' for Active; 'I' for Inactive)
REMARK    1  A    between atoms: N_3  and  C_4
REMARK    2  A    between atoms: C_12  and  C_13
REMARK    3  A    between atoms: C_13  and  C_14
REMARK    4  A    between atoms: C_14  and  O_15
REMARK    5  A    between atoms: O_15  and  C_16
REMARK                            x       y       z     vdW  Elec       q    Type
REMARK                         _______ _______ _______ _____ _____    ______ ____
ROOT
ATOM      1  O   UNL     1       5.700   3.947  19.740  0.00  0.00    +0.000 OA
ATOM      2  C   UNL     1       5.467   4.713  18.810  0.00  0.00    +0.000 C 
ATOM      3  N   UNL     1       4.213   4.834  18.264  0.00  0.00    +0.000 N 
ATOM      4  N   UNL     1       6.434   5.527  18.264  0.00  0.00    +0.000 N 
ATOM      5  C   UNL     1       7.798   5.424  18.743  0.00  0.00    +0.000 C 
ATOM      6  C   UNL     1       8.302   6.850  18.734  0.00  0.00    +0.000 C 
ATOM      7  C   UNL     1       7.614   7.463  17.510  0.00  0.00    +0.000 C 
ATOM      8  C   UNL     1       6.242   6.753  17.491  0.00  0.00    +0.000 C 
ATOM      9  H   UNL     1       4.177   5.141  17.303  0.00  0.00    +0.000 HD
ENDROOT
BRANCH   3  10
ATOM     10  C   UNL     1       3.121   4.024  18.771  0.00  0.00    +0.000 C 
ATOM     11  C   UNL     1       2.287   4.754  19.817  0.00  0.00    +0.000 C 
ATOM     12  C   UNL     1       1.042   3.886  19.946  0.00  0.00    +0.000 C 
ATOM     13  C   UNL     1       0.838   3.250  18.571  0.00  0.00    +0.000 C 
ATOM     14  C   UNL     1       2.063   3.628  17.735  0.00  0.00    +0.000 C 
ENDBRANCH   3  10
BRANCH   7  15
ATOM     15  C   UNL     1       7.545   8.997  17.590  0.00  0.00    +0.000 C 
BRANCH  15  16
ATOM     16  C   UNL     1       8.665   9.580  18.463  0.00  0.00    +0.000 C 
BRANCH  16  17
ATOM     17  O   UNL     1       9.472  10.474  17.692  0.00  0.00    +0.000 OA
BRANCH  17  18
ATOM     18  C   UNL     1       9.690  11.716  18.236  0.00  0.00    +0.000 A 
ATOM     19  C   UNL     1       8.721  12.677  17.922  0.00  0.00    +0.000 A 
ATOM     20  C   UNL     1       8.829  13.988  18.401  0.00  0.00    +0.000 A 
ATOM     21  C   UNL     1       9.908  14.356  19.203  0.00  0.00    +0.000 A 
ATOM     22  C   UNL     1      10.875  13.408  19.529  0.00  0.00    +0.000 A 
ATOM     23  C   UNL     1      10.760  12.105  19.049  0.00  0.00    +0.000 A 
ATOM     24  F   UNL     1      11.733  11.241  19.401  0.00  0.00    +0.000 F 
ENDBRANCH  17  18
ENDBRANCH  16  17
ENDBRANCH  15  16
ENDBRANCH   7  15
TORSDOF 5
ENDMDL
MODEL 4
REMARK VINA RESULT:      -7.5      2.824      9.576
REMARK  Name = 
REMARK  5 active torsions:
REMARK  status: ('A' for Active; 'I' for Inactive)
REMARK    1  A    between atoms: N_3  and  C_4
REMARK    2  A    between atoms: C_12  and  C_13
REMARK    3  A    between atoms: C_13  and  C_14
REMARK    4  A    between atoms: C_14  and  O_15
REMARK    5  A    between atoms: O_15  and  C_16
REMARK                            x       y       z     vdW  Elec       q    Type
REMARK                         _______ _______ _______ _____ _____    ______ ____
ROOT
ATOM      1  O   UNL     1       7.921  10.216  17.520  0.00  0.00    +0.000 OA
ATOM      2  C   UNL     1       8.384   9.336  18.239  0.00  0.00    +0.000 C 
ATOM      3  N   UNL     1       9.162   9.626  19.333  0.00  0.00    +0.000 N 
ATOM      4  N   UNL     1       8.138   7.999  18.022  0.00  0.00    +0.000 N 
ATOM      5  C   UNL     1       7.373   7.601  16.857  0.00  0.00    +0.000 C 
ATOM      6  C   UNL     1       6.536   6.439  17.344  0.00  0.00    +0.000 C 
ATOM      7  C   UNL     1       7.455   5.732  18.345  0.00  0.00    +0.000 C 
ATOM      8  C   UNL     1       8.240   6.901  18.983  0.00  0.00    +0.000 C 
ATOM      9  H   UNL     1       9.811   8.907  19.616  0.00  0.00    +0.000 HD
ENDROOT
BRANCH   3  10
ATOM     10  C   UNL     1       9.475  11.006  19.653  0.00  0.00    +0.000 C 
ATOM     11  C   UNL     1       9.346  11.307  21.141  0.00  0.00    +0.000 C 
ATOM     12  C   UNL     1      10.033  12.657  21.291  0.00  0.00    +0.000 C 
ATOM     13  C   UNL     1      11.119  12.690  20.216  0.00  0.00    +0.000 C 
ATOM     14  C   UNL     1      10.918  11.434  19.363  0.00  0.00    +0.000 C 
ENDBRANCH   3  10
BRANCH   7  15
ATOM     15  C   UNL     1       6.671   4.863  19.341  0.00  0.00    +0.000 C 
BRANCH  15  16
ATOM     16  C   UNL     1       5.155   4.960  19.122  0.00  0.00    +0.000 C 
BRANCH  16  17
ATOM     17  O   UNL     1       4.627   3.677  18.775  0.00  0.00    +0.000 OA
BRANCH  17  18
ATOM     18  C   UNL     1       3.304   3.464  19.079  0.00  0.00    +0.000 A 
ATOM     19  C   UNL     1       2.994   3.522  20.444  0.00  0.00    +0.000 A 
ATOM     20  C   UNL     1       1.686   3.309  20.892  0.00  0.00    +0.000 A 
ATOM     21  C   UNL     1       0.667   3.038  19.981  0.00  0.00    +0.000 A 
ATOM     22  C   UNL     1       0.960   2.984  18.620  0.00  0.00    +0.000 A 
ATOM     23  C   UNL     1       2.265   3.197  18.182  0.00  0.00    +0.000 A 
ATOM     24  F   UNL     1       2.477   3.127  16.853  0.00  0.00    +0.000 F 
ENDBRANCH  17  18
ENDBRANCH  16  17
ENDBRANCH  15  16
ENDBRANCH   7  15
TORSDOF 5
ENDMDL
MODEL 5
REMARK VINA RESULT:      -7.5      1.362      1.871
REMARK  Name = 
REMARK  5 active torsions:
REMARK  status: ('A' for Active; 'I' for Inactive)
REMARK    1  A    between atoms: N_3  and  C_4
REMARK    2  A    between atoms: C_12  and  C_13
REMARK    3  A    between atoms: C_13  and  C_14
REMARK    4  A    between atoms: C_14  and  O_15
REMARK    5  A    between atoms: O_15  and  C_16
REMARK                            x       y       z     vdW  Elec       q    Type
REMARK                         _______ _______ _______ _____ _____    ______ ____
ROOT
ATOM      1  O   UNL     1       4.814   4.099  19.331  0.00  0.00    +0.000 OA
ATOM      2  C   UNL     1       4.802   4.921  18.420  0.00  0.00    +0.000 C 
ATOM      3  N   UNL     1       3.644   5.267  17.769  0.00  0.00    +0.000 N 
ATOM      4  N   UNL     1       5.938   5.575  18.001  0.00  0.00    +0.000 N 
ATOM      5  C   UNL     1       7.214   5.230  18.596  0.00  0.00    +0.000 C 
ATOM      6  C   UNL     1       7.946   6.550  18.697  0.00  0.00    +0.000 C 
ATOM      7  C   UNL     1       7.490   7.306  17.445  0.00  0.00    +0.000 C 
ATOM      8  C   UNL     1       6.027   6.839  17.269  0.00  0.00    +0.000 C 
ATOM      9  H   UNL     1       3.753   5.604  16.823  0.00  0.00    +0.000 HD
ENDROOT
BRANCH   3  10
ATOM     10  C   UNL     1       2.390   4.639  18.138  0.00  0.00    +0.000 C 
ATOM     11  C   UNL     1       2.384   3.139  17.873  0.00  0.00    +0.000 C 
ATOM     12  C   UNL     1       1.157   2.650  18.629  0.00  0.00    +0.000 C 
ATOM     13  C   UNL     1       1.004   3.593  19.823  0.00  0.00    +0.000 C 
ATOM     14  C   UNL     1       2.040   4.703  19.629  0.00  0.00    +0.000 C 
ENDBRANCH   3  10
BRANCH   7  15
ATOM     15  C   UNL     1       7.668   8.826  17.588  0.00  0.00    +0.000 C 
BRANCH  15  16
ATOM     16  C   UNL     1       8.700   9.188  18.665  0.00  0.00    +0.000 C 
BRANCH  16  17
ATOM     17  O   UNL     1       9.528  10.261  18.208  0.00  0.00    +0.000 OA
BRANCH  17  18
ATOM     18  C   UNL     1       9.536  11.392  18.987  0.00  0.00    +0.000 A 
ATOM     19  C   UNL     1      10.010  11.208  20.293  0.00  0.00    +0.000 A 
ATOM     20  C   UNL     1      10.057  12.276  21.196  0.00  0.00    +0.000 A 
ATOM     21  C   UNL     1       9.635  13.545  20.806  0.00  0.00    +0.000 A 
ATOM     22  C   UNL     1       9.169  13.744  19.508  0.00  0.00    +0.000 A 
ATOM     23  C   UNL     1       9.124  12.676  18.615  0.00  0.00    +0.000 A 
ATOM     24  F   UNL     1       8.660  12.940  17.378  0.00  0.00    +0.000 F 
ENDBRANCH  17  18
ENDBRANCH  16  17
ENDBRANCH  15  16
ENDBRANCH   7  15
TORSDOF 5
ENDMDL
MODEL 6
REMARK VINA RESULT:      -7.4      5.733      8.072
REMARK  Name = 
REMARK  5 active torsions:
REMARK  status: ('A' for Active; 'I' for Inactive)
REMARK    1  A    between atoms: N_3  and  C_4
REMARK    2  A    between atoms: C_12  and  C_13
REMARK    3  A    between atoms: C_13  and  C_14
REMARK    4  A    between atoms: C_14  and  O_15
REMARK    5  A    between atoms: O_15  and  C_16
REMARK                            x       y       z     vdW  Elec       q    Type
REMARK                         _______ _______ _______ _____ _____    ______ ____
ROOT
ATOM      1  O   UNL     1       4.877   3.546  16.650  0.00  0.00    +0.000 OA
ATOM      2  C   UNL     1       4.935   4.750  16.419  0.00  0.00    +0.000 C 
ATOM      3  N   UNL     1       5.501   5.244  15.270  0.00  0.00    +0.000 N 
ATOM      4  N   UNL     1       4.416   5.692  17.278  0.00  0.00    +0.000 N 
ATOM      5  C   UNL     1       3.849   5.263  18.541  0.00  0.00    +0.000 C 
ATOM      6  C   UNL     1       2.661   6.176  18.745  0.00  0.00    +0.000 C 
ATOM      7  C   UNL     1       3.131   7.508  18.151  0.00  0.00    +0.000 C 
ATOM      8  C   UNL     1       4.024   7.067  16.970  0.00  0.00    +0.000 C 
ATOM      9  H   UNL     1       5.871   6.182  15.327  0.00  0.00    +0.000 HD
ENDROOT
BRANCH   3  10
ATOM     10  C   UNL     1       6.073   4.333  14.296  0.00  0.00    +0.000 C 
ATOM     11  C   UNL     1       5.057   3.869  13.259  0.00  0.00    +0.000 C 
ATOM     12  C   UNL     1       5.919   3.231  12.179  0.00  0.00    +0.000 C 
ATOM     13  C   UNL     1       7.247   3.989  12.208  0.00  0.00    +0.000 C 
ATOM     14  C   UNL     1       7.181   4.926  13.417  0.00  0.00    +0.000 C 
ENDBRANCH   3  10
BRANCH   7  15
ATOM     15  C   UNL     1       1.954   8.419  17.765  0.00  0.00    +0.000 C 
BRANCH  15  16
ATOM     16  C   UNL     1       1.712   9.521  18.806  0.00  0.00    +0.000 C 
BRANCH  16  17
ATOM     17  O   UNL     1       0.311   9.652  19.063  0.00  0.00    +0.000 OA
BRANCH  17  18
ATOM     18  C   UNL     1      -0.048   9.848  20.374  0.00  0.00    +0.000 A 
ATOM     19  C   UNL     1      -0.565  11.118  20.662  0.00  0.00    +0.000 A 
ATOM     20  C   UNL     1      -0.957  11.455  21.963  0.00  0.00    +0.000 A 
ATOM     21  C   UNL     1      -0.839  10.526  22.995  0.00  0.00    +0.000 A 
ATOM     22  C   UNL     1      -0.332   9.257  22.721  0.00  0.00    +0.000 A 
ATOM     23  C   UNL     1       0.055   8.929  21.424  0.00  0.00    +0.000 A 
ATOM     24  F   UNL     1       0.538   7.686  21.232  0.00  0.00    +0.000 F 
ENDBRANCH  17  18
ENDBRANCH  16  17
ENDBRANCH  15  16
ENDBRANCH   7  15
TORSDOF 5
ENDMDL
MODEL 7
REMARK VINA RESULT:      -7.4      3.799      7.805
REMARK  Name = 
REMARK  5 active torsions:
REMARK  status: ('A' for Active; 'I' for Inactive)
REMARK    1  A    between atoms: N_3  and  C_4
REMARK    2  A    between atoms: C_12  and  C_13
REMARK    3  A    between atoms: C_13  and  C_14
REMARK    4  A    between atoms: C_14  and  O_15
REMARK    5  A    between atoms: O_15  and  C_16
REMARK                            x       y       z     vdW  Elec       q    Type
REMARK                         _______ _______ _______ _____ _____    ______ ____
ROOT
ATOM      1  O   UNL     1       5.209   3.933  16.689  0.00  0.00    +0.000 OA
ATOM      2  C   UNL     1       5.230   3.799  17.909  0.00  0.00    +0.000 C 
ATOM      3  N   UNL     1       6.053   4.552  18.709  0.00  0.00    +0.000 N 
ATOM      4  N   UNL     1       4.414   2.907  18.567  0.00  0.00    +0.000 N 
ATOM      5  C   UNL     1       3.553   2.033  17.796  0.00  0.00    +0.000 C 
ATOM      6  C   UNL     1       2.284   1.944  18.614  0.00  0.00    +0.000 C 
ATOM      7  C   UNL     1       2.790   1.987  20.060  0.00  0.00    +0.000 C 
ATOM      8  C   UNL     1       4.013   2.929  19.973  0.00  0.00    +0.000 C 
ATOM      9  H   UNL     1       6.313   4.135  19.591  0.00  0.00    +0.000 HD
ENDROOT
BRANCH   3  10
ATOM     10  C   UNL     1       6.949   5.525  18.113  0.00  0.00    +0.000 C 
ATOM     11  C   UNL     1       6.209   6.718  17.522  0.00  0.00    +0.000 C 
ATOM     12  C   UNL     1       7.315   7.736  17.278  0.00  0.00    +0.000 C 
ATOM     13  C   UNL     1       8.365   7.472  18.358  0.00  0.00    +0.000 C 
ATOM     14  C   UNL     1       7.922   6.201  19.087  0.00  0.00    +0.000 C 
ENDBRANCH   3  10
BRANCH   7  15
ATOM     15  C   UNL     1       1.698   2.437  21.044  0.00  0.00    +0.000 C 
BRANCH  15  16
ATOM     16  C   UNL     1       1.859   3.908  21.452  0.00  0.00    +0.000 C 
BRANCH  16  17
ATOM     17  O   UNL     1       0.928   4.720  20.732  0.00  0.00    +0.000 OA
BRANCH  17  18
ATOM     18  C   UNL     1       1.464   5.754  20.004  0.00  0.00    +0.000 A 
ATOM     19  C   UNL     1       1.948   5.397  18.738  0.00  0.00    +0.000 A 
ATOM     20  C   UNL     1       2.533   6.353  17.899  0.00  0.00    +0.000 A 
ATOM     21  C   UNL     1       2.640   7.679  18.312  0.00  0.00    +0.000 A 
ATOM     22  C   UNL     1       2.156   8.049  19.565  0.00  0.00    +0.000 A 
ATOM     23  C   UNL     1       1.575   7.092  20.395  0.00  0.00    +0.000 A 
ATOM     24  F   UNL     1       1.131   7.520  21.593  0.00  0.00    +0.000 F 
ENDBRANCH  17  18
ENDBRANCH  16  17
ENDBRANCH  15  16
ENDBRANCH   7  15
TORSDOF 5
ENDMDL
MODEL 8
REMARK VINA RESULT:      -7.3      1.210      1.599
REMARK  Name = 
REMARK  5 active torsions:
REMARK  status: ('A' for Active; 'I' for Inactive)
REMARK    1  A    between atoms: N_3  and  C_4
REMARK    2  A    between atoms: C_12  and  C_13
REMARK    3  A    between atoms: C_13  and  C_14
REMARK    4  A    between atoms: C_14  and  O_15
REMARK    5  A    between atoms: O_15  and  C_16
REMARK                            x       y       z     vdW  Elec       q    Type
REMARK                         _______ _______ _______ _____ _____    ______ ____
ROOT
ATOM      1  O   UNL     1       4.756   4.102  19.420  0.00  0.00    +0.000 OA
ATOM      2  C   UNL     1       4.745   4.900  18.487  0.00  0.00    +0.000 C 
ATOM      3  N   UNL     1       3.589   5.216  17.817  0.00  0.00    +0.000 N 
ATOM      4  N   UNL     1       5.878   5.555  18.063  0.00  0.00    +0.000 N 
ATOM      5  C   UNL     1       7.151   5.238  18.679  0.00  0.00    +0.000 C 
ATOM      6  C   UNL     1       7.868   6.568  18.752  0.00  0.00    +0.000 C 
ATOM      7  C   UNL     1       7.417   7.287  17.476  0.00  0.00    +0.000 C 
ATOM      8  C   UNL     1       5.961   6.799  17.299  0.00  0.00    +0.000 C 
ATOM      9  H   UNL     1       3.704   5.530  16.864  0.00  0.00    +0.000 HD
ENDROOT
BRANCH   3  10
ATOM     10  C   UNL     1       2.338   4.585  18.191  0.00  0.00    +0.000 C 
ATOM     11  C   UNL     1       2.345   3.081  17.951  0.00  0.00    +0.000 C 
ATOM     12  C   UNL     1       1.117   2.596  18.710  0.00  0.00    +0.000 C 
ATOM     13  C   UNL     1       0.951   3.558  19.887  0.00  0.00    +0.000 C 
ATOM     14  C   UNL     1       1.980   4.673  19.679  0.00  0.00    +0.000 C 
ENDBRANCH   3  10
BRANCH   7  15
ATOM     15  C   UNL     1       7.578   8.812  17.580  0.00  0.00    +0.000 C 
BRANCH  15  16
ATOM     16  C   UNL     1       8.646   9.210  18.608  0.00  0.00    +0.000 C 
BRANCH  16  17
ATOM     17  O   UNL     1       9.474  10.249  18.077  0.00  0.00    +0.000 OA
BRANCH  17  18
ATOM     18  C   UNL     1       9.304  11.497  18.625  0.00  0.00    +0.000 A 
ATOM     19  C   UNL     1       8.883  12.486  17.725  0.00  0.00    +0.000 A 
ATOM     20  C   UNL     1       8.686  13.805  18.149  0.00  0.00    +0.000 A 
ATOM     21  C   UNL     1       8.904  14.154  19.481  0.00  0.00    +0.000 A 
ATOM     22  C   UNL     1       9.316  13.180  20.387  0.00  0.00    +0.000 A 
ATOM     23  C   UNL     1       9.510  11.869  19.957  0.00  0.00    +0.000 A 
ATOM     24  F   UNL     1       9.910  10.979  20.887  0.00  0.00    +0.000 F 
ENDBRANCH  17  18
ENDBRANCH  16  17
ENDBRANCH  15  16
ENDBRANCH   7  15
TORSDOF 5
ENDMDL
MODEL 9
REMARK VINA RESULT:      -7.3      4.972      7.360
REMARK  Name = 
REMARK  5 active torsions:
REMARK  status: ('A' for Active; 'I' for Inactive)
REMARK    1  A    between atoms: N_3  and  C_4
REMARK    2  A    between atoms: C_12  and  C_13
REMARK    3  A    between atoms: C_13  and  C_14
REMARK    4  A    between atoms: C_14  and  O_15
REMARK    5  A    between atoms: O_15  and  C_16
REMARK                            x       y       z     vdW  Elec       q    Type
REMARK                         _______ _______ _______ _____ _____    ______ ____
ROOT
ATOM      1  O   UNL     1       1.552   7.158  20.798  0.00  0.00    +0.000 OA
ATOM      2  C   UNL     1       1.995   7.455  19.693  0.00  0.00    +0.000 C 
ATOM      3  N   UNL     1       1.643   8.619  19.057  0.00  0.00    +0.000 N 
ATOM      4  N   UNL     1       2.897   6.660  19.022  0.00  0.00    +0.000 N 
ATOM      5  C   UNL     1       3.281   5.386  19.596  0.00  0.00    +0.000 C 
ATOM      6  C   UNL     1       4.750   5.256  19.261  0.00  0.00    +0.000 C 
ATOM      7  C   UNL     1       4.860   5.914  17.882  0.00  0.00    +0.000 C 
ATOM      8  C   UNL     1       3.817   7.052  17.955  0.00  0.00    +0.000 C 
ATOM      9  H   UNL     1       1.704   8.608  18.049  0.00  0.00    +0.000 HD
ENDROOT
BRANCH   3  10
ATOM     10  C   UNL     1       0.703   9.530  19.682  0.00  0.00    +0.000 C 
ATOM     11  C   UNL     1       1.391  10.698  20.377  0.00  0.00    +0.000 C 
ATOM     12  C   UNL     1       0.252  11.671  20.647  0.00  0.00    +0.000 C 
ATOM     13  C   UNL     1      -0.753  11.455  19.515  0.00  0.00    +0.000 C 
ATOM     14  C   UNL     1      -0.253  10.246  18.721  0.00  0.00    +0.000 C 
ENDBRANCH   3  10
BRANCH   7  15
ATOM     15  C   UNL     1       6.294   6.372  17.570  0.00  0.00    +0.000 C 
BRANCH  15  16
ATOM     16  C   UNL     1       7.060   5.340  16.732  0.00  0.00    +0.000 C 
BRANCH  16  17
ATOM     17  O   UNL     1       7.398   5.896  15.458  0.00  0.00    +0.000 OA
BRANCH  17  18
ATOM     18  C   UNL     1       7.053   5.146  14.360  0.00  0.00    +0.000 A 
ATOM     19  C   UNL     1       5.902   4.362  14.518  0.00  0.00    +0.000 A 
ATOM     20  C   UNL     1       5.447   3.539  13.481  0.00  0.00    +0.000 A 
ATOM     21  C   UNL     1       6.135   3.491  12.270  0.00  0.00    +0.000 A 
ATOM     22  C   UNL     1       7.276   4.271  12.097  0.00  0.00    +0.000 A 
ATOM     23  C   UNL     1       7.723   5.087  13.134  0.00  0.00    +0.000 A 
ATOM     24  F   UNL     1       8.834   5.812  12.899  0.00  0.00    +0.000 F 
ENDBRANCH  17  18
ENDBRANCH  16  17
ENDBRANCH  15  16
ENDBRANCH   7  15
TORSDOF 5
ENDMDL
