MODEL 1
REMARK VINA RESULT:      -7.6      0.000      0.000
REMARK  Name = 
REMARK  10 active torsions:
REMARK  status: ('A' for Active; 'I' for Inactive)
REMARK    1  A    between atoms: C_1  and  O_2
REMARK    2  A    between atoms: O_2  and  C_3
REMARK    3  A    between atoms: C_5  and  C_6
REMARK    4  A    between atoms: N_7  and  C_8
REMARK    5  A    between atoms: C_8  and  C_9
REMARK    6  A    between atoms: C_9  and  N_10
REMARK    7  A    between atoms: C_11  and  C_13
REMARK    8  A    between atoms: N_15  and  C_16
REMARK    9  A    between atoms: C_25  and  O_26
REMARK   10  A    between atoms: O_26  and  C_27
REMARK                            x       y       z     vdW  Elec       q    Type
REMARK                         _______ _______ _______ _____ _____    ______ ____
ROOT
ATOM      1  N   UNL     1       1.963   7.081  20.626  0.00  0.00    +0.000 N 
ATOM      2  C   UNL     1       2.272   6.953  19.297  0.00  0.00    +0.000 C 
ATOM      3  O   UNL     1       2.205   7.880  18.494  0.00  0.00    +0.000 OA
ATOM      4  H   UNL     1       2.269   6.332  21.241  0.00  0.00    +0.000 HD
ENDROOT
BRANCH   2   5
ATOM      5  C   UNL     1       2.645   5.588  18.820  0.00  0.00    +0.000 A 
ATOM      6  C   UNL     1       3.600   5.591  17.874  0.00  0.00    +0.000 A 
ATOM      7  N   UNL     1       4.158   4.431  17.341  0.00  0.00    +0.000 N 
ATOM      8  C   UNL     1       3.739   3.178  17.829  0.00  0.00    +0.000 A 
ATOM      9  O   UNL     1       4.188   2.072  17.533  0.00  0.00    +0.000 OA
ATOM     10  C   UNL     1       2.658   3.189  18.855  0.00  0.00    +0.000 A 
ATOM     11  C   UNL     1       2.140   4.333  19.330  0.00  0.00    +0.000 A 
BRANCH   7  12
ATOM     12  C   UNL     1       5.176   4.511  16.314  0.00  0.00    +0.000 A 
ATOM     13  C   UNL     1       4.883   4.232  14.970  0.00  0.00    +0.000 A 
ATOM     14  C   UNL     1       5.855   4.335  13.971  0.00  0.00    +0.000 A 
ATOM     15  C   UNL     1       7.149   4.721  14.296  0.00  0.00    +0.000 A 
ATOM     16  C   UNL     1       7.472   5.006  15.618  0.00  0.00    +0.000 A 
ATOM     17  C   UNL     1       6.495   4.904  16.616  0.00  0.00    +0.000 A 
ENDBRANCH   7  12
BRANCH  11  18
ATOM     18  O   UNL     1       1.155   4.436  20.290  0.00  0.00    +0.000 OA
ATOM     19  C   UNL     1       1.152   3.439  21.311  0.00  0.00    +0.000 C 
ENDBRANCH  11  18
ENDBRANCH   2   5
BRANCH   1  20
ATOM     20  C   UNL     1       1.558   8.347  21.234  0.00  0.00    +0.000 C 
BRANCH  20  21
ATOM     21  C   UNL     1       0.036   8.580  21.296  0.00  0.00    +0.000 C 
BRANCH  21  26
ATOM     22  C   UNL     1      -1.194  12.637  21.619  0.00  0.00    +0.000 A 
ATOM     23  C   UNL     1      -1.094  11.989  20.332  0.00  0.00    +0.000 A 
ATOM     24  C   UNL     1      -0.682  10.714  20.219  0.00  0.00    +0.000 A 
ATOM     25  C   UNL     1      -0.605  10.064  18.860  0.00  0.00    +0.000 C 
ATOM     26  N   UNL     1      -0.346   9.992  21.371  0.00  0.00    +0.000 N 
ATOM     27  C   UNL     1      -0.421  10.550  22.645  0.00  0.00    +0.000 A 
ATOM     28  O   UNL     1      -0.139   9.961  23.686  0.00  0.00    +0.000 OA
ATOM     29  C   UNL     1      -0.883  11.957  22.726  0.00  0.00    +0.000 A 
BRANCH  22  31
ATOM     30  C   UNL     1      -0.962  14.896  22.334  0.00  0.00    +0.000 C 
ATOM     31  O   UNL     1      -1.635  13.935  21.528  0.00  0.00    +0.000 OA
ENDBRANCH  22  31
ENDBRANCH  21  26
ENDBRANCH  20  21
ENDBRANCH   1  20
TORSDOF 7
ENDMDL
MODEL 2
REMARK VINA RESULT:      -7.5      2.368      8.213
REMARK  Name = 
REMARK  10 active torsions:
REMARK  status: ('A' for Active; 'I' for Inactive)
REMARK    1  A    between atoms: C_1  and  O_2
REMARK    2  A    between atoms: O_2  and  C_3
REMARK    3  A    between atoms: C_5  and  C_6
REMARK    4  A    between atoms: N_7  and  C_8
REMARK    5  A    between atoms: C_8  and  C_9
REMARK    6  A    between atoms: C_9  and  N_10
REMARK    7  A    between atoms: C_11  and  C_13
REMARK    8  A    between atoms: N_15  and  C_16
REMARK    9  A    between atoms: C_25  and  O_26
REMARK   10  A    between atoms: O_26  and  C_27
REMARK                            x       y       z     vdW  Elec       q    Type
REMARK                         _______ _______ _______ _____ _____    ______ ____
ROOT
ATOM      1  N   UNL     1       2.834   5.199  17.818  0.00  0.00    +0.000 N 
ATOM      2  C   UNL     1       2.985   6.561  17.835  0.00  0.00    +0.000 C 
ATOM      3  O   UNL     1       3.665   7.177  17.019  0.00  0.00    +0.000 OA
ATOM      4  H   UNL     1       2.079   4.815  18.381  0.00  0.00    +0.000 HD
ENDROOT
BRANCH   2   5
ATOM      5  C   UNL     1       2.325   7.299  18.953  0.00  0.00    +0.000 A 
ATOM      6  C   UNL     1       1.856   8.507  18.597  0.00  0.00    +0.000 A 
ATOM      7  N   UNL     1       1.137   9.336  19.456  0.00  0.00    +0.000 N 
ATOM      8  C   UNL     1       0.844   8.890  20.759  0.00  0.00    +0.000 A 
ATOM      9  O   UNL     1       0.151   9.454  21.605  0.00  0.00    +0.000 OA
ATOM     10  C   UNL     1       1.397   7.562  21.150  0.00  0.00    +0.000 A 
ATOM     11  C   UNL     1       2.097   6.803  20.291  0.00  0.00    +0.000 A 
BRANCH   7  12
ATOM     12  C   UNL     1       0.671  10.632  19.006  0.00  0.00    +0.000 A 
ATOM     13  C   UNL     1      -0.647  10.823  18.565  0.00  0.00    +0.000 A 
ATOM     14  C   UNL     1      -1.109  12.078  18.157  0.00  0.00    +0.000 A 
ATOM     15  C   UNL     1      -0.258  13.176  18.183  0.00  0.00    +0.000 A 
ATOM     16  C   UNL     1       1.054  13.020  18.617  0.00  0.00    +0.000 A 
ATOM     17  C   UNL     1       1.513  11.762  19.027  0.00  0.00    +0.000 A 
ENDBRANCH   7  12
BRANCH  11  18
ATOM     18  O   UNL     1       2.626   5.558  20.562  0.00  0.00    +0.000 OA
ATOM     19  C   UNL     1       1.697   4.524  20.879  0.00  0.00    +0.000 C 
ENDBRANCH  11  18
ENDBRANCH   2   5
BRANCH   1  20
ATOM     20  C   UNL     1       3.439   4.340  16.803  0.00  0.00    +0.000 C 
BRANCH  20  21
ATOM     21  C   UNL     1       4.789   3.713  17.202  0.00  0.00    +0.000 C 
BRANCH  21  26
ATOM     22  C   UNL     1       7.645   6.630  18.392  0.00  0.00    +0.000 A 
ATOM     23  C   UNL     1       7.324   6.427  16.999  0.00  0.00    +0.000 A 
ATOM     24  C   UNL     1       6.440   5.490  16.612  0.00  0.00    +0.000 A 
ATOM     25  C   UNL     1       6.117   5.316  15.148  0.00  0.00    +0.000 C 
ATOM     26  N   UNL     1       5.811   4.694  17.576  0.00  0.00    +0.000 N 
ATOM     27  C   UNL     1       6.068   4.835  18.938  0.00  0.00    +0.000 A 
ATOM     28  O   UNL     1       5.544   4.164  19.824  0.00  0.00    +0.000 OA
ATOM     29  C   UNL     1       7.046   5.881  19.323  0.00  0.00    +0.000 A 
BRANCH  22  31
ATOM     30  C   UNL     1       8.238   8.909  18.043  0.00  0.00    +0.000 C 
ATOM     31  O   UNL     1       8.563   7.634  18.585  0.00  0.00    +0.000 OA
ENDBRANCH  22  31
ENDBRANCH  21  26
ENDBRANCH  20  21
ENDBRANCH   1  20
TORSDOF 7
ENDMDL
MODEL 3
REMARK VINA RESULT:      -7.3      5.823      8.169
REMARK  Name = 
REMARK  10 active torsions:
REMARK  status: ('A' for Active; 'I' for Inactive)
REMARK    1  A    between atoms: C_1  and  O_2
REMARK    2  A    between atoms: O_2  and  C_3
REMARK    3  A    between atoms: C_5  and  C_6
REMARK    4  A    between atoms: N_7  and  C_8
REMARK    5  A    between atoms: C_8  and  C_9
REMARK    6  A    between atoms: C_9  and  N_10
REMARK    7  A    between atoms: C_11  and  C_13
REMARK    8  A    between atoms: N_15  and  C_16
REMARK    9  A    between atoms: C_25  and  O_26
REMARK   10  A    between atoms: O_26  and  C_27
REMARK                            x       y       z     vdW  Elec       q    Type
REMARK                         _______ _______ _______ _____ _____    ______ ____
ROOT
ATOM      1  N   UNL     1       7.552   7.923  17.447  0.00  0.00    +0.000 N 
ATOM      2  C   UNL     1       7.494   6.724  18.110  0.00  0.00    +0.000 C 
ATOM      3  O   UNL     1       8.256   6.418  19.023  0.00  0.00    +0.000 OA
ATOM      4  H   UNL     1       6.747   8.171  16.879  0.00  0.00    +0.000 HD
ENDROOT
BRANCH   2   5
ATOM      5  C   UNL     1       6.482   5.738  17.631  0.00  0.00    +0.000 A 
ATOM      6  C   UNL     1       5.574   5.402  18.564  0.00  0.00    +0.000 A 
ATOM      7  N   UNL     1       4.492   4.559  18.317  0.00  0.00    +0.000 N 
ATOM      8  C   UNL     1       4.300   4.047  17.020  0.00  0.00    +0.000 A 
ATOM      9  O   UNL     1       3.358   3.368  16.615  0.00  0.00    +0.000 OA
ATOM     10  C   UNL     1       5.331   4.402  16.003  0.00  0.00    +0.000 A 
ATOM     11  C   UNL     1       6.366   5.208  16.291  0.00  0.00    +0.000 A 
BRANCH   7  12
ATOM     12  C   UNL     1       3.559   4.232  19.376  0.00  0.00    +0.000 A 
ATOM     13  C   UNL     1       3.667   3.035  20.101  0.00  0.00    +0.000 A 
ATOM     14  C   UNL     1       2.786   2.727  21.142  0.00  0.00    +0.000 A 
ATOM     15  C   UNL     1       1.774   3.615  21.484  0.00  0.00    +0.000 A 
ATOM     16  C   UNL     1       1.642   4.811  20.786  0.00  0.00    +0.000 A 
ATOM     17  C   UNL     1       2.527   5.117  19.745  0.00  0.00    +0.000 A 
ENDBRANCH   7  12
BRANCH  11  18
ATOM     18  O   UNL     1       7.351   5.603  15.410  0.00  0.00    +0.000 OA
ATOM     19  C   UNL     1       7.277   5.070  14.088  0.00  0.00    +0.000 C 
ENDBRANCH  11  18
ENDBRANCH   2   5
BRANCH   1  20
ATOM     20  C   UNL     1       8.504   8.978  17.786  0.00  0.00    +0.000 C 
BRANCH  20  21
ATOM     21  C   UNL     1       7.868  10.315  18.214  0.00  0.00    +0.000 C 
BRANCH  21  26
ATOM     22  C   UNL     1      10.655  13.314  19.360  0.00  0.00    +0.000 A 
ATOM     23  C   UNL     1       9.650  13.576  18.357  0.00  0.00    +0.000 A 
ATOM     24  C   UNL     1       8.781  12.626  17.972  0.00  0.00    +0.000 A 
ATOM     25  C   UNL     1       7.732  12.939  16.932  0.00  0.00    +0.000 C 
ATOM     26  N   UNL     1       8.843  11.354  18.554  0.00  0.00    +0.000 N 
ATOM     27  C   UNL     1       9.784  11.030  19.529  0.00  0.00    +0.000 A 
ATOM     28  O   UNL     1       9.881   9.932  20.072  0.00  0.00    +0.000 OA
ATOM     29  C   UNL     1      10.722  12.107  19.929  0.00  0.00    +0.000 A 
BRANCH  22  31
ATOM     30  C   UNL     1      11.562  15.372  18.579  0.00  0.00    +0.000 C 
ATOM     31  O   UNL     1      11.444  14.409  19.621  0.00  0.00    +0.000 OA
ENDBRANCH  22  31
ENDBRANCH  21  26
ENDBRANCH  20  21
ENDBRANCH   1  20
TORSDOF 7
ENDMDL
MODEL 4
REMARK VINA RESULT:      -7.3      1.879      2.349
REMARK  Name = 
REMARK  10 active torsions:
REMARK  status: ('A' for Active; 'I' for Inactive)
REMARK    1  A    between atoms: C_1  and  O_2
REMARK    2  A    between atoms: O_2  and  C_3
REMARK    3  A    between atoms: C_5  and  C_6
REMARK    4  A    between atoms: N_7  and  C_8
REMARK    5  A    between atoms: C_8  and  C_9
REMARK    6  A    between atoms: C_9  and  N_10
REMARK    7  A    between atoms: C_11  and  C_13
REMARK    8  A    between atoms: N_15  and  C_16
REMARK    9  A    between atoms: C_25  and  O_26
REMARK   10  A    between atoms: O_26  and  C_27
REMARK                            x       y       z     vdW  Elec       q    Type
REMARK                         _______ _______ _______ _____ _____    ______ ____
ROOT
ATOM      1  N   UNL     1       1.668   6.943  20.322  0.00  0.00    +0.000 N 
ATOM      2  C   UNL     1       1.599   5.602  20.042  0.00  0.00    +0.000 C 
ATOM      3  O   UNL     1       0.871   4.821  20.649  0.00  0.00    +0.000 OA
ATOM      4  H   UNL     1       2.113   7.533  19.625  0.00  0.00    +0.000 HD
ENDROOT
BRANCH   2   5
ATOM      5  C   UNL     1       2.512   5.088  18.980  0.00  0.00    +0.000 A 
ATOM      6  C   UNL     1       3.713   5.692  18.963  0.00  0.00    +0.000 A 
ATOM      7  N   UNL     1       4.750   5.321  18.110  0.00  0.00    +0.000 N 
ATOM      8  C   UNL     1       4.564   4.234  17.233  0.00  0.00    +0.000 A 
ATOM      9  O   UNL     1       5.398   3.726  16.484  0.00  0.00    +0.000 OA
ATOM     10  C   UNL     1       3.219   3.594  17.240  0.00  0.00    +0.000 A 
ATOM     11  C   UNL     1       2.244   3.995  18.072  0.00  0.00    +0.000 A 
BRANCH   7  12
ATOM     12  C   UNL     1       6.015   6.026  18.140  0.00  0.00    +0.000 A 
ATOM     13  C   UNL     1       6.265   7.114  17.289  0.00  0.00    +0.000 A 
ATOM     14  C   UNL     1       7.474   7.816  17.334  0.00  0.00    +0.000 A 
ATOM     15  C   UNL     1       8.463   7.444  18.236  0.00  0.00    +0.000 A 
ATOM     16  C   UNL     1       8.245   6.372  19.094  0.00  0.00    +0.000 A 
ATOM     17  C   UNL     1       7.032   5.672  19.048  0.00  0.00    +0.000 A 
ENDBRANCH   7  12
BRANCH  11  18
ATOM     18  O   UNL     1       0.981   3.448  18.158  0.00  0.00    +0.000 OA
ATOM     19  C   UNL     1       0.887   2.144  18.728  0.00  0.00    +0.000 C 
ENDBRANCH  11  18
ENDBRANCH   2   5
BRANCH   1  20
ATOM     20  C   UNL     1       0.854   7.587  21.349  0.00  0.00    +0.000 C 
BRANCH  20  21
ATOM     21  C   UNL     1       1.351   8.976  21.796  0.00  0.00    +0.000 C 
BRANCH  21  26
ATOM     22  C   UNL     1      -1.797  11.829  21.971  0.00  0.00    +0.000 A 
ATOM     23  C   UNL     1      -1.088  11.576  20.739  0.00  0.00    +0.000 A 
ATOM     24  C   UNL     1      -0.075  10.694  20.680  0.00  0.00    +0.000 A 
ATOM     25  C   UNL     1       0.634  10.444  19.372  0.00  0.00    +0.000 C 
ATOM     26  N   UNL     1       0.303   9.998  21.835  0.00  0.00    +0.000 N 
ATOM     27  C   UNL     1      -0.337  10.187  23.058  0.00  0.00    +0.000 A 
ATOM     28  O   UNL     1      -0.047   9.603  24.099  0.00  0.00    +0.000 OA
ATOM     29  C   UNL     1      -1.451  11.166  23.079  0.00  0.00    +0.000 A 
BRANCH  22  31
ATOM     30  C   UNL     1      -3.105  13.165  20.498  0.00  0.00    +0.000 C 
ATOM     31  O   UNL     1      -2.799  12.758  21.827  0.00  0.00    +0.000 OA
ENDBRANCH  22  31
ENDBRANCH  21  26
ENDBRANCH  20  21
ENDBRANCH   1  20
TORSDOF 7
ENDMDL
MODEL 5
REMARK VINA RESULT:      -7.3      1.180      1.706
REMARK  Name = 
REMARK  10 active torsions:
REMARK  status: ('A' for Active; 'I' for Inactive)
REMARK    1  A    between atoms: C_1  and  O_2
REMARK    2  A    between atoms: O_2  and  C_3
REMARK    3  A    between atoms: C_5  and  C_6
REMARK    4  A    between atoms: N_7  and  C_8
REMARK    5  A    between atoms: C_8  and  C_9
REMARK    6  A    between atoms: C_9  and  N_10
REMARK    7  A    between atoms: C_11  and  C_13
REMARK    8  A    between atoms: N_15  and  C_16
REMARK    9  A    between atoms: C_25  and  O_26
REMARK   10  A    between atoms: O_26  and  C_27
REMARK                            x       y       z     vdW  Elec       q    Type
REMARK                         _______ _______ _______ _____ _____    ______ ____
ROOT
ATOM      1  N   UNL     1       1.833   7.007  20.641  0.00  0.00    +0.000 N 
ATOM      2  C   UNL     1       2.328   6.917  19.366  0.00  0.00    +0.000 C 
ATOM      3  O   UNL     1       2.430   7.879  18.609  0.00  0.00    +0.000 OA
ATOM      4  H   UNL     1       2.005   6.216  21.256  0.00  0.00    +0.000 HD
ENDROOT
BRANCH   2   5
ATOM      5  C   UNL     1       2.697   5.554  18.881  0.00  0.00    +0.000 A 
ATOM      6  C   UNL     1       3.645   5.559  17.927  0.00  0.00    +0.000 A 
ATOM      7  N   UNL     1       4.198   4.402  17.385  0.00  0.00    +0.000 N 
ATOM      8  C   UNL     1       3.782   3.147  17.871  0.00  0.00    +0.000 A 
ATOM      9  O   UNL     1       4.228   2.041  17.566  0.00  0.00    +0.000 OA
ATOM     10  C   UNL     1       2.708   3.154  18.905  0.00  0.00    +0.000 A 
ATOM     11  C   UNL     1       2.195   4.297  19.389  0.00  0.00    +0.000 A 
BRANCH   7  12
ATOM     12  C   UNL     1       5.208   4.485  16.351  0.00  0.00    +0.000 A 
ATOM     13  C   UNL     1       4.914   4.171  15.014  0.00  0.00    +0.000 A 
ATOM     14  C   UNL     1       5.879   4.277  14.008  0.00  0.00    +0.000 A 
ATOM     15  C   UNL     1       7.165   4.702  14.317  0.00  0.00    +0.000 A 
ATOM     16  C   UNL     1       7.487   5.022  15.631  0.00  0.00    +0.000 A 
ATOM     17  C   UNL     1       6.518   4.917  16.637  0.00  0.00    +0.000 A 
ENDBRANCH   7  12
BRANCH  11  18
ATOM     18  O   UNL     1       1.218   4.396  20.357  0.00  0.00    +0.000 OA
ATOM     19  C   UNL     1       1.157   3.340  21.314  0.00  0.00    +0.000 C 
ENDBRANCH  11  18
ENDBRANCH   2   5
BRANCH   1  20
ATOM     20  C   UNL     1       1.409   8.267  21.246  0.00  0.00    +0.000 C 
BRANCH  20  21
ATOM     21  C   UNL     1      -0.061   8.652  20.983  0.00  0.00    +0.000 C 
BRANCH  21  26
ATOM     22  C   UNL     1      -0.538  12.840  20.431  0.00  0.00    +0.000 A 
ATOM     23  C   UNL     1      -0.693  12.238  21.734  0.00  0.00    +0.000 A 
ATOM     24  C   UNL     1      -0.568  10.912  21.913  0.00  0.00    +0.000 A 
ATOM     25  C   UNL     1      -0.720  10.318  23.292  0.00  0.00    +0.000 C 
ATOM     26  N   UNL     1      -0.277  10.090  20.817  0.00  0.00    +0.000 N 
ATOM     27  C   UNL     1      -0.111  10.600  19.531  0.00  0.00    +0.000 A 
ATOM     28  O   UNL     1       0.146   9.926  18.537  0.00  0.00    +0.000 OA
ATOM     29  C   UNL     1      -0.253  12.069  19.377  0.00  0.00    +0.000 A 
BRANCH  22  31
ATOM     30  C   UNL     1      -0.345  14.907  19.266  0.00  0.00    +0.000 C 
ATOM     31  O   UNL     1      -0.698  14.205  20.453  0.00  0.00    +0.000 OA
ENDBRANCH  22  31
ENDBRANCH  21  26
ENDBRANCH  20  21
ENDBRANCH   1  20
TORSDOF 7
ENDMDL
MODEL 6
REMARK VINA RESULT:      -7.2      3.434      6.230
REMARK  Name = 
REMARK  10 active torsions:
REMARK  status: ('A' for Active; 'I' for Inactive)
REMARK    1  A    between atoms: C_1  and  O_2
REMARK    2  A    between atoms: O_2  and  C_3
REMARK    3  A    between atoms: C_5  and  C_6
REMARK    4  A    between atoms: N_7  and  C_8
REMARK    5  A    between atoms: C_8  and  C_9
REMARK    6  A    between atoms: C_9  and  N_10
REMARK    7  A    between atoms: C_11  and  C_13
REMARK    8  A    between atoms: N_15  and  C_16
REMARK    9  A    between atoms: C_25  and  O_26
REMARK   10  A    between atoms: O_26  and  C_27
REMARK                            x       y       z     vdW  Elec       q    Type
REMARK                         _______ _______ _______ _____ _____    ______ ____
ROOT
ATOM      1  N   UNL     1       4.355   2.341  17.773  0.00  0.00    +0.000 N 
ATOM      2  C   UNL     1       5.223   3.354  18.090  0.00  0.00    +0.000 C 
ATOM      3  O   UNL     1       5.356   3.801  19.226  0.00  0.00    +0.000 OA
ATOM      4  H   UNL     1       4.485   1.891  16.871  0.00  0.00    +0.000 HD
ENDROOT
BRANCH   2   5
ATOM      5  C   UNL     1       5.988   3.963  16.962  0.00  0.00    +0.000 A 
ATOM      6  C   UNL     1       5.607   3.519  15.751  0.00  0.00    +0.000 A 
ATOM      7  N   UNL     1       6.128   4.006  14.555  0.00  0.00    +0.000 N 
ATOM      8  C   UNL     1       7.081   5.043  14.590  0.00  0.00    +0.000 A 
ATOM      9  O   UNL     1       7.571   5.641  13.633  0.00  0.00    +0.000 OA
ATOM     10  C   UNL     1       7.517   5.503  15.939  0.00  0.00    +0.000 A 
ATOM     11  C   UNL     1       6.996   4.994  17.066  0.00  0.00    +0.000 A 
BRANCH   7  12
ATOM     12  C   UNL     1       5.678   3.471  13.286  0.00  0.00    +0.000 A 
ATOM     13  C   UNL     1       4.451   3.857  12.724  0.00  0.00    +0.000 A 
ATOM     14  C   UNL     1       4.024   3.365  11.487  0.00  0.00    +0.000 A 
ATOM     15  C   UNL     1       4.821   2.473  10.780  0.00  0.00    +0.000 A 
ATOM     16  C   UNL     1       6.043   2.073  11.308  0.00  0.00    +0.000 A 
ATOM     17  C   UNL     1       6.468   2.569  12.547  0.00  0.00    +0.000 A 
ENDBRANCH   7  12
BRANCH  11  18
ATOM     18  O   UNL     1       7.325   5.374  18.351  0.00  0.00    +0.000 OA
ATOM     19  C   UNL     1       7.882   6.678  18.508  0.00  0.00    +0.000 C 
ENDBRANCH  11  18
ENDBRANCH   2   5
BRANCH   1  20
ATOM     20  C   UNL     1       3.521   1.664  18.764  0.00  0.00    +0.000 C 
BRANCH  20  21
ATOM     21  C   UNL     1       2.086   2.212  18.889  0.00  0.00    +0.000 C 
BRANCH  21  26
ATOM     22  C   UNL     1       2.030   6.431  19.408  0.00  0.00    +0.000 A 
ATOM     23  C   UNL     1       2.024   5.541  20.545  0.00  0.00    +0.000 A 
ATOM     24  C   UNL     1       2.017   4.206  20.389  0.00  0.00    +0.000 A 
ATOM     25  C   UNL     1       2.027   3.305  21.600  0.00  0.00    +0.000 C 
ATOM     26  N   UNL     1       2.019   3.660  19.100  0.00  0.00    +0.000 N 
ATOM     27  C   UNL     1       2.028   4.456  17.957  0.00  0.00    +0.000 A 
ATOM     28  O   UNL     1       2.031   4.029  16.805  0.00  0.00    +0.000 OA
ATOM     29  C   UNL     1       2.039   5.924  18.172  0.00  0.00    +0.000 A 
BRANCH  22  31
ATOM     30  C   UNL     1       1.485   8.075  21.042  0.00  0.00    +0.000 C 
ATOM     31  O   UNL     1       2.041   7.757  19.771  0.00  0.00    +0.000 OA
ENDBRANCH  22  31
ENDBRANCH  21  26
ENDBRANCH  20  21
ENDBRANCH   1  20
TORSDOF 7
ENDMDL
MODEL 7
REMARK VINA RESULT:      -7.1      3.355      5.956
REMARK  Name = 
REMARK  10 active torsions:
REMARK  status: ('A' for Active; 'I' for Inactive)
REMARK    1  A    between atoms: C_1  and  O_2
REMARK    2  A    between atoms: O_2  and  C_3
REMARK    3  A    between atoms: C_5  and  C_6
REMARK    4  A    between atoms: N_7  and  C_8
REMARK    5  A    between atoms: C_8  and  C_9
REMARK    6  A    between atoms: C_9  and  N_10
REMARK    7  A    between atoms: C_11  and  C_13
REMARK    8  A    between atoms: N_15  and  C_16
REMARK    9  A    between atoms: C_25  and  O_26
REMARK   10  A    between atoms: O_26  and  C_27
REMARK                            x       y       z     vdW  Elec       q    Type
REMARK                         _______ _______ _______ _____ _____    ______ ____
ROOT
ATOM      1  N   UNL     1       3.890   2.339  18.011  0.00  0.00    +0.000 N 
ATOM      2  C   UNL     1       4.857   3.074  18.648  0.00  0.00    +0.000 C 
ATOM      3  O   UNL     1       4.972   3.127  19.869  0.00  0.00    +0.000 OA
ATOM      4  H   UNL     1       4.020   2.176  17.016  0.00  0.00    +0.000 HD
ENDROOT
BRANCH   2   5
ATOM      5  C   UNL     1       5.762   3.889  17.785  0.00  0.00    +0.000 A 
ATOM      6  C   UNL     1       5.617   3.645  16.471  0.00  0.00    +0.000 A 
ATOM      7  N   UNL     1       6.300   4.344  15.478  0.00  0.00    +0.000 N 
ATOM      8  C   UNL     1       7.169   5.389  15.846  0.00  0.00    +0.000 A 
ATOM      9  O   UNL     1       7.776   6.156  15.099  0.00  0.00    +0.000 OA
ATOM     10  C   UNL     1       7.344   5.629  17.307  0.00  0.00    +0.000 A 
ATOM     11  C   UNL     1       6.673   4.920  18.228  0.00  0.00    +0.000 A 
BRANCH   7  12
ATOM     12  C   UNL     1       6.102   4.017  14.081  0.00  0.00    +0.000 A 
ATOM     13  C   UNL     1       7.176   3.987  13.178  0.00  0.00    +0.000 A 
ATOM     14  C   UNL     1       6.994   3.645  11.834  0.00  0.00    +0.000 A 
ATOM     15  C   UNL     1       5.728   3.324  11.362  0.00  0.00    +0.000 A 
ATOM     16  C   UNL     1       4.643   3.342  12.232  0.00  0.00    +0.000 A 
ATOM     17  C   UNL     1       4.829   3.683  13.578  0.00  0.00    +0.000 A 
ENDBRANCH   7  12
BRANCH  11  18
ATOM     18  O   UNL     1       6.759   5.087  19.595  0.00  0.00    +0.000 OA
ATOM     19  C   UNL     1       8.014   5.533  20.106  0.00  0.00    +0.000 C 
ENDBRANCH  11  18
ENDBRANCH   2   5
BRANCH   1  20
ATOM     20  C   UNL     1       2.918   1.512  18.721  0.00  0.00    +0.000 C 
BRANCH  20  21
ATOM     21  C   UNL     1       1.566   2.197  19.005  0.00  0.00    +0.000 C 
BRANCH  21  26
ATOM     22  C   UNL     1       2.012   6.360  19.740  0.00  0.00    +0.000 A 
ATOM     23  C   UNL     1       2.008   5.409  20.826  0.00  0.00    +0.000 A 
ATOM     24  C   UNL     1       1.843   4.093  20.604  0.00  0.00    +0.000 A 
ATOM     25  C   UNL     1       1.860   3.125  21.762  0.00  0.00    +0.000 C 
ATOM     26  N   UNL     1       1.675   3.628  19.294  0.00  0.00    +0.000 N 
ATOM     27  C   UNL     1       1.671   4.487  18.197  0.00  0.00    +0.000 A 
ATOM     28  O   UNL     1       1.529   4.132  17.029  0.00  0.00    +0.000 OA
ATOM     29  C   UNL     1       1.860   5.930  18.484  0.00  0.00    +0.000 A 
BRANCH  22  31
ATOM     30  C   UNL     1       1.176   8.206  20.990  0.00  0.00    +0.000 C 
ATOM     31  O   UNL     1       2.197   7.654  20.167  0.00  0.00    +0.000 OA
ENDBRANCH  22  31
ENDBRANCH  21  26
ENDBRANCH  20  21
ENDBRANCH   1  20
TORSDOF 7
ENDMDL
MODEL 8
REMARK VINA RESULT:      -7.1      2.072      2.827
REMARK  Name = 
REMARK  10 active torsions:
REMARK  status: ('A' for Active; 'I' for Inactive)
REMARK    1  A    between atoms: C_1  and  O_2
REMARK    2  A    between atoms: O_2  and  C_3
REMARK    3  A    between atoms: C_5  and  C_6
REMARK    4  A    between atoms: N_7  and  C_8
REMARK    5  A    between atoms: C_8  and  C_9
REMARK    6  A    between atoms: C_9  and  N_10
REMARK    7  A    between atoms: C_11  and  C_13
REMARK    8  A    between atoms: N_15  and  C_16
REMARK    9  A    between atoms: C_25  and  O_26
REMARK   10  A    between atoms: O_26  and  C_27
REMARK                            x       y       z     vdW  Elec       q    Type
REMARK                         _______ _______ _______ _____ _____    ______ ____
ROOT
ATOM      1  N   UNL     1       1.733   6.957  20.486  0.00  0.00    +0.000 N 
ATOM      2  C   UNL     1       1.592   5.642  20.124  0.00  0.00    +0.000 C 
ATOM      3  O   UNL     1       0.821   4.865  20.681  0.00  0.00    +0.000 OA
ATOM      4  H   UNL     1       2.213   7.563  19.827  0.00  0.00    +0.000 HD
ENDROOT
BRANCH   2   5
ATOM      5  C   UNL     1       2.481   5.144  19.033  0.00  0.00    +0.000 A 
ATOM      6  C   UNL     1       3.689   5.732  19.013  0.00  0.00    +0.000 A 
ATOM      7  N   UNL     1       4.706   5.370  18.132  0.00  0.00    +0.000 N 
ATOM      8  C   UNL     1       4.491   4.311  17.230  0.00  0.00    +0.000 A 
ATOM      9  O   UNL     1       5.305   3.812  16.454  0.00  0.00    +0.000 OA
ATOM     10  C   UNL     1       3.137   3.688  17.242  0.00  0.00    +0.000 A 
ATOM     11  C   UNL     1       2.183   4.080  18.101  0.00  0.00    +0.000 A 
BRANCH   7  12
ATOM     12  C   UNL     1       5.981   6.058  18.160  0.00  0.00    +0.000 A 
ATOM     13  C   UNL     1       6.248   7.137  17.303  0.00  0.00    +0.000 A 
ATOM     14  C   UNL     1       7.467   7.822  17.345  0.00  0.00    +0.000 A 
ATOM     15  C   UNL     1       8.449   7.441  18.250  0.00  0.00    +0.000 A 
ATOM     16  C   UNL     1       8.215   6.377  19.114  0.00  0.00    +0.000 A 
ATOM     17  C   UNL     1       6.992   5.694  19.071  0.00  0.00    +0.000 A 
ENDBRANCH   7  12
BRANCH  11  18
ATOM     18  O   UNL     1       0.913   3.548  18.195  0.00  0.00    +0.000 OA
ATOM     19  C   UNL     1       0.812   2.228  18.726  0.00  0.00    +0.000 C 
ENDBRANCH  11  18
ENDBRANCH   2   5
BRANCH   1  20
ATOM     20  C   UNL     1       0.951   7.580  21.551  0.00  0.00    +0.000 C 
BRANCH  20  21
ATOM     21  C   UNL     1      -0.263   8.399  21.071  0.00  0.00    +0.000 C 
BRANCH  21  26
ATOM     22  C   UNL     1       0.749  12.467  20.360  0.00  0.00    +0.000 A 
ATOM     23  C   UNL     1       0.091  12.065  21.581  0.00  0.00    +0.000 A 
ATOM     24  C   UNL     1      -0.254  10.786  21.803  0.00  0.00    +0.000 A 
ATOM     25  C   UNL     1      -0.927  10.399  23.098  0.00  0.00    +0.000 C 
ATOM     26  N   UNL     1       0.031   9.815  20.836  0.00  0.00    +0.000 N 
ATOM     27  C   UNL     1       0.666  10.127  19.636  0.00  0.00    +0.000 A 
ATOM     28  O   UNL     1       0.940   9.315  18.755  0.00  0.00    +0.000 OA
ATOM     29  C   UNL     1       1.034  11.549  19.431  0.00  0.00    +0.000 A 
BRANCH  22  31
ATOM     30  C   UNL     1       1.462  14.409  21.539  0.00  0.00    +0.000 C 
ATOM     31  O   UNL     1       1.024  13.813  20.322  0.00  0.00    +0.000 OA
ENDBRANCH  22  31
ENDBRANCH  21  26
ENDBRANCH  20  21
ENDBRANCH   1  20
TORSDOF 7
ENDMDL
MODEL 9
REMARK VINA RESULT:      -7.0      6.614      9.975
REMARK  Name = 
REMARK  10 active torsions:
REMARK  status: ('A' for Active; 'I' for Inactive)
REMARK    1  A    between atoms: C_1  and  O_2
REMARK    2  A    between atoms: O_2  and  C_3
REMARK    3  A    between atoms: C_5  and  C_6
REMARK    4  A    between atoms: N_7  and  C_8
REMARK    5  A    between atoms: C_8  and  C_9
REMARK    6  A    between atoms: C_9  and  N_10
REMARK    7  A    between atoms: C_11  and  C_13
REMARK    8  A    between atoms: N_15  and  C_16
REMARK    9  A    between atoms: C_25  and  O_26
REMARK   10  A    between atoms: O_26  and  C_27
REMARK                            x       y       z     vdW  Elec       q    Type
REMARK                         _______ _______ _______ _____ _____    ______ ____
ROOT
ATOM      1  N   UNL     1      -0.815  11.086  19.382  0.00  0.00    +0.000 N 
ATOM      2  C   UNL     1      -1.402  11.936  18.480  0.00  0.00    +0.000 C 
ATOM      3  O   UNL     1      -0.806  12.863  17.938  0.00  0.00    +0.000 OA
ATOM      4  H   UNL     1      -1.315  10.226  19.592  0.00  0.00    +0.000 HD
ENDROOT
BRANCH   2   5
ATOM      5  C   UNL     1      -2.856  11.735  18.212  0.00  0.00    +0.000 A 
ATOM      6  C   UNL     1      -3.651  12.143  19.216  0.00  0.00    +0.000 A 
ATOM      7  N   UNL     1      -5.042  12.123  19.153  0.00  0.00    +0.000 N 
ATOM      8  C   UNL     1      -5.672  11.690  17.970  0.00  0.00    +0.000 A 
ATOM      9  O   UNL     1      -6.876  11.693  17.719  0.00  0.00    +0.000 OA
ATOM     10  C   UNL     1      -4.780  11.211  16.876  0.00  0.00    +0.000 A 
ATOM     11  C   UNL     1      -3.442  11.236  16.988  0.00  0.00    +0.000 A 
BRANCH   7  12
ATOM     12  C   UNL     1      -5.835  12.568  20.281  0.00  0.00    +0.000 A 
ATOM     13  C   UNL     1      -5.782  13.896  20.734  0.00  0.00    +0.000 A 
ATOM     14  C   UNL     1      -6.566  14.337  21.804  0.00  0.00    +0.000 A 
ATOM     15  C   UNL     1      -7.426  13.455  22.447  0.00  0.00    +0.000 A 
ATOM     16  C   UNL     1      -7.503  12.134  22.022  0.00  0.00    +0.000 A 
ATOM     17  C   UNL     1      -6.718  11.696  20.948  0.00  0.00    +0.000 A 
ENDBRANCH   7  12
BRANCH  11  18
ATOM     18  O   UNL     1      -2.544  10.832  16.022  0.00  0.00    +0.000 OA
ATOM     19  C   UNL     1      -3.095  10.379  14.786  0.00  0.00    +0.000 C 
ENDBRANCH  11  18
ENDBRANCH   2   5
BRANCH   1  20
ATOM     20  C   UNL     1       0.592  11.174  19.764  0.00  0.00    +0.000 C 
BRANCH  20  21
ATOM     21  C   UNL     1       0.846  11.685  21.196  0.00  0.00    +0.000 C 
BRANCH  21  26
ATOM     22  C   UNL     1      -2.551  13.245  23.221  0.00  0.00    +0.000 A 
ATOM     23  C   UNL     1      -2.146  11.870  23.396  0.00  0.00    +0.000 A 
ATOM     24  C   UNL     1      -1.088  11.362  22.741  0.00  0.00    +0.000 A 
ATOM     25  C   UNL     1      -0.684   9.924  22.959  0.00  0.00    +0.000 C 
ATOM     26  N   UNL     1      -0.355  12.180  21.872  0.00  0.00    +0.000 N 
ATOM     27  C   UNL     1      -0.685  13.516  21.656  0.00  0.00    +0.000 A 
ATOM     28  O   UNL     1      -0.076  14.276  20.907  0.00  0.00    +0.000 OA
ATOM     29  C   UNL     1      -1.856  14.039  22.401  0.00  0.00    +0.000 A 
BRANCH  22  31
ATOM     30  C   UNL     1      -4.401  12.495  24.518  0.00  0.00    +0.000 C 
ATOM     31  O   UNL     1      -3.649  13.576  23.978  0.00  0.00    +0.000 OA
ENDBRANCH  22  31
ENDBRANCH  21  26
ENDBRANCH  20  21
ENDBRANCH   1  20
TORSDOF 7
ENDMDL
