MODEL 1
REMARK VINA RESULT:      -8.2      0.000      0.000
REMARK  Name = 
REMARK  3 active torsions:
REMARK  status: ('A' for Active; 'I' for Inactive)
REMARK    1  A    between atoms: C_1  and  N_2
REMARK    2  A    between atoms: C_8  and  C_9
REMARK    3  A    between atoms: C_18  and  C_19
REMARK                            x       y       z     vdW  Elec       q    Type
REMARK                         _______ _______ _______ _____ _____    ______ ____
ROOT
ATOM      1  C   UNL     1       0.729   5.494  20.725  0.00  0.00    +0.000 C 
ATOM      2  N   UNL     1       2.029   5.376  20.040  0.00  0.00    +0.000 N 
ATOM      3  C   UNL     1       2.680   6.406  19.372  0.00  0.00    +0.000 A 
ATOM      4  N   UNL     1       2.225   7.781  19.324  0.00  0.00    +0.000 N 
ATOM      5  C   UNL     1       2.507   8.586  18.143  0.00  0.00    +0.000 C 
ATOM      6  C   UNL     1       1.191   9.188  17.645  0.00  0.00    +0.000 C 
ATOM      7  N   UNL     1       0.579   9.993  18.712  0.00  0.00    +0.000 NA
ATOM      8  C   UNL     1       0.286   9.170  19.902  0.00  0.00    +0.000 C 
ATOM      9  C   UNL     1       1.595   8.511  20.418  0.00  0.00    +0.000 C 
ATOM     10  N   UNL     1       3.821   6.119  18.683  0.00  0.00    +0.000 NA
ATOM     11  C   UNL     1       4.360   4.878  18.603  0.00  0.00    +0.000 A 
ATOM     12  C   UNL     1       3.736   3.838  19.287  0.00  0.00    +0.000 A 
ATOM     13  C   UNL     1       2.582   4.101  20.014  0.00  0.00    +0.000 A 
ATOM     14  O   UNL     1       2.041   3.172  20.596  0.00  0.00    +0.000 OA
ATOM     15  H   UNL     1      -0.314  10.399  18.345  0.00  0.00    +0.000 HD
ENDROOT
BRANCH   8  16
ATOM     16  C   UNL     1      -0.350  10.040  20.969  0.00  0.00    +0.000 A 
ATOM     17  C   UNL     1      -0.370   9.626  22.315  0.00  0.00    +0.000 A 
ATOM     18  C   UNL     1      -0.952  10.434  23.295  0.00  0.00    +0.000 A 
ATOM     19  C   UNL     1      -1.510  11.666  22.950  0.00  0.00    +0.000 A 
ATOM     20  C   UNL     1      -1.488  12.094  21.618  0.00  0.00    +0.000 A 
ATOM     21 BR   UNL     1      -2.239  13.786  21.152  0.00  0.00    +0.000 Br
ATOM     22  C   UNL     1      -0.913  11.285  20.631  0.00  0.00    +0.000 A 
ENDBRANCH   8  16
BRANCH  11  23
ATOM     23  C   UNL     1       5.557   4.662  17.753  0.00  0.00    +0.000 A 
ATOM     24  C   UNL     1       5.454   4.532  16.358  0.00  0.00    +0.000 A 
ATOM     25  C   UNL     1       6.619   4.394  15.606  0.00  0.00    +0.000 A 
ATOM     26  N   UNL     1       7.826   4.360  16.227  0.00  0.00    +0.000 NA
ATOM     27  C   UNL     1       7.917   4.477  17.576  0.00  0.00    +0.000 A 
ATOM     28  N   UNL     1       6.794   4.647  18.323  0.00  0.00    +0.000 NA
ENDBRANCH  11  23
TORSDOF 2
ENDMDL
MODEL 2
REMARK VINA RESULT:      -7.5      0.814      1.071
REMARK  Name = 
REMARK  3 active torsions:
REMARK  status: ('A' for Active; 'I' for Inactive)
REMARK    1  A    between atoms: C_1  and  N_2
REMARK    2  A    between atoms: C_8  and  C_9
REMARK    3  A    between atoms: C_18  and  C_19
REMARK                            x       y       z     vdW  Elec       q    Type
REMARK                         _______ _______ _______ _____ _____    ______ ____
ROOT
ATOM      1  C   UNL     1       1.081   5.649  20.724  0.00  0.00    +0.000 C 
ATOM      2  N   UNL     1       2.275   5.613  19.861  0.00  0.00    +0.000 N 
ATOM      3  C   UNL     1       2.728   6.666  19.075  0.00  0.00    +0.000 A 
ATOM      4  N   UNL     1       2.149   7.994  19.053  0.00  0.00    +0.000 N 
ATOM      5  C   UNL     1       2.185   8.768  17.820  0.00  0.00    +0.000 C 
ATOM      6  C   UNL     1       0.763   9.235  17.501  0.00  0.00    +0.000 C 
ATOM      7  N   UNL     1       0.239  10.029  18.622  0.00  0.00    +0.000 NA
ATOM      8  C   UNL     1       0.195   9.236  19.866  0.00  0.00    +0.000 C 
ATOM      9  C   UNL     1       1.617   8.713  20.205  0.00  0.00    +0.000 C 
ATOM     10  N   UNL     1       3.780   6.448  18.236  0.00  0.00    +0.000 NA
ATOM     11  C   UNL     1       4.413   5.255  18.115  0.00  0.00    +0.000 A 
ATOM     12  C   UNL     1       3.990   4.196  18.913  0.00  0.00    +0.000 A 
ATOM     13  C   UNL     1       2.931   4.390  19.792  0.00  0.00    +0.000 A 
ATOM     14  O   UNL     1       2.566   3.444  20.475  0.00  0.00    +0.000 OA
ATOM     15  H   UNL     1      -0.731  10.342  18.378  0.00  0.00    +0.000 HD
ENDROOT
BRANCH   8  16
ATOM     16  C   UNL     1      -0.359  10.093  20.988  0.00  0.00    +0.000 A 
ATOM     17  C   UNL     1      -0.383   9.614  22.312  0.00  0.00    +0.000 A 
ATOM     18  C   UNL     1      -0.889  10.410  23.344  0.00  0.00    +0.000 A 
ATOM     19  C   UNL     1      -1.365  11.693  23.071  0.00  0.00    +0.000 A 
ATOM     20  C   UNL     1      -1.338  12.185  21.762  0.00  0.00    +0.000 A 
ATOM     21 BR   UNL     1      -1.977  13.947  21.396  0.00  0.00    +0.000 Br
ATOM     22  C   UNL     1      -0.839  11.389  20.724  0.00  0.00    +0.000 A 
ENDBRANCH   8  16
BRANCH  11  23
ATOM     23  C   UNL     1       5.491   5.106  17.106  0.00  0.00    +0.000 A 
ATOM     24  C   UNL     1       6.819   4.843  17.482  0.00  0.00    +0.000 A 
ATOM     25  C   UNL     1       7.775   4.651  16.487  0.00  0.00    +0.000 A 
ATOM     26  N   UNL     1       7.422   4.748  15.180  0.00  0.00    +0.000 NA
ATOM     27  C   UNL     1       6.139   5.012  14.824  0.00  0.00    +0.000 A 
ATOM     28  N   UNL     1       5.184   5.168  15.780  0.00  0.00    +0.000 NA
ENDBRANCH  11  23
TORSDOF 2
ENDMDL
MODEL 3
REMARK VINA RESULT:      -7.3      3.936      9.014
REMARK  Name = 
REMARK  3 active torsions:
REMARK  status: ('A' for Active; 'I' for Inactive)
REMARK    1  A    between atoms: C_1  and  N_2
REMARK    2  A    between atoms: C_8  and  C_9
REMARK    3  A    between atoms: C_18  and  C_19
REMARK                            x       y       z     vdW  Elec       q    Type
REMARK                         _______ _______ _______ _____ _____    ______ ____
ROOT
ATOM      1  C   UNL     1       3.410   3.642  17.253  0.00  0.00    +0.000 C 
ATOM      2  N   UNL     1       2.949   4.864  17.936  0.00  0.00    +0.000 N 
ATOM      3  C   UNL     1       3.577   6.102  17.876  0.00  0.00    +0.000 A 
ATOM      4  N   UNL     1       4.733   6.407  17.056  0.00  0.00    +0.000 N 
ATOM      5  C   UNL     1       5.697   7.394  17.520  0.00  0.00    +0.000 C 
ATOM      6  C   UNL     1       7.091   6.763  17.481  0.00  0.00    +0.000 C 
ATOM      7  N   UNL     1       7.394   6.315  16.114  0.00  0.00    +0.000 NA
ATOM      8  C   UNL     1       6.419   5.306  15.654  0.00  0.00    +0.000 C 
ATOM      9  C   UNL     1       4.985   5.899  15.713  0.00  0.00    +0.000 C 
ATOM     10  N   UNL     1       3.102   7.114  18.656  0.00  0.00    +0.000 NA
ATOM     11  C   UNL     1       2.050   6.984  19.500  0.00  0.00    +0.000 A 
ATOM     12  C   UNL     1       1.392   5.759  19.556  0.00  0.00    +0.000 A 
ATOM     13  C   UNL     1       1.839   4.712  18.759  0.00  0.00    +0.000 A 
ATOM     14  O   UNL     1       1.256   3.640  18.832  0.00  0.00    +0.000 OA
ATOM     15  H   UNL     1       8.353   5.894  16.112  0.00  0.00    +0.000 HD
ENDROOT
BRANCH   8  16
ATOM     16  C   UNL     1       6.778   4.869  14.247  0.00  0.00    +0.000 A 
ATOM     17  C   UNL     1       7.794   5.525  13.527  0.00  0.00    +0.000 A 
ATOM     18  C   UNL     1       8.126   5.115  12.233  0.00  0.00    +0.000 A 
ATOM     19  C   UNL     1       7.457   4.040  11.646  0.00  0.00    +0.000 A 
ATOM     20  C   UNL     1       6.452   3.372  12.352  0.00  0.00    +0.000 A 
ATOM     21 BR   UNL     1       5.549   1.893  11.550  0.00  0.00    +0.000 Br
ATOM     22  C   UNL     1       6.111   3.785  13.646  0.00  0.00    +0.000 A 
ENDBRANCH   8  16
BRANCH  11  23
ATOM     23  C   UNL     1       1.673   8.127  20.369  0.00  0.00    +0.000 A 
ATOM     24  C   UNL     1       1.206   9.337  19.830  0.00  0.00    +0.000 A 
ATOM     25  C   UNL     1       0.808  10.352  20.698  0.00  0.00    +0.000 A 
ATOM     26  N   UNL     1       0.901  10.171  22.040  0.00  0.00    +0.000 NA
ATOM     27  C   UNL     1       1.361   9.002  22.554  0.00  0.00    +0.000 A 
ATOM     28  N   UNL     1       1.722   7.988  21.723  0.00  0.00    +0.000 NA
ENDBRANCH  11  23
TORSDOF 2
ENDMDL
MODEL 4
REMARK VINA RESULT:      -7.0      3.804      9.142
REMARK  Name = 
REMARK  3 active torsions:
REMARK  status: ('A' for Active; 'I' for Inactive)
REMARK    1  A    between atoms: C_1  and  N_2
REMARK    2  A    between atoms: C_8  and  C_9
REMARK    3  A    between atoms: C_18  and  C_19
REMARK                            x       y       z     vdW  Elec       q    Type
REMARK                         _______ _______ _______ _____ _____    ______ ____
ROOT
ATOM      1  C   UNL     1       1.573   8.722  22.151  0.00  0.00    +0.000 C 
ATOM      2  N   UNL     1       0.458   9.655  21.907  0.00  0.00    +0.000 N 
ATOM      3  C   UNL     1       0.080  10.145  20.663  0.00  0.00    +0.000 A 
ATOM      4  N   UNL     1       0.664   9.741  19.400  0.00  0.00    +0.000 N 
ATOM      5  C   UNL     1       0.739  10.701  18.308  0.00  0.00    +0.000 C 
ATOM      6  C   UNL     1       2.185  10.756  17.811  0.00  0.00    +0.000 C 
ATOM      7  N   UNL     1       2.612   9.417  17.381  0.00  0.00    +0.000 NA
ATOM      8  C   UNL     1       2.545   8.451  18.495  0.00  0.00    +0.000 C 
ATOM      9  C   UNL     1       1.096   8.393  19.051  0.00  0.00    +0.000 C 
ATOM     10  N   UNL     1      -0.896  11.095  20.605  0.00  0.00    +0.000 NA
ATOM     11  C   UNL     1      -1.521  11.601  21.696  0.00  0.00    +0.000 A 
ATOM     12  C   UNL     1      -1.173  11.105  22.949  0.00  0.00    +0.000 A 
ATOM     13  C   UNL     1      -0.195  10.122  23.042  0.00  0.00    +0.000 A 
ATOM     14  O   UNL     1       0.106   9.709  24.152  0.00  0.00    +0.000 OA
ATOM     15  H   UNL     1       3.601   9.482  17.041  0.00  0.00    +0.000 HD
ENDROOT
BRANCH   8  16
ATOM     16  C   UNL     1       3.003   7.090  18.006  0.00  0.00    +0.000 A 
ATOM     17  C   UNL     1       4.196   6.954  17.272  0.00  0.00    +0.000 A 
ATOM     18  C   UNL     1       4.618   5.697  16.829  0.00  0.00    +0.000 A 
ATOM     19  C   UNL     1       3.862   4.561  17.122  0.00  0.00    +0.000 A 
ATOM     20  C   UNL     1       2.679   4.679  17.859  0.00  0.00    +0.000 A 
ATOM     21 BR   UNL     1       1.656   3.120  18.270  0.00  0.00    +0.000 Br
ATOM     22  C   UNL     1       2.250   5.937  18.298  0.00  0.00    +0.000 A 
ENDBRANCH   8  16
BRANCH  11  23
ATOM     23  C   UNL     1      -2.507  12.696  21.522  0.00  0.00    +0.000 A 
ATOM     24  C   UNL     1      -3.562  12.597  20.599  0.00  0.00    +0.000 A 
ATOM     25  C   UNL     1      -4.492  13.631  20.526  0.00  0.00    +0.000 A 
ATOM     26  N   UNL     1      -4.355  14.724  21.320  0.00  0.00    +0.000 NA
ATOM     27  C   UNL     1      -3.329  14.817  22.203  0.00  0.00    +0.000 A 
ATOM     28  N   UNL     1      -2.430  13.803  22.313  0.00  0.00    +0.000 NA
ENDBRANCH  11  23
TORSDOF 2
ENDMDL
MODEL 5
REMARK VINA RESULT:      -6.9      2.597      4.215
REMARK  Name = 
REMARK  3 active torsions:
REMARK  status: ('A' for Active; 'I' for Inactive)
REMARK    1  A    between atoms: C_1  and  N_2
REMARK    2  A    between atoms: C_8  and  C_9
REMARK    3  A    between atoms: C_18  and  C_19
REMARK                            x       y       z     vdW  Elec       q    Type
REMARK                         _______ _______ _______ _____ _____    ______ ____
ROOT
ATOM      1  C   UNL     1       1.454  10.405  18.678  0.00  0.00    +0.000 C 
ATOM      2  N   UNL     1       1.706   8.981  18.966  0.00  0.00    +0.000 N 
ATOM      3  C   UNL     1       1.263   8.301  20.093  0.00  0.00    +0.000 A 
ATOM      4  N   UNL     1       0.403   8.861  21.116  0.00  0.00    +0.000 N 
ATOM      5  C   UNL     1       0.541   8.406  22.493  0.00  0.00    +0.000 C 
ATOM      6  C   UNL     1       0.723   9.631  23.391  0.00  0.00    +0.000 C 
ATOM      7  N   UNL     1      -0.427  10.535  23.234  0.00  0.00    +0.000 NA
ATOM      8  C   UNL     1      -0.554  11.002  21.840  0.00  0.00    +0.000 C 
ATOM      9  C   UNL     1      -0.705   9.782  20.891  0.00  0.00    +0.000 C 
ATOM     10  N   UNL     1       1.675   7.015  20.283  0.00  0.00    +0.000 NA
ATOM     11  C   UNL     1       2.503   6.356  19.436  0.00  0.00    +0.000 A 
ATOM     12  C   UNL     1       2.937   7.013  18.288  0.00  0.00    +0.000 A 
ATOM     13  C   UNL     1       2.521   8.318  18.056  0.00  0.00    +0.000 A 
ATOM     14  O   UNL     1       2.924   8.883  17.049  0.00  0.00    +0.000 OA
ATOM     15  H   UNL     1      -0.282  11.361  23.862  0.00  0.00    +0.000 HD
ENDROOT
BRANCH   8  16
ATOM     16  C   UNL     1      -1.744  11.935  21.730  0.00  0.00    +0.000 A 
ATOM     17  C   UNL     1      -1.979  12.665  20.549  0.00  0.00    +0.000 A 
ATOM     18  C   UNL     1      -3.080  13.519  20.450  0.00  0.00    +0.000 A 
ATOM     19  C   UNL     1      -3.966  13.647  21.521  0.00  0.00    +0.000 A 
ATOM     20  C   UNL     1      -3.752  12.921  22.696  0.00  0.00    +0.000 A 
ATOM     21 BR   UNL     1      -4.975  13.089  24.153  0.00  0.00    +0.000 Br
ATOM     22  C   UNL     1      -2.645  12.070  22.803  0.00  0.00    +0.000 A 
ENDBRANCH   8  16
BRANCH  11  23
ATOM     23  C   UNL     1       2.958   4.987  19.786  0.00  0.00    +0.000 A 
ATOM     24  C   UNL     1       2.277   4.208  20.736  0.00  0.00    +0.000 A 
ATOM     25  C   UNL     1       2.715   2.907  20.977  0.00  0.00    +0.000 A 
ATOM     26  N   UNL     1       3.798   2.423  20.318  0.00  0.00    +0.000 NA
ATOM     27  C   UNL     1       4.456   3.185  19.408  0.00  0.00    +0.000 A 
ATOM     28  N   UNL     1       4.024   4.445  19.134  0.00  0.00    +0.000 NA
ENDBRANCH  11  23
TORSDOF 2
ENDMDL
MODEL 6
REMARK VINA RESULT:      -6.9      3.948      9.178
REMARK  Name = 
REMARK  3 active torsions:
REMARK  status: ('A' for Active; 'I' for Inactive)
REMARK    1  A    between atoms: C_1  and  N_2
REMARK    2  A    between atoms: C_8  and  C_9
REMARK    3  A    between atoms: C_18  and  C_19
REMARK                            x       y       z     vdW  Elec       q    Type
REMARK                         _______ _______ _______ _____ _____    ______ ____
ROOT
ATOM      1  C   UNL     1       1.588   8.695  22.164  0.00  0.00    +0.000 C 
ATOM      2  N   UNL     1       0.471   9.625  21.922  0.00  0.00    +0.000 N 
ATOM      3  C   UNL     1       0.075  10.095  20.675  0.00  0.00    +0.000 A 
ATOM      4  N   UNL     1       0.642   9.672  19.410  0.00  0.00    +0.000 N 
ATOM      5  C   UNL     1       0.703  10.616  18.303  0.00  0.00    +0.000 C 
ATOM      6  C   UNL     1       2.142  10.663  17.786  0.00  0.00    +0.000 C 
ATOM      7  N   UNL     1       2.563   9.317  17.371  0.00  0.00    +0.000 NA
ATOM      8  C   UNL     1       2.511   8.368  18.500  0.00  0.00    +0.000 C 
ATOM      9  C   UNL     1       1.070   8.318  19.076  0.00  0.00    +0.000 C 
ATOM     10  N   UNL     1      -0.901  11.045  20.616  0.00  0.00    +0.000 NA
ATOM     11  C   UNL     1      -1.510  11.568  21.708  0.00  0.00    +0.000 A 
ATOM     12  C   UNL     1      -1.146  11.091  22.963  0.00  0.00    +0.000 A 
ATOM     13  C   UNL     1      -0.167  10.109  23.058  0.00  0.00    +0.000 A 
ATOM     14  O   UNL     1       0.149   9.712  24.170  0.00  0.00    +0.000 OA
ATOM     15  H   UNL     1       3.547   9.376  17.016  0.00  0.00    +0.000 HD
ENDROOT
BRANCH   8  16
ATOM     16  C   UNL     1       2.961   6.999  18.026  0.00  0.00    +0.000 A 
ATOM     17  C   UNL     1       2.162   5.862  18.251  0.00  0.00    +0.000 A 
ATOM     18  C   UNL     1       2.578   4.604  17.807  0.00  0.00    +0.000 A 
ATOM     19  C   UNL     1       3.788   4.466  17.124  0.00  0.00    +0.000 A 
ATOM     20  C   UNL     1       4.586   5.588  16.884  0.00  0.00    +0.000 A 
ATOM     21 BR   UNL     1       6.233   5.397  15.936  0.00  0.00    +0.000 Br
ATOM     22  C   UNL     1       4.177   6.849  17.333  0.00  0.00    +0.000 A 
ENDBRANCH   8  16
BRANCH  11  23
ATOM     23  C   UNL     1      -2.499  12.661  21.531  0.00  0.00    +0.000 A 
ATOM     24  C   UNL     1      -3.481  12.609  20.527  0.00  0.00    +0.000 A 
ATOM     25  C   UNL     1      -4.420  13.635  20.451  0.00  0.00    +0.000 A 
ATOM     26  N   UNL     1      -4.359  14.676  21.320  0.00  0.00    +0.000 NA
ATOM     27  C   UNL     1      -3.402  14.724  22.281  0.00  0.00    +0.000 A 
ATOM     28  N   UNL     1      -2.498  13.715  22.394  0.00  0.00    +0.000 NA
ENDBRANCH  11  23
TORSDOF 2
ENDMDL
MODEL 7
REMARK VINA RESULT:      -6.9      4.147      9.561
REMARK  Name = 
REMARK  3 active torsions:
REMARK  status: ('A' for Active; 'I' for Inactive)
REMARK    1  A    between atoms: C_1  and  N_2
REMARK    2  A    between atoms: C_8  and  C_9
REMARK    3  A    between atoms: C_18  and  C_19
REMARK                            x       y       z     vdW  Elec       q    Type
REMARK                         _______ _______ _______ _____ _____    ______ ____
ROOT
ATOM      1  C   UNL     1      -1.134   9.632  17.641  0.00  0.00    +0.000 C 
ATOM      2  N   UNL     1      -1.154  10.704  18.652  0.00  0.00    +0.000 N 
ATOM      3  C   UNL     1      -0.354  10.751  19.787  0.00  0.00    +0.000 A 
ATOM      4  N   UNL     1       0.692   9.799  20.105  0.00  0.00    +0.000 N 
ATOM      5  C   UNL     1       0.982   9.496  21.499  0.00  0.00    +0.000 C 
ATOM      6  C   UNL     1       0.931   7.978  21.684  0.00  0.00    +0.000 C 
ATOM      7  N   UNL     1       1.897   7.336  20.780  0.00  0.00    +0.000 NA
ATOM      8  C   UNL     1       1.591   7.638  19.368  0.00  0.00    +0.000 C 
ATOM      9  C   UNL     1       1.598   9.175  19.148  0.00  0.00    +0.000 C 
ATOM     10  N   UNL     1      -0.567  11.745  20.696  0.00  0.00    +0.000 NA
ATOM     11  C   UNL     1      -1.525  12.694  20.562  0.00  0.00    +0.000 A 
ATOM     12  C   UNL     1      -2.320  12.679  19.420  0.00  0.00    +0.000 A 
ATOM     13  C   UNL     1      -2.116  11.690  18.465  0.00  0.00    +0.000 A 
ATOM     14  O   UNL     1      -2.833  11.685  17.475  0.00  0.00    +0.000 OA
ATOM     15  H   UNL     1       1.848   6.300  20.930  0.00  0.00    +0.000 HD
ENDROOT
BRANCH   8  16
ATOM     16  C   UNL     1       2.606   6.949  18.477  0.00  0.00    +0.000 A 
ATOM     17  C   UNL     1       3.515   7.701  17.708  0.00  0.00    +0.000 A 
ATOM     18  C   UNL     1       4.453   7.062  16.893  0.00  0.00    +0.000 A 
ATOM     19  C   UNL     1       4.505   5.668  16.843  0.00  0.00    +0.000 A 
ATOM     20  C   UNL     1       3.615   4.908  17.608  0.00  0.00    +0.000 A 
ATOM     21 BR   UNL     1       3.698   3.001  17.548  0.00  0.00    +0.000 Br
ATOM     22  C   UNL     1       2.668   5.544  18.421  0.00  0.00    +0.000 A 
ENDBRANCH   8  16
BRANCH  11  23
ATOM     23  C   UNL     1      -1.727  13.678  21.656  0.00  0.00    +0.000 A 
ATOM     24  C   UNL     1      -1.103  13.526  22.905  0.00  0.00    +0.000 A 
ATOM     25  C   UNL     1      -1.281  14.515  23.871  0.00  0.00    +0.000 A 
ATOM     26  N   UNL     1      -2.069  15.587  23.606  0.00  0.00    +0.000 NA
ATOM     27  C   UNL     1      -2.676  15.723  22.400  0.00  0.00    +0.000 A 
ATOM     28  N   UNL     1      -2.487  14.786  21.432  0.00  0.00    +0.000 NA
ENDBRANCH  11  23
TORSDOF 2
ENDMDL
MODEL 8
REMARK VINA RESULT:      -6.8      3.467      5.903
REMARK  Name = 
REMARK  3 active torsions:
REMARK  status: ('A' for Active; 'I' for Inactive)
REMARK    1  A    between atoms: C_1  and  N_2
REMARK    2  A    between atoms: C_8  and  C_9
REMARK    3  A    between atoms: C_18  and  C_19
REMARK                            x       y       z     vdW  Elec       q    Type
REMARK                         _______ _______ _______ _____ _____    ______ ____
ROOT
ATOM      1  C   UNL     1      -1.525  11.248  23.089  0.00  0.00    +0.000 C 
ATOM      2  N   UNL     1      -0.621  10.598  22.123  0.00  0.00    +0.000 N 
ATOM      3  C   UNL     1      -0.674  10.758  20.743  0.00  0.00    +0.000 A 
ATOM      4  N   UNL     1      -1.567  11.661  20.046  0.00  0.00    +0.000 N 
ATOM      5  C   UNL     1      -2.048  11.305  18.718  0.00  0.00    +0.000 C 
ATOM      6  C   UNL     1      -3.575  11.399  18.716  0.00  0.00    +0.000 C 
ATOM      7  N   UNL     1      -3.989  12.758  19.093  0.00  0.00    +0.000 NA
ATOM      8  C   UNL     1      -3.508  13.108  20.444  0.00  0.00    +0.000 C 
ATOM      9  C   UNL     1      -1.961  12.990  20.496  0.00  0.00    +0.000 C 
ATOM     10  N   UNL     1       0.152  10.000  19.967  0.00  0.00    +0.000 NA
ATOM     11  C   UNL     1       1.024   9.088  20.462  0.00  0.00    +0.000 A 
ATOM     12  C   UNL     1       1.109   8.932  21.842  0.00  0.00    +0.000 A 
ATOM     13  C   UNL     1       0.294   9.702  22.663  0.00  0.00    +0.000 A 
ATOM     14  O   UNL     1       0.374   9.542  23.872  0.00  0.00    +0.000 OA
ATOM     15  H   UNL     1      -5.036  12.798  19.079  0.00  0.00    +0.000 HD
ENDROOT
BRANCH   8  16
ATOM     16  C   UNL     1      -3.966  14.512  20.792  0.00  0.00    +0.000 A 
ATOM     17  C   UNL     1      -3.127  15.383  21.512  0.00  0.00    +0.000 A 
ATOM     18  C   UNL     1      -3.551  16.678  21.824  0.00  0.00    +0.000 A 
ATOM     19  C   UNL     1      -4.808  17.123  21.413  0.00  0.00    +0.000 A 
ATOM     20  C   UNL     1      -5.648  16.272  20.688  0.00  0.00    +0.000 A 
ATOM     21 BR   UNL     1      -7.361  16.889  20.114  0.00  0.00    +0.000 Br
ATOM     22  C   UNL     1      -5.231  14.971  20.379  0.00  0.00    +0.000 A 
ENDBRANCH   8  16
BRANCH  11  23
ATOM     23  C   UNL     1       1.812   8.254  19.520  0.00  0.00    +0.000 A 
ATOM     24  C   UNL     1       2.192   8.734  18.255  0.00  0.00    +0.000 A 
ATOM     25  C   UNL     1       2.985   7.929  17.440  0.00  0.00    +0.000 A 
ATOM     26  N   UNL     1       3.354   6.693  17.862  0.00  0.00    +0.000 NA
ATOM     27  C   UNL     1       2.976   6.232  19.081  0.00  0.00    +0.000 A 
ATOM     28  N   UNL     1       2.231   7.017  19.905  0.00  0.00    +0.000 NA
ENDBRANCH  11  23
TORSDOF 2
ENDMDL
MODEL 9
REMARK VINA RESULT:      -6.8      3.578      5.632
REMARK  Name = 
REMARK  3 active torsions:
REMARK  status: ('A' for Active; 'I' for Inactive)
REMARK    1  A    between atoms: C_1  and  N_2
REMARK    2  A    between atoms: C_8  and  C_9
REMARK    3  A    between atoms: C_18  and  C_19
REMARK                            x       y       z     vdW  Elec       q    Type
REMARK                         _______ _______ _______ _____ _____    ______ ____
ROOT
ATOM      1  C   UNL     1      -0.529  11.743  22.537  0.00  0.00    +0.000 C 
ATOM      2  N   UNL     1       0.189  10.637  21.880  0.00  0.00    +0.000 N 
ATOM      3  C   UNL     1       0.535  10.592  20.535  0.00  0.00    +0.000 A 
ATOM      4  N   UNL     1       0.324  11.669  19.588  0.00  0.00    +0.000 N 
ATOM      5  C   UNL     1       0.058  11.350  18.192  0.00  0.00    +0.000 C 
ATOM      6  C   UNL     1      -1.222  12.072  17.767  0.00  0.00    +0.000 C 
ATOM      7  N   UNL     1      -1.065  13.520  17.969  0.00  0.00    +0.000 NA
ATOM      8  C   UNL     1      -0.808  13.837  19.388  0.00  0.00    +0.000 C 
ATOM      9  C   UNL     1       0.468  13.093  19.867  0.00  0.00    +0.000 C 
ATOM     10  N   UNL     1       1.094   9.451  20.042  0.00  0.00    +0.000 NA
ATOM     11  C   UNL     1       1.329   8.344  20.788  0.00  0.00    +0.000 A 
ATOM     12  C   UNL     1       1.013   8.378  22.143  0.00  0.00    +0.000 A 
ATOM     13  C   UNL     1       0.459   9.533  22.681  0.00  0.00    +0.000 A 
ATOM     14  O   UNL     1       0.176   9.540  23.871  0.00  0.00    +0.000 OA
ATOM     15  H   UNL     1      -1.950  13.992  17.666  0.00  0.00    +0.000 HD
ENDROOT
BRANCH   8  16
ATOM     16  C   UNL     1      -0.662  15.339  19.547  0.00  0.00    +0.000 A 
ATOM     17  C   UNL     1      -0.865  15.951  20.799  0.00  0.00    +0.000 A 
ATOM     18  C   UNL     1      -0.723  17.333  20.943  0.00  0.00    +0.000 A 
ATOM     19  C   UNL     1      -0.367  18.120  19.846  0.00  0.00    +0.000 A 
ATOM     20  C   UNL     1      -0.153  17.524  18.599  0.00  0.00    +0.000 A 
ATOM     21 BR   UNL     1       0.348  18.602  17.105  0.00  0.00    +0.000 Br
ATOM     22  C   UNL     1      -0.301  16.140  18.449  0.00  0.00    +0.000 A 
ENDBRANCH   8  16
BRANCH  11  23
ATOM     23  C   UNL     1       1.860   7.125  20.129  0.00  0.00    +0.000 A 
ATOM     24  C   UNL     1       2.490   7.184  18.874  0.00  0.00    +0.000 A 
ATOM     25  C   UNL     1       3.024   6.016  18.334  0.00  0.00    +0.000 A 
ATOM     26  N   UNL     1       2.908   4.843  19.006  0.00  0.00    +0.000 NA
ATOM     27  C   UNL     1       2.290   4.792  20.214  0.00  0.00    +0.000 A 
ATOM     28  N   UNL     1       1.792   5.927  20.773  0.00  0.00    +0.000 NA
ENDBRANCH  11  23
TORSDOF 2
ENDMDL
