MODEL 1
REMARK VINA RESULT:      -8.1      0.000      0.000
REMARK  Name = 
REMARK  9 active torsions:
REMARK  status: ('A' for Active; 'I' for Inactive)
REMARK    1  A    between atoms: C_1  and  C_2
REMARK    2  A    between atoms: C_5  and  N_6
REMARK    3  A    between atoms: C_8  and  C_9
REMARK    4  A    between atoms: C_9  and  O_10
REMARK    5  A    between atoms: C_11  and  C_12
REMARK    6  A    between atoms: N_14  and  C_15
REMARK    7  A    between atoms: C_15  and  C_16
REMARK    8  A    between atoms: C_16  and  C_17
REMARK    9  A    between atoms: C_17  and  C_18
REMARK                            x       y       z     vdW  Elec       q    Type
REMARK                         _______ _______ _______ _____ _____    ______ ____
ROOT
ATOM      1  N   UNL     1       8.333   8.638  18.240  0.00  0.00    +0.000 N 
ATOM      2  N   UNL     1       8.603   7.690  19.181  0.00  0.00    +0.000 NA
ATOM      3  C   UNL     1       8.039   6.590  18.650  0.00  0.00    +0.000 A 
ATOM      4  C   UNL     1       7.505   6.894  17.379  0.00  0.00    +0.000 A 
ATOM      5  N   UNL     1       7.680   8.202  17.126  0.00  0.00    +0.000 NA
ENDROOT
BRANCH   1  10
ATOM      6  C   UNL     1       9.807  14.127  18.953  0.00  0.00    +0.000 C 
ATOM      7  C   UNL     1       9.439  12.691  18.724  0.00  0.00    +0.000 A 
ATOM      8  C   UNL     1       8.582  12.315  17.680  0.00  0.00    +0.000 A 
ATOM      9  C   UNL     1       8.224  10.973  17.498  0.00  0.00    +0.000 A 
ATOM     10  C   UNL     1       8.717   9.997  18.372  0.00  0.00    +0.000 A 
ATOM     11  C   UNL     1       9.595  10.369  19.403  0.00  0.00    +0.000 A 
ATOM     12  C   UNL     1       9.956  11.705  19.571  0.00  0.00    +0.000 A 
ENDBRANCH   1  10
BRANCH   4  13
ATOM     13  C   UNL     1       6.860   5.998  16.418  0.00  0.00    +0.000 C 
ATOM     14  O   UNL     1       7.329   5.774  15.307  0.00  0.00    +0.000 OA
ATOM     15  N   UNL     1       5.677   5.458  16.870  0.00  0.00    +0.000 N 
ATOM     16  H   UNL     1       5.400   5.706  17.815  0.00  0.00    +0.000 HD
BRANCH  15  17
ATOM     17  C   UNL     1       4.863   4.574  16.068  0.00  0.00    +0.000 C 
BRANCH  17  18
ATOM     18  C   UNL     1       3.710   3.970  16.870  0.00  0.00    +0.000 C 
BRANCH  18  19
ATOM     19  C   UNL     1       4.199   3.528  18.254  0.00  0.00    +0.000 C 
BRANCH  19  20
ATOM     20  C   UNL     1       3.146   3.382  19.329  0.00  0.00    +0.000 A 
ATOM     21  C   UNL     1       3.487   2.707  20.513  0.00  0.00    +0.000 A 
ATOM     22  C   UNL     1       2.560   2.550  21.545  0.00  0.00    +0.000 A 
ATOM     23  C   UNL     1       1.279   3.080  21.416  0.00  0.00    +0.000 A 
ATOM     24  C   UNL     1       0.936   3.784  20.262  0.00  0.00    +0.000 A 
ATOM     25  C   UNL     1       1.866   3.943  19.230  0.00  0.00    +0.000 A 
ENDBRANCH  19  20
ENDBRANCH  18  19
ENDBRANCH  17  18
ENDBRANCH  15  17
ENDBRANCH   4  13
BRANCH   3  26
ATOM     26  C   UNL     1       8.042   5.277  19.362  0.00  0.00    +0.000 C 
BRANCH  26  27
ATOM     27  O   UNL     1       8.068   5.426  20.784  0.00  0.00    +0.000 OA
ATOM     28  H   UNL     1       7.897   4.532  21.136  0.00  0.00    +0.000 HD
ENDBRANCH  26  27
ENDBRANCH   3  26
TORSDOF 8
ENDMDL
MODEL 2
REMARK VINA RESULT:      -8.0      0.871      1.427
REMARK  Name = 
REMARK  9 active torsions:
REMARK  status: ('A' for Active; 'I' for Inactive)
REMARK    1  A    between atoms: C_1  and  C_2
REMARK    2  A    between atoms: C_5  and  N_6
REMARK    3  A    between atoms: C_8  and  C_9
REMARK    4  A    between atoms: C_9  and  O_10
REMARK    5  A    between atoms: C_11  and  C_12
REMARK    6  A    between atoms: N_14  and  C_15
REMARK    7  A    between atoms: C_15  and  C_16
REMARK    8  A    between atoms: C_16  and  C_17
REMARK    9  A    between atoms: C_17  and  C_18
REMARK                            x       y       z     vdW  Elec       q    Type
REMARK                         _______ _______ _______ _____ _____    ______ ____
ROOT
ATOM      1  N   UNL     1       8.390   8.852  18.174  0.00  0.00    +0.000 N 
ATOM      2  N   UNL     1       8.567   7.967  19.195  0.00  0.00    +0.000 NA
ATOM      3  C   UNL     1       8.018   6.843  18.699  0.00  0.00    +0.000 A 
ATOM      4  C   UNL     1       7.587   7.068  17.373  0.00  0.00    +0.000 A 
ATOM      5  N   UNL     1       7.811   8.351  17.046  0.00  0.00    +0.000 NA
ENDROOT
BRANCH   1  10
ATOM      6  C   UNL     1      10.054  14.333  18.259  0.00  0.00    +0.000 C 
ATOM      7  C   UNL     1       9.614  12.898  18.282  0.00  0.00    +0.000 A 
ATOM      8  C   UNL     1      10.314  11.931  19.015  0.00  0.00    +0.000 A 
ATOM      9  C   UNL     1       9.908  10.591  19.003  0.00  0.00    +0.000 A 
ATOM     10  C   UNL     1       8.795  10.209  18.242  0.00  0.00    +0.000 A 
ATOM     11  C   UNL     1       8.078  11.181  17.527  0.00  0.00    +0.000 A 
ATOM     12  C   UNL     1       8.482  12.516  17.554  0.00  0.00    +0.000 A 
ENDBRANCH   1  10
BRANCH   4  13
ATOM     13  C   UNL     1       6.994   6.118  16.430  0.00  0.00    +0.000 C 
ATOM     14  O   UNL     1       7.595   5.705  15.445  0.00  0.00    +0.000 OA
ATOM     15  N   UNL     1       5.702   5.761  16.742  0.00  0.00    +0.000 N 
ATOM     16  H   UNL     1       5.316   6.158  17.593  0.00  0.00    +0.000 HD
BRANCH  15  17
ATOM     17  C   UNL     1       4.920   4.861  15.925  0.00  0.00    +0.000 C 
BRANCH  17  18
ATOM     18  C   UNL     1       3.844   4.137  16.736  0.00  0.00    +0.000 C 
BRANCH  18  19
ATOM     19  C   UNL     1       3.254   5.077  17.793  0.00  0.00    +0.000 C 
BRANCH  19  20
ATOM     20  C   UNL     1       2.506   4.426  18.935  0.00  0.00    +0.000 A 
ATOM     21  C   UNL     1       1.578   3.414  18.637  0.00  0.00    +0.000 A 
ATOM     22  C   UNL     1       0.866   2.769  19.649  0.00  0.00    +0.000 A 
ATOM     23  C   UNL     1       1.080   3.116  20.980  0.00  0.00    +0.000 A 
ATOM     24  C   UNL     1       2.023   4.094  21.296  0.00  0.00    +0.000 A 
ATOM     25  C   UNL     1       2.738   4.737  20.281  0.00  0.00    +0.000 A 
ENDBRANCH  19  20
ENDBRANCH  18  19
ENDBRANCH  17  18
ENDBRANCH  15  17
ENDBRANCH   4  13
BRANCH   3  26
ATOM     26  C   UNL     1       7.939   5.583  19.497  0.00  0.00    +0.000 C 
BRANCH  26  27
ATOM     27  O   UNL     1       6.591   5.196  19.777  0.00  0.00    +0.000 OA
ATOM     28  H   UNL     1       6.256   5.873  20.395  0.00  0.00    +0.000 HD
ENDBRANCH  26  27
ENDBRANCH   3  26
TORSDOF 8
ENDMDL
MODEL 3
REMARK VINA RESULT:      -7.9      0.647      1.133
REMARK  Name = 
REMARK  9 active torsions:
REMARK  status: ('A' for Active; 'I' for Inactive)
REMARK    1  A    between atoms: C_1  and  C_2
REMARK    2  A    between atoms: C_5  and  N_6
REMARK    3  A    between atoms: C_8  and  C_9
REMARK    4  A    between atoms: C_9  and  O_10
REMARK    5  A    between atoms: C_11  and  C_12
REMARK    6  A    between atoms: N_14  and  C_15
REMARK    7  A    between atoms: C_15  and  C_16
REMARK    8  A    between atoms: C_16  and  C_17
REMARK    9  A    between atoms: C_17  and  C_18
REMARK                            x       y       z     vdW  Elec       q    Type
REMARK                         _______ _______ _______ _____ _____    ______ ____
ROOT
ATOM      1  N   UNL     1       8.217   8.746  18.198  0.00  0.00    +0.000 N 
ATOM      2  N   UNL     1       8.603   7.711  18.997  0.00  0.00    +0.000 NA
ATOM      3  C   UNL     1       7.871   6.690  18.517  0.00  0.00    +0.000 A 
ATOM      4  C   UNL     1       7.117   7.125  17.405  0.00  0.00    +0.000 A 
ATOM      5  N   UNL     1       7.327   8.438  17.213  0.00  0.00    +0.000 NA
ENDROOT
BRANCH   1  10
ATOM      6  C   UNL     1      10.147  14.085  18.966  0.00  0.00    +0.000 C 
ATOM      7  C   UNL     1       9.657  12.688  18.722  0.00  0.00    +0.000 A 
ATOM      8  C   UNL     1       8.737  12.404  17.704  0.00  0.00    +0.000 A 
ATOM      9  C   UNL     1       8.267  11.099  17.508  0.00  0.00    +0.000 A 
ATOM     10  C   UNL     1       8.713  10.067  18.344  0.00  0.00    +0.000 A 
ATOM     11  C   UNL     1       9.653  10.346  19.348  0.00  0.00    +0.000 A 
ATOM     12  C   UNL     1      10.125  11.645  19.530  0.00  0.00    +0.000 A 
ENDBRANCH   1  10
BRANCH   4  13
ATOM     13  C   UNL     1       6.233   6.346  16.536  0.00  0.00    +0.000 C 
ATOM     14  O   UNL     1       5.543   6.863  15.664  0.00  0.00    +0.000 OA
ATOM     15  N   UNL     1       6.236   4.997  16.808  0.00  0.00    +0.000 N 
ATOM     16  H   UNL     1       6.862   4.686  17.545  0.00  0.00    +0.000 HD
BRANCH  15  17
ATOM     17  C   UNL     1       5.411   4.052  16.091  0.00  0.00    +0.000 C 
BRANCH  17  18
ATOM     18  C   UNL     1       4.444   3.315  17.018  0.00  0.00    +0.000 C 
BRANCH  18  19
ATOM     19  C   UNL     1       3.478   4.307  17.676  0.00  0.00    +0.000 C 
BRANCH  19  20
ATOM     20  C   UNL     1       2.812   3.855  18.956  0.00  0.00    +0.000 A 
ATOM     21  C   UNL     1       1.476   4.225  19.183  0.00  0.00    +0.000 A 
ATOM     22  C   UNL     1       0.806   3.829  20.342  0.00  0.00    +0.000 A 
ATOM     23  C   UNL     1       1.457   3.042  21.287  0.00  0.00    +0.000 A 
ATOM     24  C   UNL     1       2.771   2.636  21.061  0.00  0.00    +0.000 A 
ATOM     25  C   UNL     1       3.441   3.031  19.898  0.00  0.00    +0.000 A 
ENDBRANCH  19  20
ENDBRANCH  18  19
ENDBRANCH  17  18
ENDBRANCH  15  17
ENDBRANCH   4  13
BRANCH   3  26
ATOM     26  C   UNL     1       7.926   5.325  19.121  0.00  0.00    +0.000 C 
BRANCH  26  27
ATOM     27  O   UNL     1       7.936   5.358  20.550  0.00  0.00    +0.000 OA
ATOM     28  H   UNL     1       8.708   5.905  20.786  0.00  0.00    +0.000 HD
ENDBRANCH  26  27
ENDBRANCH   3  26
TORSDOF 8
ENDMDL
MODEL 4
REMARK VINA RESULT:      -7.7      1.556      1.678
REMARK  Name = 
REMARK  9 active torsions:
REMARK  status: ('A' for Active; 'I' for Inactive)
REMARK    1  A    between atoms: C_1  and  C_2
REMARK    2  A    between atoms: C_5  and  N_6
REMARK    3  A    between atoms: C_8  and  C_9
REMARK    4  A    between atoms: C_9  and  O_10
REMARK    5  A    between atoms: C_11  and  C_12
REMARK    6  A    between atoms: N_14  and  C_15
REMARK    7  A    between atoms: C_15  and  C_16
REMARK    8  A    between atoms: C_16  and  C_17
REMARK    9  A    between atoms: C_17  and  C_18
REMARK                            x       y       z     vdW  Elec       q    Type
REMARK                         _______ _______ _______ _____ _____    ______ ____
ROOT
ATOM      1  N   UNL     1       8.256   8.819  18.241  0.00  0.00    +0.000 N 
ATOM      2  N   UNL     1       8.600   7.701  18.940  0.00  0.00    +0.000 NA
ATOM      3  C   UNL     1       7.771   6.775  18.424  0.00  0.00    +0.000 A 
ATOM      4  C   UNL     1       7.001   7.348  17.389  0.00  0.00    +0.000 A 
ATOM      5  N   UNL     1       7.300   8.653  17.284  0.00  0.00    +0.000 NA
ENDROOT
BRANCH   1  10
ATOM      6  C   UNL     1      10.604  13.937  19.296  0.00  0.00    +0.000 C 
ATOM      7  C   UNL     1      10.006  12.598  18.977  0.00  0.00    +0.000 A 
ATOM      8  C   UNL     1       9.091  12.439  17.928  0.00  0.00    +0.000 A 
ATOM      9  C   UNL     1       8.519  11.188  17.662  0.00  0.00    +0.000 A 
ATOM     10  C   UNL     1       8.856  10.086  18.458  0.00  0.00    +0.000 A 
ATOM     11  C   UNL     1       9.791  10.240  19.493  0.00  0.00    +0.000 A 
ATOM     12  C   UNL     1      10.365  11.486  19.745  0.00  0.00    +0.000 A 
ENDBRANCH   1  10
BRANCH   4  13
ATOM     13  C   UNL     1       6.021   6.704  16.512  0.00  0.00    +0.000 C 
ATOM     14  O   UNL     1       4.836   7.022  16.502  0.00  0.00    +0.000 OA
ATOM     15  N   UNL     1       6.550   5.703  15.729  0.00  0.00    +0.000 N 
ATOM     16  H   UNL     1       7.549   5.543  15.815  0.00  0.00    +0.000 HD
BRANCH  15  17
ATOM     17  C   UNL     1       5.751   4.918  14.818  0.00  0.00    +0.000 C 
BRANCH  17  18
ATOM     18  C   UNL     1       5.298   3.598  15.442  0.00  0.00    +0.000 C 
BRANCH  18  19
ATOM     19  C   UNL     1       5.075   3.772  16.949  0.00  0.00    +0.000 C 
BRANCH  19  20
ATOM     20  C   UNL     1       3.689   3.462  17.468  0.00  0.00    +0.000 A 
ATOM     21  C   UNL     1       3.426   2.168  17.946  0.00  0.00    +0.000 A 
ATOM     22  C   UNL     1       2.168   1.827  18.447  0.00  0.00    +0.000 A 
ATOM     23  C   UNL     1       1.156   2.780  18.492  0.00  0.00    +0.000 A 
ATOM     24  C   UNL     1       1.411   4.080  18.056  0.00  0.00    +0.000 A 
ATOM     25  C   UNL     1       2.672   4.422  17.557  0.00  0.00    +0.000 A 
ENDBRANCH  19  20
ENDBRANCH  18  19
ENDBRANCH  17  18
ENDBRANCH  15  17
ENDBRANCH   4  13
BRANCH   3  26
ATOM     26  C   UNL     1       7.752   5.367  18.921  0.00  0.00    +0.000 C 
BRANCH  26  27
ATOM     27  O   UNL     1       8.209   4.432  17.940  0.00  0.00    +0.000 OA
ATOM     28  H   UNL     1       7.531   4.448  17.239  0.00  0.00    +0.000 HD
ENDBRANCH  26  27
ENDBRANCH   3  26
TORSDOF 8
ENDMDL
MODEL 5
REMARK VINA RESULT:      -7.7      1.845      9.116
REMARK  Name = 
REMARK  9 active torsions:
REMARK  status: ('A' for Active; 'I' for Inactive)
REMARK    1  A    between atoms: C_1  and  C_2
REMARK    2  A    between atoms: C_5  and  N_6
REMARK    3  A    between atoms: C_8  and  C_9
REMARK    4  A    between atoms: C_9  and  O_10
REMARK    5  A    between atoms: C_11  and  C_12
REMARK    6  A    between atoms: N_14  and  C_15
REMARK    7  A    between atoms: C_15  and  C_16
REMARK    8  A    between atoms: C_16  and  C_17
REMARK    9  A    between atoms: C_17  and  C_18
REMARK                            x       y       z     vdW  Elec       q    Type
REMARK                         _______ _______ _______ _____ _____    ______ ____
ROOT
ATOM      1  N   UNL     1       4.324   4.281  17.792  0.00  0.00    +0.000 N 
ATOM      2  N   UNL     1       4.176   3.791  16.529  0.00  0.00    +0.000 NA
ATOM      3  C   UNL     1       5.105   4.482  15.843  0.00  0.00    +0.000 A 
ATOM      4  C   UNL     1       5.825   5.318  16.724  0.00  0.00    +0.000 A 
ATOM      5  N   UNL     1       5.316   5.199  17.962  0.00  0.00    +0.000 NA
ENDROOT
BRANCH   1  10
ATOM      6  C   UNL     1       1.218   2.681  22.332  0.00  0.00    +0.000 C 
ATOM      7  C   UNL     1       2.003   3.076  21.116  0.00  0.00    +0.000 A 
ATOM      8  C   UNL     1       2.593   2.115  20.284  0.00  0.00    +0.000 A 
ATOM      9  C   UNL     1       3.348   2.501  19.169  0.00  0.00    +0.000 A 
ATOM     10  C   UNL     1       3.525   3.861  18.887  0.00  0.00    +0.000 A 
ATOM     11  C   UNL     1       2.914   4.824  19.705  0.00  0.00    +0.000 A 
ATOM     12  C   UNL     1       2.154   4.432  20.806  0.00  0.00    +0.000 A 
ENDBRANCH   1  10
BRANCH   4  13
ATOM     13  C   UNL     1       6.959   6.195  16.433  0.00  0.00    +0.000 C 
ATOM     14  O   UNL     1       7.754   5.967  15.526  0.00  0.00    +0.000 OA
ATOM     15  N   UNL     1       7.059   7.275  17.281  0.00  0.00    +0.000 N 
ATOM     16  H   UNL     1       6.332   7.365  17.984  0.00  0.00    +0.000 HD
BRANCH  15  17
ATOM     17  C   UNL     1       8.125   8.246  17.190  0.00  0.00    +0.000 C 
BRANCH  17  18
ATOM     18  C   UNL     1       8.390   8.934  18.529  0.00  0.00    +0.000 C 
BRANCH  18  19
ATOM     19  C   UNL     1       8.495  10.452  18.336  0.00  0.00    +0.000 C 
BRANCH  19  20
ATOM     20  C   UNL     1       9.785  11.103  18.779  0.00  0.00    +0.000 A 
ATOM     21  C   UNL     1      10.680  11.555  17.795  0.00  0.00    +0.000 A 
ATOM     22  C   UNL     1      11.882  12.174  18.144  0.00  0.00    +0.000 A 
ATOM     23  C   UNL     1      12.202  12.364  19.485  0.00  0.00    +0.000 A 
ATOM     24  C   UNL     1      11.309  11.954  20.474  0.00  0.00    +0.000 A 
ATOM     25  C   UNL     1      10.104  11.337  20.124  0.00  0.00    +0.000 A 
ENDBRANCH  19  20
ENDBRANCH  18  19
ENDBRANCH  17  18
ENDBRANCH  15  17
ENDBRANCH   4  13
BRANCH   3  26
ATOM     26  C   UNL     1       5.291   4.311  14.371  0.00  0.00    +0.000 C 
BRANCH  26  27
ATOM     27  O   UNL     1       6.437   3.518  14.051  0.00  0.00    +0.000 OA
ATOM     28  H   UNL     1       6.471   3.504  13.076  0.00  0.00    +0.000 HD
ENDBRANCH  26  27
ENDBRANCH   3  26
TORSDOF 8
ENDMDL
MODEL 6
REMARK VINA RESULT:      -7.6      0.682      1.208
REMARK  Name = 
REMARK  9 active torsions:
REMARK  status: ('A' for Active; 'I' for Inactive)
REMARK    1  A    between atoms: C_1  and  C_2
REMARK    2  A    between atoms: C_5  and  N_6
REMARK    3  A    between atoms: C_8  and  C_9
REMARK    4  A    between atoms: C_9  and  O_10
REMARK    5  A    between atoms: C_11  and  C_12
REMARK    6  A    between atoms: N_14  and  C_15
REMARK    7  A    between atoms: C_15  and  C_16
REMARK    8  A    between atoms: C_16  and  C_17
REMARK    9  A    between atoms: C_17  and  C_18
REMARK                            x       y       z     vdW  Elec       q    Type
REMARK                         _______ _______ _______ _____ _____    ______ ____
ROOT
ATOM      1  N   UNL     1       8.318   8.709  18.204  0.00  0.00    +0.000 N 
ATOM      2  N   UNL     1       8.597   7.755  19.136  0.00  0.00    +0.000 NA
ATOM      3  C   UNL     1       8.011   6.663  18.612  0.00  0.00    +0.000 A 
ATOM      4  C   UNL     1       7.456   6.977  17.353  0.00  0.00    +0.000 A 
ATOM      5  N   UNL     1       7.639   8.284  17.101  0.00  0.00    +0.000 NA
ENDROOT
BRANCH   1  10
ATOM      6  C   UNL     1       9.995  14.177  18.544  0.00  0.00    +0.000 C 
ATOM      7  C   UNL     1       9.544  12.746  18.499  0.00  0.00    +0.000 A 
ATOM      8  C   UNL     1      10.113  11.775  19.334  0.00  0.00    +0.000 A 
ATOM      9  C   UNL     1       9.702  10.438  19.259  0.00  0.00    +0.000 A 
ATOM     10  C   UNL     1       8.719  10.064  18.334  0.00  0.00    +0.000 A 
ATOM     11  C   UNL     1       8.131  11.040  17.515  0.00  0.00    +0.000 A 
ATOM     12  C   UNL     1       8.537  12.371  17.603  0.00  0.00    +0.000 A 
ENDBRANCH   1  10
BRANCH   4  13
ATOM     13  C   UNL     1       6.783   6.091  16.402  0.00  0.00    +0.000 C 
ATOM     14  O   UNL     1       7.247   5.837  15.296  0.00  0.00    +0.000 OA
ATOM     15  N   UNL     1       5.581   5.598  16.858  0.00  0.00    +0.000 N 
ATOM     16  H   UNL     1       5.310   5.868  17.799  0.00  0.00    +0.000 HD
BRANCH  15  17
ATOM     17  C   UNL     1       4.739   4.732  16.066  0.00  0.00    +0.000 C 
BRANCH  17  18
ATOM     18  C   UNL     1       4.173   3.573  16.886  0.00  0.00    +0.000 C 
BRANCH  18  19
ATOM     19  C   UNL     1       2.769   3.920  17.396  0.00  0.00    +0.000 C 
BRANCH  19  20
ATOM     20  C   UNL     1       2.451   3.530  18.822  0.00  0.00    +0.000 A 
ATOM     21  C   UNL     1       3.480   2.992  19.614  0.00  0.00    +0.000 A 
ATOM     22  C   UNL     1       3.249   2.624  20.941  0.00  0.00    +0.000 A 
ATOM     23  C   UNL     1       1.989   2.802  21.503  0.00  0.00    +0.000 A 
ATOM     24  C   UNL     1       0.966   3.368  20.742  0.00  0.00    +0.000 A 
ATOM     25  C   UNL     1       1.199   3.739  19.414  0.00  0.00    +0.000 A 
ENDBRANCH  19  20
ENDBRANCH  18  19
ENDBRANCH  17  18
ENDBRANCH  15  17
ENDBRANCH   4  13
BRANCH   3  26
ATOM     26  C   UNL     1       8.016   5.348  19.320  0.00  0.00    +0.000 C 
BRANCH  26  27
ATOM     27  O   UNL     1       7.505   4.287  18.508  0.00  0.00    +0.000 OA
ATOM     28  H   UNL     1       7.531   4.631  17.596  0.00  0.00    +0.000 HD
ENDBRANCH  26  27
ENDBRANCH   3  26
TORSDOF 8
ENDMDL
MODEL 7
REMARK VINA RESULT:      -7.6      1.043      1.090
REMARK  Name = 
REMARK  9 active torsions:
REMARK  status: ('A' for Active; 'I' for Inactive)
REMARK    1  A    between atoms: C_1  and  C_2
REMARK    2  A    between atoms: C_5  and  N_6
REMARK    3  A    between atoms: C_8  and  C_9
REMARK    4  A    between atoms: C_9  and  O_10
REMARK    5  A    between atoms: C_11  and  C_12
REMARK    6  A    between atoms: N_14  and  C_15
REMARK    7  A    between atoms: C_15  and  C_16
REMARK    8  A    between atoms: C_16  and  C_17
REMARK    9  A    between atoms: C_17  and  C_18
REMARK                            x       y       z     vdW  Elec       q    Type
REMARK                         _______ _______ _______ _____ _____    ______ ____
ROOT
ATOM      1  N   UNL     1       8.174   8.526  18.192  0.00  0.00    +0.000 N 
ATOM      2  N   UNL     1       8.524   7.420  18.908  0.00  0.00    +0.000 NA
ATOM      3  C   UNL     1       7.755   6.465  18.354  0.00  0.00    +0.000 A 
ATOM      4  C   UNL     1       7.016   7.010  17.281  0.00  0.00    +0.000 A 
ATOM      5  N   UNL     1       7.273   8.325  17.189  0.00  0.00    +0.000 NA
ENDROOT
BRANCH   1  10
ATOM      6  C   UNL     1      10.275  13.728  19.348  0.00  0.00    +0.000 C 
ATOM      7  C   UNL     1       9.745  12.367  19.004  0.00  0.00    +0.000 A 
ATOM      8  C   UNL     1       8.923  12.165  17.887  0.00  0.00    +0.000 A 
ATOM      9  C   UNL     1       8.413  10.894  17.597  0.00  0.00    +0.000 A 
ATOM     10  C   UNL     1       8.717   9.814  18.436  0.00  0.00    +0.000 A 
ATOM     11  C   UNL     1       9.559  10.011  19.540  0.00  0.00    +0.000 A 
ATOM     12  C   UNL     1      10.074  11.277  19.817  0.00  0.00    +0.000 A 
ENDBRANCH   1  10
BRANCH   4  13
ATOM     13  C   UNL     1       6.105   6.331  16.359  0.00  0.00    +0.000 C 
ATOM     14  O   UNL     1       5.372   6.942  15.587  0.00  0.00    +0.000 OA
ATOM     15  N   UNL     1       6.133   4.959  16.460  0.00  0.00    +0.000 N 
ATOM     16  H   UNL     1       6.794   4.569  17.125  0.00  0.00    +0.000 HD
BRANCH  15  17
ATOM     17  C   UNL     1       5.289   4.098  15.664  0.00  0.00    +0.000 C 
BRANCH  17  18
ATOM     18  C   UNL     1       3.990   3.740  16.388  0.00  0.00    +0.000 C 
BRANCH  18  19
ATOM     19  C   UNL     1       4.234   3.636  17.898  0.00  0.00    +0.000 C 
BRANCH  19  20
ATOM     20  C   UNL     1       3.018   3.404  18.765  0.00  0.00    +0.000 A 
ATOM     21  C   UNL     1       3.009   3.939  20.064  0.00  0.00    +0.000 A 
ATOM     22  C   UNL     1       1.910   3.765  20.907  0.00  0.00    +0.000 A 
ATOM     23  C   UNL     1       0.793   3.066  20.459  0.00  0.00    +0.000 A 
ATOM     24  C   UNL     1       0.771   2.559  19.160  0.00  0.00    +0.000 A 
ATOM     25  C   UNL     1       1.871   2.736  18.315  0.00  0.00    +0.000 A 
ENDBRANCH  19  20
ENDBRANCH  18  19
ENDBRANCH  17  18
ENDBRANCH  15  17
ENDBRANCH   4  13
BRANCH   3  26
ATOM     26  C   UNL     1       7.762   5.057  18.852  0.00  0.00    +0.000 C 
BRANCH  26  27
ATOM     27  O   UNL     1       8.408   4.158  17.946  0.00  0.00    +0.000 OA
ATOM     28  H   UNL     1       9.307   4.039  18.306  0.00  0.00    +0.000 HD
ENDBRANCH  26  27
ENDBRANCH   3  26
TORSDOF 8
ENDMDL
MODEL 8
REMARK VINA RESULT:      -7.6      4.232      7.298
REMARK  Name = 
REMARK  9 active torsions:
REMARK  status: ('A' for Active; 'I' for Inactive)
REMARK    1  A    between atoms: C_1  and  C_2
REMARK    2  A    between atoms: C_5  and  N_6
REMARK    3  A    between atoms: C_8  and  C_9
REMARK    4  A    between atoms: C_9  and  O_10
REMARK    5  A    between atoms: C_11  and  C_12
REMARK    6  A    between atoms: N_14  and  C_15
REMARK    7  A    between atoms: C_15  and  C_16
REMARK    8  A    between atoms: C_16  and  C_17
REMARK    9  A    between atoms: C_17  and  C_18
REMARK                            x       y       z     vdW  Elec       q    Type
REMARK                         _______ _______ _______ _____ _____    ______ ____
ROOT
ATOM      1  N   UNL     1       2.313   6.634  19.991  0.00  0.00    +0.000 N 
ATOM      2  N   UNL     1       1.770   5.498  20.513  0.00  0.00    +0.000 NA
ATOM      3  C   UNL     1       2.723   4.583  20.260  0.00  0.00    +0.000 A 
ATOM      4  C   UNL     1       3.835   5.206  19.653  0.00  0.00    +0.000 A 
ATOM      5  N   UNL     1       3.566   6.509  19.469  0.00  0.00    +0.000 NA
ENDROOT
BRANCH   1  10
ATOM      6  C   UNL     1      -0.534  11.604  20.050  0.00  0.00    +0.000 C 
ATOM      7  C   UNL     1       0.251  10.325  20.026  0.00  0.00    +0.000 A 
ATOM      8  C   UNL     1       0.967   9.930  18.888  0.00  0.00    +0.000 A 
ATOM      9  C   UNL     1       1.669   8.719  18.871  0.00  0.00    +0.000 A 
ATOM     10  C   UNL     1       1.650   7.887  19.998  0.00  0.00    +0.000 A 
ATOM     11  C   UNL     1       0.953   8.294  21.146  0.00  0.00    +0.000 A 
ATOM     12  C   UNL     1       0.265   9.507  21.160  0.00  0.00    +0.000 A 
ENDBRANCH   1  10
BRANCH   4  13
ATOM     13  C   UNL     1       5.116   4.615  19.263  0.00  0.00    +0.000 C 
ATOM     14  O   UNL     1       5.368   3.425  19.420  0.00  0.00    +0.000 OA
ATOM     15  N   UNL     1       6.006   5.521  18.733  0.00  0.00    +0.000 N 
ATOM     16  H   UNL     1       5.676   6.476  18.639  0.00  0.00    +0.000 HD
BRANCH  15  17
ATOM     17  C   UNL     1       7.340   5.154  18.315  0.00  0.00    +0.000 C 
BRANCH  17  18
ATOM     18  C   UNL     1       7.342   4.443  16.961  0.00  0.00    +0.000 C 
BRANCH  18  19
ATOM     19  C   UNL     1       6.682   5.326  15.896  0.00  0.00    +0.000 C 
BRANCH  19  20
ATOM     20  C   UNL     1       6.738   4.824  14.471  0.00  0.00    +0.000 A 
ATOM     21  C   UNL     1       5.786   3.879  14.056  0.00  0.00    +0.000 A 
ATOM     22  C   UNL     1       5.782   3.386  12.750  0.00  0.00    +0.000 A 
ATOM     23  C   UNL     1       6.722   3.843  11.831  0.00  0.00    +0.000 A 
ATOM     24  C   UNL     1       7.652   4.807  12.217  0.00  0.00    +0.000 A 
ATOM     25  C   UNL     1       7.654   5.302  13.524  0.00  0.00    +0.000 A 
ENDBRANCH  19  20
ENDBRANCH  18  19
ENDBRANCH  17  18
ENDBRANCH  15  17
ENDBRANCH   4  13
BRANCH   3  26
ATOM     26  C   UNL     1       2.552   3.143  20.622  0.00  0.00    +0.000 C 
BRANCH  26  27
ATOM     27  O   UNL     1       1.540   2.944  21.613  0.00  0.00    +0.000 OA
ATOM     28  H   UNL     1       2.016   2.610  22.397  0.00  0.00    +0.000 HD
ENDBRANCH  26  27
ENDBRANCH   3  26
TORSDOF 8
ENDMDL
MODEL 9
REMARK VINA RESULT:      -7.4      4.500      7.242
REMARK  Name = 
REMARK  9 active torsions:
REMARK  status: ('A' for Active; 'I' for Inactive)
REMARK    1  A    between atoms: C_1  and  C_2
REMARK    2  A    between atoms: C_5  and  N_6
REMARK    3  A    between atoms: C_8  and  C_9
REMARK    4  A    between atoms: C_9  and  O_10
REMARK    5  A    between atoms: C_11  and  C_12
REMARK    6  A    between atoms: N_14  and  C_15
REMARK    7  A    between atoms: C_15  and  C_16
REMARK    8  A    between atoms: C_16  and  C_17
REMARK    9  A    between atoms: C_17  and  C_18
REMARK                            x       y       z     vdW  Elec       q    Type
REMARK                         _______ _______ _______ _____ _____    ______ ____
ROOT
ATOM      1  N   UNL     1       2.065   6.841  20.027  0.00  0.00    +0.000 N 
ATOM      2  N   UNL     1       1.470   5.828  20.718  0.00  0.00    +0.000 NA
ATOM      3  C   UNL     1       2.240   4.772  20.396  0.00  0.00    +0.000 A 
ATOM      4  C   UNL     1       3.309   5.193  19.576  0.00  0.00    +0.000 A 
ATOM      5  N   UNL     1       3.187   6.508  19.330  0.00  0.00    +0.000 NA
ENDROOT
BRANCH   1  10
ATOM      6  C   UNL     1       0.291  12.289  20.008  0.00  0.00    +0.000 C 
ATOM      7  C   UNL     1       0.714  10.849  20.026  0.00  0.00    +0.000 A 
ATOM      8  C   UNL     1       0.628  10.077  21.193  0.00  0.00    +0.000 A 
ATOM      9  C   UNL     1       1.054   8.743  21.201  0.00  0.00    +0.000 A 
ATOM     10  C   UNL     1       1.582   8.175  20.034  0.00  0.00    +0.000 A 
ATOM     11  C   UNL     1       1.645   8.939  18.859  0.00  0.00    +0.000 A 
ATOM     12  C   UNL     1       1.208  10.264  18.856  0.00  0.00    +0.000 A 
ENDBRANCH   1  10
BRANCH   4  13
ATOM     13  C   UNL     1       4.420   4.404  19.042  0.00  0.00    +0.000 C 
ATOM     14  O   UNL     1       4.332   3.198  18.834  0.00  0.00    +0.000 OA
ATOM     15  N   UNL     1       5.566   5.134  18.824  0.00  0.00    +0.000 N 
ATOM     16  H   UNL     1       5.511   6.129  19.020  0.00  0.00    +0.000 HD
BRANCH  15  17
ATOM     17  C   UNL     1       6.789   4.544  18.332  0.00  0.00    +0.000 C 
BRANCH  17  18
ATOM     18  C   UNL     1       7.095   4.970  16.896  0.00  0.00    +0.000 C 
BRANCH  18  19
ATOM     19  C   UNL     1       6.021   4.435  15.942  0.00  0.00    +0.000 C 
BRANCH  19  20
ATOM     20  C   UNL     1       6.388   4.371  14.477  0.00  0.00    +0.000 A 
ATOM     21  C   UNL     1       7.420   5.200  14.008  0.00  0.00    +0.000 A 
ATOM     22  C   UNL     1       7.811   5.177  12.668  0.00  0.00    +0.000 A 
ATOM     23  C   UNL     1       7.185   4.312  11.777  0.00  0.00    +0.000 A 
ATOM     24  C   UNL     1       6.183   3.456  12.232  0.00  0.00    +0.000 A 
ATOM     25  C   UNL     1       5.794   3.478  13.576  0.00  0.00    +0.000 A 
ENDBRANCH  19  20
ENDBRANCH  18  19
ENDBRANCH  17  18
ENDBRANCH  15  17
ENDBRANCH   4  13
BRANCH   3  26
ATOM     26  C   UNL     1       1.943   3.396  20.896  0.00  0.00    +0.000 C 
BRANCH  26  27
ATOM     27  O   UNL     1       2.623   3.098  22.118  0.00  0.00    +0.000 OA
ATOM     28  H   UNL     1       3.249   2.384  21.892  0.00  0.00    +0.000 HD
ENDBRANCH  26  27
ENDBRANCH   3  26
TORSDOF 8
ENDMDL
