MODEL 1
REMARK VINA RESULT:      -6.0      0.000      0.000
REMARK  Name = 
REMARK  0 active torsions:
REMARK  status: ('A' for Active; 'I' for Inactive)
REMARK                            x       y       z     vdW  Elec       q    Type
REMARK                         _______ _______ _______ _____ _____    ______ ____
ROOT
ATOM      1  N   UNL     1       7.910   5.577  19.905  0.00  0.00    +0.000 N 
ATOM      2  C   UNL     1       7.264   5.230  18.763  0.00  0.00    +0.000 A 
ATOM      3  N   UNL     1       7.788   5.514  17.602  0.00  0.00    +0.000 NA
ATOM      4  C   UNL     1       7.043   5.102  16.550  0.00  0.00    +0.000 A 
ATOM      5  N   UNL     1       7.408   5.290  15.248  0.00  0.00    +0.000 N 
ATOM      6  C   UNL     1       6.446   4.756  14.425  0.00  0.00    +0.000 A 
ATOM      7  C   UNL     1       5.456   4.213  15.219  0.00  0.00    +0.000 A 
ATOM      8  C   UNL     1       5.833   4.439  16.567  0.00  0.00    +0.000 A 
ATOM      9  C   UNL     1       5.283   4.150  17.863  0.00  0.00    +0.000 A 
ATOM     10  S   UNL     1       3.838   3.358  18.043  0.00  0.00    +0.000 S 
ATOM     11  N   UNL     1       6.054   4.585  18.921  0.00  0.00    +0.000 N 
ATOM     12  H   UNL     1       8.658   6.242  19.735  0.00  0.00    +0.000 HD
ATOM     13  H   UNL     1       7.341   5.813  20.706  0.00  0.00    +0.000 HD
ATOM     14  H   UNL     1       8.259   5.751  14.958  0.00  0.00    +0.000 HD
ATOM     15  H   UNL     1       5.723   4.371  19.847  0.00  0.00    +0.000 HD
ENDROOT
TORSDOF 0
ENDMDL
MODEL 2
REMARK VINA RESULT:      -5.5      1.845      2.996
REMARK  Name = 
REMARK  0 active torsions:
REMARK  status: ('A' for Active; 'I' for Inactive)
REMARK                            x       y       z     vdW  Elec       q    Type
REMARK                         _______ _______ _______ _____ _____    ______ ____
ROOT
ATOM      1  N   UNL     1       8.377   5.718  19.771  0.00  0.00    +0.000 N 
ATOM      2  C   UNL     1       7.342   5.275  19.014  0.00  0.00    +0.000 A 
ATOM      3  N   UNL     1       6.205   4.966  19.575  0.00  0.00    +0.000 NA
ATOM      4  C   UNL     1       5.259   4.548  18.702  0.00  0.00    +0.000 A 
ATOM      5  N   UNL     1       3.998   4.182  19.075  0.00  0.00    +0.000 N 
ATOM      6  C   UNL     1       3.284   3.816  17.960  0.00  0.00    +0.000 A 
ATOM      7  C   UNL     1       4.104   3.959  16.859  0.00  0.00    +0.000 A 
ATOM      8  C   UNL     1       5.359   4.418  17.332  0.00  0.00    +0.000 A 
ATOM      9  C   UNL     1       6.627   4.760  16.750  0.00  0.00    +0.000 A 
ATOM     10  S   UNL     1       6.897   4.656  15.118  0.00  0.00    +0.000 S 
ATOM     11  N   UNL     1       7.579   5.176  17.658  0.00  0.00    +0.000 N 
ATOM     12  H   UNL     1       8.227   5.550  20.761  0.00  0.00    +0.000 HD
ATOM     13  H   UNL     1       9.311   5.484  19.463  0.00  0.00    +0.000 HD
ATOM     14  H   UNL     1       3.663   4.189  20.029  0.00  0.00    +0.000 HD
ATOM     15  H   UNL     1       8.471   5.460  17.288  0.00  0.00    +0.000 HD
ENDROOT
TORSDOF 0
ENDMDL
MODEL 3
REMARK VINA RESULT:      -5.4      3.319      5.109
REMARK  Name = 
REMARK  0 active torsions:
REMARK  status: ('A' for Active; 'I' for Inactive)
REMARK                            x       y       z     vdW  Elec       q    Type
REMARK                         _______ _______ _______ _____ _____    ______ ____
ROOT
ATOM      1  N   UNL     1       6.428   4.076  18.366  0.00  0.00    +0.000 N 
ATOM      2  C   UNL     1       5.192   4.193  18.914  0.00  0.00    +0.000 A 
ATOM      3  N   UNL     1       4.687   3.207  19.603  0.00  0.00    +0.000 NA
ATOM      4  C   UNL     1       3.453   3.462  20.099  0.00  0.00    +0.000 A 
ATOM      5  N   UNL     1       2.746   2.571  20.854  0.00  0.00    +0.000 N 
ATOM      6  C   UNL     1       1.541   3.131  21.204  0.00  0.00    +0.000 A 
ATOM      7  C   UNL     1       1.485   4.402  20.667  0.00  0.00    +0.000 A 
ATOM      8  C   UNL     1       2.697   4.607  19.961  0.00  0.00    +0.000 A 
ATOM      9  C   UNL     1       3.283   5.669  19.189  0.00  0.00    +0.000 A 
ATOM     10  S   UNL     1       2.496   7.106  18.938  0.00  0.00    +0.000 S 
ATOM     11  N   UNL     1       4.537   5.385  18.687  0.00  0.00    +0.000 N 
ATOM     12  H   UNL     1       6.757   3.116  18.363  0.00  0.00    +0.000 HD
ATOM     13  H   UNL     1       6.596   4.559  17.494  0.00  0.00    +0.000 HD
ATOM     14  H   UNL     1       3.076   1.651  21.106  0.00  0.00    +0.000 HD
ATOM     15  H   UNL     1       4.998   6.115  18.171  0.00  0.00    +0.000 HD
ENDROOT
TORSDOF 0
ENDMDL
MODEL 4
REMARK VINA RESULT:      -5.4      2.760      4.100
REMARK  Name = 
REMARK  0 active torsions:
REMARK  status: ('A' for Active; 'I' for Inactive)
REMARK                            x       y       z     vdW  Elec       q    Type
REMARK                         _______ _______ _______ _____ _____    ______ ____
ROOT
ATOM      1  N   UNL     1       4.882   2.065  19.978  0.00  0.00    +0.000 N 
ATOM      2  C   UNL     1       4.689   3.265  19.373  0.00  0.00    +0.000 A 
ATOM      3  N   UNL     1       3.579   3.923  19.565  0.00  0.00    +0.000 NA
ATOM      4  C   UNL     1       3.525   5.106  18.909  0.00  0.00    +0.000 A 
ATOM      5  N   UNL     1       2.458   5.956  18.977  0.00  0.00    +0.000 N 
ATOM      6  C   UNL     1       2.714   7.066  18.208  0.00  0.00    +0.000 A 
ATOM      7  C   UNL     1       3.968   6.921  17.648  0.00  0.00    +0.000 A 
ATOM      8  C   UNL     1       4.478   5.674  18.090  0.00  0.00    +0.000 A 
ATOM      9  C   UNL     1       5.684   4.916  17.895  0.00  0.00    +0.000 A 
ATOM     10  S   UNL     1       6.920   5.470  16.939  0.00  0.00    +0.000 S 
ATOM     11  N   UNL     1       5.716   3.711  18.566  0.00  0.00    +0.000 N 
ATOM     12  H   UNL     1       4.022   1.685  20.358  0.00  0.00    +0.000 HD
ATOM     13  H   UNL     1       5.437   1.380  19.483  0.00  0.00    +0.000 HD
ATOM     14  H   UNL     1       1.622   5.778  19.516  0.00  0.00    +0.000 HD
ATOM     15  H   UNL     1       6.557   3.165  18.486  0.00  0.00    +0.000 HD
ENDROOT
TORSDOF 0
ENDMDL
MODEL 5
REMARK VINA RESULT:      -5.4      2.254      3.143
REMARK  Name = 
REMARK  0 active torsions:
REMARK  status: ('A' for Active; 'I' for Inactive)
REMARK                            x       y       z     vdW  Elec       q    Type
REMARK                         _______ _______ _______ _____ _____    ______ ____
ROOT
ATOM      1  N   UNL     1       7.853   4.362  17.713  0.00  0.00    +0.000 N 
ATOM      2  C   UNL     1       6.560   4.659  17.998  0.00  0.00    +0.000 A 
ATOM      3  N   UNL     1       6.044   5.788  17.594  0.00  0.00    +0.000 NA
ATOM      4  C   UNL     1       4.745   5.950  17.939  0.00  0.00    +0.000 A 
ATOM      5  N   UNL     1       4.011   7.054  17.612  0.00  0.00    +0.000 N 
ATOM      6  C   UNL     1       2.735   6.911  18.101  0.00  0.00    +0.000 A 
ATOM      7  C   UNL     1       2.656   5.692  18.744  0.00  0.00    +0.000 A 
ATOM      8  C   UNL     1       3.935   5.087  18.646  0.00  0.00    +0.000 A 
ATOM      9  C   UNL     1       4.539   3.857  19.081  0.00  0.00    +0.000 A 
ATOM     10  S   UNL     1       3.690   2.720  19.937  0.00  0.00    +0.000 S 
ATOM     11  N   UNL     1       5.864   3.715  18.725  0.00  0.00    +0.000 N 
ATOM     12  H   UNL     1       8.371   5.173  17.391  0.00  0.00    +0.000 HD
ATOM     13  H   UNL     1       8.360   3.805  18.387  0.00  0.00    +0.000 HD
ATOM     14  H   UNL     1       4.370   7.841  17.089  0.00  0.00    +0.000 HD
ATOM     15  H   UNL     1       6.316   2.852  18.979  0.00  0.00    +0.000 HD
ENDROOT
TORSDOF 0
ENDMDL
MODEL 6
REMARK VINA RESULT:      -5.4      2.657      4.250
REMARK  Name = 
REMARK  0 active torsions:
REMARK  status: ('A' for Active; 'I' for Inactive)
REMARK                            x       y       z     vdW  Elec       q    Type
REMARK                         _______ _______ _______ _____ _____    ______ ____
ROOT
ATOM      1  N   UNL     1       7.159   4.851  18.578  0.00  0.00    +0.000 N 
ATOM      2  C   UNL     1       5.856   4.641  18.896  0.00  0.00    +0.000 A 
ATOM      3  N   UNL     1       5.160   5.589  19.462  0.00  0.00    +0.000 NA
ATOM      4  C   UNL     1       3.874   5.247  19.714  0.00  0.00    +0.000 A 
ATOM      5  N   UNL     1       2.971   6.090  20.295  0.00  0.00    +0.000 N 
ATOM      6  C   UNL     1       1.761   5.449  20.407  0.00  0.00    +0.000 A 
ATOM      7  C   UNL     1       1.897   4.179  19.883  0.00  0.00    +0.000 A 
ATOM      8  C   UNL     1       3.241   4.051  19.449  0.00  0.00    +0.000 A 
ATOM      9  C   UNL     1       4.041   3.028  18.832  0.00  0.00    +0.000 A 
ATOM     10  S   UNL     1       3.417   1.540  18.452  0.00  0.00    +0.000 S 
ATOM     11  N   UNL     1       5.349   3.395  18.591  0.00  0.00    +0.000 N 
ATOM     12  H   UNL     1       7.534   5.679  19.029  0.00  0.00    +0.000 HD
ATOM     13  H   UNL     1       7.780   4.055  18.622  0.00  0.00    +0.000 HD
ATOM     14  H   UNL     1       3.180   7.034  20.587  0.00  0.00    +0.000 HD
ATOM     15  H   UNL     1       5.934   2.721  18.127  0.00  0.00    +0.000 HD
ENDROOT
TORSDOF 0
ENDMDL
MODEL 7
REMARK VINA RESULT:      -5.4      3.370      5.178
REMARK  Name = 
REMARK  0 active torsions:
REMARK  status: ('A' for Active; 'I' for Inactive)
REMARK                            x       y       z     vdW  Elec       q    Type
REMARK                         _______ _______ _______ _____ _____    ______ ____
ROOT
ATOM      1  N   UNL     1       5.107   1.223  20.064  0.00  0.00    +0.000 N 
ATOM      2  C   UNL     1       4.541   2.451  19.943  0.00  0.00    +0.000 A 
ATOM      3  N   UNL     1       3.416   2.715  20.549  0.00  0.00    +0.000 NA
ATOM      4  C   UNL     1       2.971   3.978  20.350  0.00  0.00    +0.000 A 
ATOM      5  N   UNL     1       1.819   4.466  20.897  0.00  0.00    +0.000 N 
ATOM      6  C   UNL     1       1.652   5.773  20.510  0.00  0.00    +0.000 A 
ATOM      7  C   UNL     1       2.719   6.124  19.708  0.00  0.00    +0.000 A 
ATOM      8  C   UNL     1       3.552   4.981  19.602  0.00  0.00    +0.000 A 
ATOM      9  C   UNL     1       4.786   4.651  18.943  0.00  0.00    +0.000 A 
ATOM     10  S   UNL     1       5.602   5.753  18.012  0.00  0.00    +0.000 S 
ATOM     11  N   UNL     1       5.218   3.358  19.153  0.00  0.00    +0.000 N 
ATOM     12  H   UNL     1       4.464   0.541  20.451  0.00  0.00    +0.000 HD
ATOM     13  H   UNL     1       5.632   0.875  19.274  0.00  0.00    +0.000 HD
ATOM     14  H   UNL     1       1.202   3.932  21.493  0.00  0.00    +0.000 HD
ATOM     15  H   UNL     1       6.097   3.096  18.738  0.00  0.00    +0.000 HD
ENDROOT
TORSDOF 0
ENDMDL
MODEL 8
REMARK VINA RESULT:      -5.3      2.432      4.035
REMARK  Name = 
REMARK  0 active torsions:
REMARK  status: ('A' for Active; 'I' for Inactive)
REMARK                            x       y       z     vdW  Elec       q    Type
REMARK                         _______ _______ _______ _____ _____    ______ ____
ROOT
ATOM      1  N   UNL     1       7.004   4.596  13.835  0.00  0.00    +0.000 N 
ATOM      2  C   UNL     1       6.710   4.798  15.144  0.00  0.00    +0.000 A 
ATOM      3  N   UNL     1       5.958   3.944  15.785  0.00  0.00    +0.000 NA
ATOM      4  C   UNL     1       5.753   4.263  17.084  0.00  0.00    +0.000 A 
ATOM      5  N   UNL     1       5.004   3.505  17.937  0.00  0.00    +0.000 N 
ATOM      6  C   UNL     1       4.996   4.093  19.178  0.00  0.00    +0.000 A 
ATOM      7  C   UNL     1       5.758   5.243  19.114  0.00  0.00    +0.000 A 
ATOM      8  C   UNL     1       6.233   5.352  17.782  0.00  0.00    +0.000 A 
ATOM      9  C   UNL     1       7.050   6.274  17.043  0.00  0.00    +0.000 A 
ATOM     10  S   UNL     1       7.700   7.627  17.747  0.00  0.00    +0.000 S 
ATOM     11  N   UNL     1       7.240   5.934  15.719  0.00  0.00    +0.000 N 
ATOM     12  H   UNL     1       6.410   3.891  13.412  0.00  0.00    +0.000 HD
ATOM     13  H   UNL     1       7.127   5.415  13.256  0.00  0.00    +0.000 HD
ATOM     14  H   UNL     1       4.540   2.646  17.676  0.00  0.00    +0.000 HD
ATOM     15  H   UNL     1       7.837   6.534  15.174  0.00  0.00    +0.000 HD
ENDROOT
TORSDOF 0
ENDMDL
MODEL 9
REMARK VINA RESULT:      -5.3      2.143      3.697
REMARK  Name = 
REMARK  0 active torsions:
REMARK  status: ('A' for Active; 'I' for Inactive)
REMARK                            x       y       z     vdW  Elec       q    Type
REMARK                         _______ _______ _______ _____ _____    ______ ____
ROOT
ATOM      1  N   UNL     1       7.455   5.233  14.301  0.00  0.00    +0.000 N 
ATOM      2  C   UNL     1       6.845   4.967  15.485  0.00  0.00    +0.000 A 
ATOM      3  N   UNL     1       5.718   4.311  15.507  0.00  0.00    +0.000 NA
ATOM      4  C   UNL     1       5.227   4.109  16.752  0.00  0.00    +0.000 A 
ATOM      5  N   UNL     1       4.064   3.440  17.004  0.00  0.00    +0.000 N 
ATOM      6  C   UNL     1       3.849   3.400  18.360  0.00  0.00    +0.000 A 
ATOM      7  C   UNL     1       4.897   4.051  18.981  0.00  0.00    +0.000 A 
ATOM      8  C   UNL     1       5.767   4.505  17.958  0.00  0.00    +0.000 A 
ATOM      9  C   UNL     1       7.006   5.231  17.894  0.00  0.00    +0.000 A 
ATOM     10  S   UNL     1       7.776   5.770  19.259  0.00  0.00    +0.000 S 
ATOM     11  N   UNL     1       7.484   5.433  16.615  0.00  0.00    +0.000 N 
ATOM     12  H   UNL     1       6.838   5.080  13.510  0.00  0.00    +0.000 HD
ATOM     13  H   UNL     1       7.984   6.091  14.235  0.00  0.00    +0.000 HD
ATOM     14  H   UNL     1       3.471   3.041  16.290  0.00  0.00    +0.000 HD
ATOM     15  H   UNL     1       8.367   5.907  16.527  0.00  0.00    +0.000 HD
ENDROOT
TORSDOF 0
ENDMDL
