MODEL 1
REMARK VINA RESULT:      -7.1      0.000      0.000
REMARK  Name = 
REMARK  5 active torsions:
REMARK  status: ('A' for Active; 'I' for Inactive)
REMARK    1  A    between atoms: C_2  and  O_3
REMARK    2  A    between atoms: C_2  and  C_4
REMARK    3  A    between atoms: C_6  and  C_7
REMARK    4  A    between atoms: C_7  and  C_8
REMARK    5  A    between atoms: C_8  and  C_9
REMARK                            x       y       z     vdW  Elec       q    Type
REMARK                         _______ _______ _______ _____ _____    ______ ____
ROOT
ATOM      1  C   UNL     1       6.363   5.091  16.036  0.00  0.00    +0.000 A 
ATOM      2  C   UNL     1       5.179   5.758  16.294  0.00  0.00    +0.000 A 
ATOM      3  C   UNL     1       4.915   5.944  17.693  0.00  0.00    +0.000 A 
ATOM      4  C   UNL     1       5.963   5.442  18.443  0.00  0.00    +0.000 A 
ATOM      5  S   UNL     1       7.186   4.724  17.490  0.00  0.00    +0.000 S 
ENDROOT
BRANCH   1   7
ATOM      6  O   UNL     1       7.681   5.399  14.080  0.00  0.00    +0.000 OA
ATOM      7  C   UNL     1       6.887   4.732  14.729  0.00  0.00    +0.000 C 
BRANCH   7   8
ATOM      8  O   UNL     1       6.395   3.556  14.257  0.00  0.00    +0.000 OA
ATOM      9  H   UNL     1       5.914   3.068  14.953  0.00  0.00    +0.000 HD
ENDBRANCH   7   8
ENDBRANCH   1   7
BRANCH   3  10
ATOM     10  C   UNL     1       3.701   6.617  18.291  0.00  0.00    +0.000 C 
BRANCH  10  11
ATOM     11  C   UNL     1       2.369   5.946  17.930  0.00  0.00    +0.000 C 
BRANCH  11  12
ATOM     12  C   UNL     1       1.985   4.851  18.897  0.00  0.00    +0.000 A 
ATOM     13  C   UNL     1       1.327   3.703  18.434  0.00  0.00    +0.000 A 
ATOM     14  C   UNL     1       0.974   2.683  19.318  0.00  0.00    +0.000 A 
ATOM     15  C   UNL     1       1.272   2.801  20.674  0.00  0.00    +0.000 A 
ATOM     16  C   UNL     1       1.924   3.939  21.145  0.00  0.00    +0.000 A 
ATOM     17  C   UNL     1       2.278   4.962  20.262  0.00  0.00    +0.000 A 
ENDBRANCH  11  12
ENDBRANCH  10  11
ENDBRANCH   3  10
TORSDOF 5
ENDMDL
MODEL 2
REMARK VINA RESULT:      -7.0      0.102      1.209
REMARK  Name = 
REMARK  5 active torsions:
REMARK  status: ('A' for Active; 'I' for Inactive)
REMARK    1  A    between atoms: C_2  and  O_3
REMARK    2  A    between atoms: C_2  and  C_4
REMARK    3  A    between atoms: C_6  and  C_7
REMARK    4  A    between atoms: C_7  and  C_8
REMARK    5  A    between atoms: C_8  and  C_9
REMARK                            x       y       z     vdW  Elec       q    Type
REMARK                         _______ _______ _______ _____ _____    ______ ____
ROOT
ATOM      1  C   UNL     1       6.332   5.061  16.074  0.00  0.00    +0.000 A 
ATOM      2  C   UNL     1       5.151   5.743  16.307  0.00  0.00    +0.000 A 
ATOM      3  C   UNL     1       4.857   5.930  17.700  0.00  0.00    +0.000 A 
ATOM      4  C   UNL     1       5.881   5.413  18.472  0.00  0.00    +0.000 A 
ATOM      5  S   UNL     1       7.116   4.680  17.546  0.00  0.00    +0.000 S 
ENDROOT
BRANCH   1   7
ATOM      6  O   UNL     1       7.695   5.357  14.149  0.00  0.00    +0.000 OA
ATOM      7  C   UNL     1       6.881   4.697  14.780  0.00  0.00    +0.000 C 
BRANCH   7   8
ATOM      8  O   UNL     1       6.388   3.526  14.296  0.00  0.00    +0.000 OA
ATOM      9  H   UNL     1       7.096   2.978  13.903  0.00  0.00    +0.000 HD
ENDBRANCH   7   8
ENDBRANCH   1   7
BRANCH   3  10
ATOM     10  C   UNL     1       3.639   6.618  18.270  0.00  0.00    +0.000 C 
BRANCH  10  11
ATOM     11  C   UNL     1       2.308   5.957  17.892  0.00  0.00    +0.000 C 
BRANCH  11  12
ATOM     12  C   UNL     1       1.928   4.830  18.824  0.00  0.00    +0.000 A 
ATOM     13  C   UNL     1       2.127   4.963  20.205  0.00  0.00    +0.000 A 
ATOM     14  C   UNL     1       1.773   3.931  21.075  0.00  0.00    +0.000 A 
ATOM     15  C   UNL     1       1.222   2.754  20.573  0.00  0.00    +0.000 A 
ATOM     16  C   UNL     1       1.024   2.609  19.201  0.00  0.00    +0.000 A 
ATOM     17  C   UNL     1       1.377   3.642  18.328  0.00  0.00    +0.000 A 
ENDBRANCH  11  12
ENDBRANCH  10  11
ENDBRANCH   3  10
TORSDOF 5
ENDMDL
MODEL 3
REMARK VINA RESULT:      -6.8      2.451      3.133
REMARK  Name = 
REMARK  5 active torsions:
REMARK  status: ('A' for Active; 'I' for Inactive)
REMARK    1  A    between atoms: C_2  and  O_3
REMARK    2  A    between atoms: C_2  and  C_4
REMARK    3  A    between atoms: C_6  and  C_7
REMARK    4  A    between atoms: C_7  and  C_8
REMARK    5  A    between atoms: C_8  and  C_9
REMARK                            x       y       z     vdW  Elec       q    Type
REMARK                         _______ _______ _______ _____ _____    ______ ____
ROOT
ATOM      1  C   UNL     1       6.832   5.290  18.035  0.00  0.00    +0.000 A 
ATOM      2  C   UNL     1       5.489   4.997  18.190  0.00  0.00    +0.000 A 
ATOM      3  C   UNL     1       4.918   4.294  17.075  0.00  0.00    +0.000 A 
ATOM      4  C   UNL     1       5.894   4.038  16.129  0.00  0.00    +0.000 A 
ATOM      5  S   UNL     1       7.422   4.675  16.552  0.00  0.00    +0.000 S 
ENDROOT
BRANCH   1   7
ATOM      6  O   UNL     1       8.284   7.042  18.723  0.00  0.00    +0.000 OA
ATOM      7  C   UNL     1       7.674   6.012  18.973  0.00  0.00    +0.000 C 
BRANCH   7   8
ATOM      8  O   UNL     1       7.748   5.420  20.194  0.00  0.00    +0.000 OA
ATOM      9  H   UNL     1       8.407   4.699  20.201  0.00  0.00    +0.000 HD
ENDBRANCH   7   8
ENDBRANCH   1   7
BRANCH   3  10
ATOM     10  C   UNL     1       3.479   3.852  16.940  0.00  0.00    +0.000 C 
BRANCH  10  11
ATOM     11  C   UNL     1       3.159   2.529  17.647  0.00  0.00    +0.000 C 
BRANCH  11  12
ATOM     12  C   UNL     1       2.580   2.729  19.028  0.00  0.00    +0.000 A 
ATOM     13  C   UNL     1       3.350   2.435  20.162  0.00  0.00    +0.000 A 
ATOM     14  C   UNL     1       2.826   2.623  21.442  0.00  0.00    +0.000 A 
ATOM     15  C   UNL     1       1.528   3.101  21.602  0.00  0.00    +0.000 A 
ATOM     16  C   UNL     1       0.753   3.394  20.481  0.00  0.00    +0.000 A 
ATOM     17  C   UNL     1       1.274   3.208  19.198  0.00  0.00    +0.000 A 
ENDBRANCH  11  12
ENDBRANCH  10  11
ENDBRANCH   3  10
TORSDOF 5
ENDMDL
MODEL 4
REMARK VINA RESULT:      -6.8      2.539      3.201
REMARK  Name = 
REMARK  5 active torsions:
REMARK  status: ('A' for Active; 'I' for Inactive)
REMARK    1  A    between atoms: C_2  and  O_3
REMARK    2  A    between atoms: C_2  and  C_4
REMARK    3  A    between atoms: C_6  and  C_7
REMARK    4  A    between atoms: C_7  and  C_8
REMARK    5  A    between atoms: C_8  and  C_9
REMARK                            x       y       z     vdW  Elec       q    Type
REMARK                         _______ _______ _______ _____ _____    ______ ____
ROOT
ATOM      1  C   UNL     1       6.797   5.398  18.220  0.00  0.00    +0.000 A 
ATOM      2  C   UNL     1       5.638   4.656  18.365  0.00  0.00    +0.000 A 
ATOM      3  C   UNL     1       4.957   4.403  17.126  0.00  0.00    +0.000 A 
ATOM      4  C   UNL     1       5.679   4.935  16.073  0.00  0.00    +0.000 A 
ATOM      5  S   UNL     1       7.091   5.756  16.574  0.00  0.00    +0.000 S 
ENDROOT
BRANCH   1   7
ATOM      6  O   UNL     1       7.798   5.290  20.375  0.00  0.00    +0.000 OA
ATOM      7  C   UNL     1       7.683   5.834  19.285  0.00  0.00    +0.000 C 
BRANCH   7   8
ATOM      8  O   UNL     1       8.394   6.949  18.970  0.00  0.00    +0.000 OA
ATOM      9  H   UNL     1       8.092   7.336  18.126  0.00  0.00    +0.000 HD
ENDBRANCH   7   8
ENDBRANCH   1   7
BRANCH   3  10
ATOM     10  C   UNL     1       3.663   3.641  16.959  0.00  0.00    +0.000 C 
BRANCH  10  11
ATOM     11  C   UNL     1       3.559   2.381  17.828  0.00  0.00    +0.000 C 
BRANCH  11  12
ATOM     12  C   UNL     1       2.771   2.609  19.097  0.00  0.00    +0.000 A 
ATOM     13  C   UNL     1       1.413   2.950  19.029  0.00  0.00    +0.000 A 
ATOM     14  C   UNL     1       0.675   3.155  20.196  0.00  0.00    +0.000 A 
ATOM     15  C   UNL     1       1.288   3.026  21.440  0.00  0.00    +0.000 A 
ATOM     16  C   UNL     1       2.638   2.691  21.519  0.00  0.00    +0.000 A 
ATOM     17  C   UNL     1       3.380   2.484  20.352  0.00  0.00    +0.000 A 
ENDBRANCH  11  12
ENDBRANCH  10  11
ENDBRANCH   3  10
TORSDOF 5
ENDMDL
MODEL 5
REMARK VINA RESULT:      -6.7      2.615      3.370
REMARK  Name = 
REMARK  5 active torsions:
REMARK  status: ('A' for Active; 'I' for Inactive)
REMARK    1  A    between atoms: C_2  and  O_3
REMARK    2  A    between atoms: C_2  and  C_4
REMARK    3  A    between atoms: C_6  and  C_7
REMARK    4  A    between atoms: C_7  and  C_8
REMARK    5  A    between atoms: C_8  and  C_9
REMARK                            x       y       z     vdW  Elec       q    Type
REMARK                         _______ _______ _______ _____ _____    ______ ____
ROOT
ATOM      1  C   UNL     1       6.510   5.665  18.365  0.00  0.00    +0.000 A 
ATOM      2  C   UNL     1       5.715   4.538  18.254  0.00  0.00    +0.000 A 
ATOM      3  C   UNL     1       4.703   4.642  17.241  0.00  0.00    +0.000 A 
ATOM      4  C   UNL     1       4.817   5.853  16.583  0.00  0.00    +0.000 A 
ATOM      5  S   UNL     1       6.060   6.843  17.209  0.00  0.00    +0.000 S 
ENDROOT
BRANCH   1   7
ATOM      6  O   UNL     1       7.765   5.228  20.336  0.00  0.00    +0.000 OA
ATOM      7  C   UNL     1       7.593   5.871  19.310  0.00  0.00    +0.000 C 
BRANCH   7   8
ATOM      8  O   UNL     1       8.428   6.885  18.959  0.00  0.00    +0.000 OA
ATOM      9  H   UNL     1       8.204   7.710  19.433  0.00  0.00    +0.000 HD
ENDBRANCH   7   8
ENDBRANCH   1   7
BRANCH   3  10
ATOM     10  C   UNL     1       3.676   3.589  16.894  0.00  0.00    +0.000 C 
BRANCH  10  11
ATOM     11  C   UNL     1       3.667   2.383  17.842  0.00  0.00    +0.000 C 
BRANCH  11  12
ATOM     12  C   UNL     1       2.809   2.607  19.065  0.00  0.00    +0.000 A 
ATOM     13  C   UNL     1       3.370   2.505  20.346  0.00  0.00    +0.000 A 
ATOM     14  C   UNL     1       2.586   2.717  21.481  0.00  0.00    +0.000 A 
ATOM     15  C   UNL     1       1.235   3.026  21.349  0.00  0.00    +0.000 A 
ATOM     16  C   UNL     1       0.666   3.126  20.080  0.00  0.00    +0.000 A 
ATOM     17  C   UNL     1       1.448   2.916  18.941  0.00  0.00    +0.000 A 
ENDBRANCH  11  12
ENDBRANCH  10  11
ENDBRANCH   3  10
TORSDOF 5
ENDMDL
MODEL 6
REMARK VINA RESULT:      -6.7      2.456      3.023
REMARK  Name = 
REMARK  5 active torsions:
REMARK  status: ('A' for Active; 'I' for Inactive)
REMARK    1  A    between atoms: C_2  and  O_3
REMARK    2  A    between atoms: C_2  and  C_4
REMARK    3  A    between atoms: C_6  and  C_7
REMARK    4  A    between atoms: C_7  and  C_8
REMARK    5  A    between atoms: C_8  and  C_9
REMARK                            x       y       z     vdW  Elec       q    Type
REMARK                         _______ _______ _______ _____ _____    ______ ____
ROOT
ATOM      1  C   UNL     1       6.581   5.670  18.351  0.00  0.00    +0.000 A 
ATOM      2  C   UNL     1       5.700   4.605  18.297  0.00  0.00    +0.000 A 
ATOM      3  C   UNL     1       4.746   4.698  17.228  0.00  0.00    +0.000 A 
ATOM      4  C   UNL     1       4.990   5.832  16.474  0.00  0.00    +0.000 A 
ATOM      5  S   UNL     1       6.284   6.771  17.076  0.00  0.00    +0.000 S 
ENDROOT
BRANCH   1   7
ATOM      6  O   UNL     1       7.810   5.189  20.328  0.00  0.00    +0.000 OA
ATOM      7  C   UNL     1       7.635   5.873  19.329  0.00  0.00    +0.000 C 
BRANCH   7   8
ATOM      8  O   UNL     1       8.436   6.934  19.045  0.00  0.00    +0.000 OA
ATOM      9  H   UNL     1       7.912   7.710  18.767  0.00  0.00    +0.000 HD
ENDBRANCH   7   8
ENDBRANCH   1   7
BRANCH   3  10
ATOM     10  C   UNL     1       3.649   3.704  16.921  0.00  0.00    +0.000 C 
BRANCH  10  11
ATOM     11  C   UNL     1       2.265   4.114  17.440  0.00  0.00    +0.000 C 
BRANCH  11  12
ATOM     12  C   UNL     1       2.100   3.870  18.922  0.00  0.00    +0.000 A 
ATOM     13  C   UNL     1       1.776   2.589  19.391  0.00  0.00    +0.000 A 
ATOM     14  C   UNL     1       1.629   2.352  20.758  0.00  0.00    +0.000 A 
ATOM     15  C   UNL     1       1.799   3.391  21.669  0.00  0.00    +0.000 A 
ATOM     16  C   UNL     1       2.119   4.669  21.214  0.00  0.00    +0.000 A 
ATOM     17  C   UNL     1       2.267   4.910  19.845  0.00  0.00    +0.000 A 
ENDBRANCH  11  12
ENDBRANCH  10  11
ENDBRANCH   3  10
TORSDOF 5
ENDMDL
MODEL 7
REMARK VINA RESULT:      -6.6      2.436      3.456
REMARK  Name = 
REMARK  5 active torsions:
REMARK  status: ('A' for Active; 'I' for Inactive)
REMARK    1  A    between atoms: C_2  and  O_3
REMARK    2  A    between atoms: C_2  and  C_4
REMARK    3  A    between atoms: C_6  and  C_7
REMARK    4  A    between atoms: C_7  and  C_8
REMARK    5  A    between atoms: C_8  and  C_9
REMARK                            x       y       z     vdW  Elec       q    Type
REMARK                         _______ _______ _______ _____ _____    ______ ____
ROOT
ATOM      1  C   UNL     1       6.766   5.206  18.265  0.00  0.00    +0.000 A 
ATOM      2  C   UNL     1       5.665   4.482  18.685  0.00  0.00    +0.000 A 
ATOM      3  C   UNL     1       4.925   3.882  17.611  0.00  0.00    +0.000 A 
ATOM      4  C   UNL     1       5.548   4.143  16.404  0.00  0.00    +0.000 A 
ATOM      5  S   UNL     1       6.937   5.125  16.566  0.00  0.00    +0.000 S 
ENDROOT
BRANCH   1   7
ATOM      6  O   UNL     1       8.312   6.942  18.769  0.00  0.00    +0.000 OA
ATOM      7  C   UNL     1       7.689   5.945  19.109  0.00  0.00    +0.000 C 
BRANCH   7   8
ATOM      8  O   UNL     1       7.824   5.414  20.353  0.00  0.00    +0.000 OA
ATOM      9  H   UNL     1       7.709   6.095  21.045  0.00  0.00    +0.000 HD
ENDBRANCH   7   8
ENDBRANCH   1   7
BRANCH   3  10
ATOM     10  C   UNL     1       3.670   3.050  17.747  0.00  0.00    +0.000 C 
BRANCH  10  11
ATOM     11  C   UNL     1       2.370   3.833  17.526  0.00  0.00    +0.000 C 
BRANCH  11  12
ATOM     12  C   UNL     1       2.233   5.014  18.458  0.00  0.00    +0.000 A 
ATOM     13  C   UNL     1       1.858   4.815  19.794  0.00  0.00    +0.000 A 
ATOM     14  C   UNL     1       1.736   5.899  20.665  0.00  0.00    +0.000 A 
ATOM     15  C   UNL     1       1.981   7.192  20.208  0.00  0.00    +0.000 A 
ATOM     16  C   UNL     1       2.352   7.401  18.881  0.00  0.00    +0.000 A 
ATOM     17  C   UNL     1       2.475   6.318  18.007  0.00  0.00    +0.000 A 
ENDBRANCH  11  12
ENDBRANCH  10  11
ENDBRANCH   3  10
TORSDOF 5
ENDMDL
MODEL 8
REMARK VINA RESULT:      -6.6      2.410      3.403
REMARK  Name = 
REMARK  5 active torsions:
REMARK  status: ('A' for Active; 'I' for Inactive)
REMARK    1  A    between atoms: C_2  and  O_3
REMARK    2  A    between atoms: C_2  and  C_4
REMARK    3  A    between atoms: C_6  and  C_7
REMARK    4  A    between atoms: C_7  and  C_8
REMARK    5  A    between atoms: C_8  and  C_9
REMARK                            x       y       z     vdW  Elec       q    Type
REMARK                         _______ _______ _______ _____ _____    ______ ____
ROOT
ATOM      1  C   UNL     1       6.696   5.231  18.188  0.00  0.00    +0.000 A 
ATOM      2  C   UNL     1       5.628   4.457  18.606  0.00  0.00    +0.000 A 
ATOM      3  C   UNL     1       4.868   3.892  17.527  0.00  0.00    +0.000 A 
ATOM      4  C   UNL     1       5.443   4.232  16.316  0.00  0.00    +0.000 A 
ATOM      5  S   UNL     1       6.810   5.242  16.482  0.00  0.00    +0.000 S 
ENDROOT
BRANCH   1   7
ATOM      6  O   UNL     1       8.245   6.957  18.714  0.00  0.00    +0.000 OA
ATOM      7  C   UNL     1       7.627   5.952  19.039  0.00  0.00    +0.000 C 
BRANCH   7   8
ATOM      8  O   UNL     1       7.776   5.393  20.269  0.00  0.00    +0.000 OA
ATOM      9  H   UNL     1       7.643   4.425  20.237  0.00  0.00    +0.000 HD
ENDBRANCH   7   8
ENDBRANCH   1   7
BRANCH   3  10
ATOM     10  C   UNL     1       3.641   3.020  17.661  0.00  0.00    +0.000 C 
BRANCH  10  11
ATOM     11  C   UNL     1       2.314   3.776  17.518  0.00  0.00    +0.000 C 
BRANCH  11  12
ATOM     12  C   UNL     1       2.214   4.963  18.447  0.00  0.00    +0.000 A 
ATOM     13  C   UNL     1       2.467   6.255  17.966  0.00  0.00    +0.000 A 
ATOM     14  C   UNL     1       2.370   7.358  18.815  0.00  0.00    +0.000 A 
ATOM     15  C   UNL     1       2.024   7.181  20.153  0.00  0.00    +0.000 A 
ATOM     16  C   UNL     1       1.773   5.900  20.642  0.00  0.00    +0.000 A 
ATOM     17  C   UNL     1       1.869   4.793  19.794  0.00  0.00    +0.000 A 
ENDBRANCH  11  12
ENDBRANCH  10  11
ENDBRANCH   3  10
TORSDOF 5
ENDMDL
MODEL 9
REMARK VINA RESULT:      -6.5      1.913      2.276
REMARK  Name = 
REMARK  5 active torsions:
REMARK  status: ('A' for Active; 'I' for Inactive)
REMARK    1  A    between atoms: C_2  and  O_3
REMARK    2  A    between atoms: C_2  and  C_4
REMARK    3  A    between atoms: C_6  and  C_7
REMARK    4  A    between atoms: C_7  and  C_8
REMARK    5  A    between atoms: C_8  and  C_9
REMARK                            x       y       z     vdW  Elec       q    Type
REMARK                         _______ _______ _______ _____ _____    ______ ____
ROOT
ATOM      1  C   UNL     1       6.062   4.865  17.851  0.00  0.00    +0.000 A 
ATOM      2  C   UNL     1       5.179   5.776  18.403  0.00  0.00    +0.000 A 
ATOM      3  C   UNL     1       3.852   5.695  17.861  0.00  0.00    +0.000 A 
ATOM      4  C   UNL     1       3.780   4.667  16.939  0.00  0.00    +0.000 A 
ATOM      5  S   UNL     1       5.275   3.874  16.701  0.00  0.00    +0.000 S 
ENDROOT
BRANCH   1   7
ATOM      6  O   UNL     1       8.003   5.113  19.202  0.00  0.00    +0.000 OA
ATOM      7  C   UNL     1       7.471   4.722  18.172  0.00  0.00    +0.000 C 
BRANCH   7   8
ATOM      8  O   UNL     1       8.186   4.107  17.193  0.00  0.00    +0.000 OA
ATOM      9  H   UNL     1       9.147   4.206  17.339  0.00  0.00    +0.000 HD
ENDBRANCH   7   8
ENDBRANCH   1   7
BRANCH   3  10
ATOM     10  C   UNL     1       2.677   6.564  18.245  0.00  0.00    +0.000 C 
BRANCH  10  11
ATOM     11  C   UNL     1       2.289   6.478  19.727  0.00  0.00    +0.000 C 
BRANCH  11  12
ATOM     12  C   UNL     1       1.975   5.067  20.168  0.00  0.00    +0.000 A 
ATOM     13  C   UNL     1       1.117   4.266  19.402  0.00  0.00    +0.000 A 
ATOM     14  C   UNL     1       0.827   2.960  19.798  0.00  0.00    +0.000 A 
ATOM     15  C   UNL     1       1.385   2.443  20.964  0.00  0.00    +0.000 A 
ATOM     16  C   UNL     1       2.237   3.233  21.735  0.00  0.00    +0.000 A 
ATOM     17  C   UNL     1       2.530   4.541  21.342  0.00  0.00    +0.000 A 
ENDBRANCH  11  12
ENDBRANCH  10  11
ENDBRANCH   3  10
TORSDOF 5
ENDMDL
