MODEL 1
REMARK VINA RESULT:      -8.4      0.000      0.000
REMARK  Name = 
REMARK  8 active torsions:
REMARK  status: ('A' for Active; 'I' for Inactive)
REMARK    1  A    between atoms: C_1  and  O_2
REMARK    2  A    between atoms: O_2  and  C_3
REMARK    3  A    between atoms: C_7  and  C_8
REMARK    4  A    between atoms: C_9  and  C_10
REMARK    5  A    between atoms: C_18  and  C_19
REMARK    6  A    between atoms: C_19  and  N_20
REMARK    7  A    between atoms: N_25  and  C_26
REMARK    8  A    between atoms: C_27  and  C_28
REMARK                            x       y       z     vdW  Elec       q    Type
REMARK                         _______ _______ _______ _____ _____    ______ ____
ROOT
ATOM      1  C   UNL     1       3.640   4.346  19.835  0.00  0.00    +0.000 A 
ATOM      2  C   UNL     1       2.597   5.156  20.309  0.00  0.00    +0.000 A 
ATOM      3  C   UNL     1       1.876   4.337  21.208  0.00  0.00    +0.000 A 
ATOM      4  N   UNL     1       2.433   3.145  21.380  0.00  0.00    +0.000 NA
ATOM      5  N   UNL     1       3.510   3.173  20.577  0.00  0.00    +0.000 N 
ATOM      6  C   UNL     1       4.356   1.998  20.599  0.00  0.00    +0.000 C 
ENDROOT
BRANCH   2   7
ATOM      7  C   UNL     1       2.275   6.524  19.922  0.00  0.00    +0.000 A 
ATOM      8  C   UNL     1       2.703   7.072  18.705  0.00  0.00    +0.000 A 
ATOM      9  C   UNL     1       2.300   8.353  18.324  0.00  0.00    +0.000 A 
ATOM     10  C   UNL     1       1.519   9.124  19.190  0.00  0.00    +0.000 A 
ATOM     11  C   UNL     1       1.159  10.504  18.830  0.00  0.00    +0.000 A 
ATOM     12  O   UNL     1       1.493  10.996  17.757  0.00  0.00    +0.000 OA
ATOM     13  N   UNL     1       0.446  11.203  19.771  0.00  0.00    +0.000 N 
ATOM     14  N   UNL     1      -0.018  10.719  20.952  0.00  0.00    +0.000 NA
ATOM     15  C   UNL     1       0.281   9.493  21.276  0.00  0.00    +0.000 A 
ATOM     16  C   UNL     1       1.111   8.612  20.417  0.00  0.00    +0.000 A 
ATOM     17  C   UNL     1       1.489   7.314  20.781  0.00  0.00    +0.000 A 
ATOM     18  H   UNL     1       0.205  12.165  19.551  0.00  0.00    +0.000 HD
BRANCH  15  19
ATOM     19  C   UNL     1      -0.272   8.971  22.607  0.00  0.00    +0.000 C 
BRANCH  19  20
ATOM     20  N   UNL     1       0.300   9.728  23.719  0.00  0.00    +0.000 NA
ATOM     21  H   UNL     1       1.298   9.867  23.549  0.00  0.00    +0.000 HD
ATOM     22  H   UNL     1       0.237   9.175  24.573  0.00  0.00    +0.000 HD
ENDBRANCH  19  20
ENDBRANCH  15  19
ENDBRANCH   2   7
BRANCH   1  27
ATOM     23  C   UNL     1       5.550   4.654  16.509  0.00  0.00    +0.000 A 
ATOM     24  C   UNL     1       6.737   5.239  16.954  0.00  0.00    +0.000 A 
ATOM     25  C   UNL     1       6.921   5.482  18.306  0.00  0.00    +0.000 A 
ATOM     26  C   UNL     1       5.897   5.198  19.209  0.00  0.00    +0.000 A 
ATOM     27  C   UNL     1       4.693   4.587  18.809  0.00  0.00    +0.000 A 
ATOM     28  C   UNL     1       4.541   4.292  17.431  0.00  0.00    +0.000 A 
BRANCH  23  30
ATOM     29  C   UNL     1       6.347   3.974  14.387  0.00  0.00    +0.000 C 
ATOM     30  O   UNL     1       5.275   4.478  15.174  0.00  0.00    +0.000 OA
ENDBRANCH  23  30
BRANCH  28  31
ATOM     31  C   UNL     1       3.389   3.603  16.905  0.00  0.00    +0.000 C 
ATOM     32  N   UNL     1       2.442   3.077  16.494  0.00  0.00    +0.000 NA
ENDBRANCH  28  31
ENDBRANCH   1  27
TORSDOF 6
ENDMDL
MODEL 2
REMARK VINA RESULT:      -7.6      1.922      2.518
REMARK  Name = 
REMARK  8 active torsions:
REMARK  status: ('A' for Active; 'I' for Inactive)
REMARK    1  A    between atoms: C_1  and  O_2
REMARK    2  A    between atoms: O_2  and  C_3
REMARK    3  A    between atoms: C_7  and  C_8
REMARK    4  A    between atoms: C_9  and  C_10
REMARK    5  A    between atoms: C_18  and  C_19
REMARK    6  A    between atoms: C_19  and  N_20
REMARK    7  A    between atoms: N_25  and  C_26
REMARK    8  A    between atoms: C_27  and  C_28
REMARK                            x       y       z     vdW  Elec       q    Type
REMARK                         _______ _______ _______ _____ _____    ______ ____
ROOT
ATOM      1  C   UNL     1       3.624   5.035  18.081  0.00  0.00    +0.000 A 
ATOM      2  C   UNL     1       2.429   5.770  18.096  0.00  0.00    +0.000 A 
ATOM      3  C   UNL     1       1.425   4.844  17.727  0.00  0.00    +0.000 A 
ATOM      4  N   UNL     1       1.891   3.611  17.575  0.00  0.00    +0.000 NA
ATOM      5  N   UNL     1       3.207   3.730  17.823  0.00  0.00    +0.000 N 
ATOM      6  C   UNL     1       3.980   2.508  17.779  0.00  0.00    +0.000 C 
ENDROOT
BRANCH   2   7
ATOM      7  C   UNL     1       2.250   7.191  18.367  0.00  0.00    +0.000 A 
ATOM      8  C   UNL     1       2.583   8.173  17.425  0.00  0.00    +0.000 A 
ATOM      9  C   UNL     1       2.314   9.520  17.679  0.00  0.00    +0.000 A 
ATOM     10  C   UNL     1       1.769   9.901  18.910  0.00  0.00    +0.000 A 
ATOM     11  C   UNL     1       1.558  11.324  19.216  0.00  0.00    +0.000 A 
ATOM     12  O   UNL     1       1.811  12.201  18.397  0.00  0.00    +0.000 OA
ATOM     13  N   UNL     1       1.080  11.603  20.471  0.00  0.00    +0.000 N 
ATOM     14  N   UNL     1       0.716  10.695  21.413  0.00  0.00    +0.000 NA
ATOM     15  C   UNL     1       0.883   9.430  21.149  0.00  0.00    +0.000 A 
ATOM     16  C   UNL     1       1.462   8.945  19.871  0.00  0.00    +0.000 A 
ATOM     17  C   UNL     1       1.702   7.592  19.599  0.00  0.00    +0.000 A 
ATOM     18  H   UNL     1       0.948  12.581  20.711  0.00  0.00    +0.000 HD
BRANCH  15  19
ATOM     19  C   UNL     1       0.446   8.431  22.226  0.00  0.00    +0.000 C 
BRANCH  19  20
ATOM     20  N   UNL     1      -0.439   9.086  23.188  0.00  0.00    +0.000 NA
ATOM     21  H   UNL     1      -0.284  10.095  23.150  0.00  0.00    +0.000 HD
ATOM     22  H   UNL     1      -0.183   8.800  24.132  0.00  0.00    +0.000 HD
ENDBRANCH  19  20
ENDBRANCH  15  19
ENDBRANCH   2   7
BRANCH   1  27
ATOM     23  C   UNL     1       7.083   6.683  17.726  0.00  0.00    +0.000 A 
ATOM     24  C   UNL     1       7.685   6.263  18.913  0.00  0.00    +0.000 A 
ATOM     25  C   UNL     1       6.993   5.431  19.779  0.00  0.00    +0.000 A 
ATOM     26  C   UNL     1       5.678   5.065  19.492  0.00  0.00    +0.000 A 
ATOM     27  C   UNL     1       5.040   5.445  18.295  0.00  0.00    +0.000 A 
ATOM     28  C   UNL     1       5.778   6.250  17.392  0.00  0.00    +0.000 A 
BRANCH  23  30
ATOM     29  C   UNL     1       8.088   8.811  17.471  0.00  0.00    +0.000 C 
ATOM     30  O   UNL     1       7.683   7.583  16.879  0.00  0.00    +0.000 OA
ENDBRANCH  23  30
BRANCH  28  31
ATOM     31  C   UNL     1       5.266   6.645  16.105  0.00  0.00    +0.000 C 
ATOM     32  N   UNL     1       4.884   6.983  15.063  0.00  0.00    +0.000 NA
ENDBRANCH  28  31
ENDBRANCH   1  27
TORSDOF 6
ENDMDL
MODEL 3
REMARK VINA RESULT:      -7.4      1.104      1.899
REMARK  Name = 
REMARK  8 active torsions:
REMARK  status: ('A' for Active; 'I' for Inactive)
REMARK    1  A    between atoms: C_1  and  O_2
REMARK    2  A    between atoms: O_2  and  C_3
REMARK    3  A    between atoms: C_7  and  C_8
REMARK    4  A    between atoms: C_9  and  C_10
REMARK    5  A    between atoms: C_18  and  C_19
REMARK    6  A    between atoms: C_19  and  N_20
REMARK    7  A    between atoms: N_25  and  C_26
REMARK    8  A    between atoms: C_27  and  C_28
REMARK                            x       y       z     vdW  Elec       q    Type
REMARK                         _______ _______ _______ _____ _____    ______ ____
ROOT
ATOM      1  C   UNL     1       3.432   4.123  19.468  0.00  0.00    +0.000 A 
ATOM      2  C   UNL     1       2.693   5.090  20.165  0.00  0.00    +0.000 A 
ATOM      3  C   UNL     1       2.241   4.434  21.334  0.00  0.00    +0.000 A 
ATOM      4  N   UNL     1       2.706   3.197  21.444  0.00  0.00    +0.000 NA
ATOM      5  N   UNL     1       3.448   3.031  20.335  0.00  0.00    +0.000 N 
ATOM      6  C   UNL     1       4.134   1.763  20.207  0.00  0.00    +0.000 C 
ENDROOT
BRANCH   2   7
ATOM      7  C   UNL     1       2.392   6.458  19.758  0.00  0.00    +0.000 A 
ATOM      8  C   UNL     1       2.849   6.988  18.545  0.00  0.00    +0.000 A 
ATOM      9  C   UNL     1       2.467   8.269  18.142  0.00  0.00    +0.000 A 
ATOM     10  C   UNL     1       1.677   9.057  18.985  0.00  0.00    +0.000 A 
ATOM     11  C   UNL     1       1.338  10.437  18.604  0.00  0.00    +0.000 A 
ATOM     12  O   UNL     1       1.698  10.914  17.533  0.00  0.00    +0.000 OA
ATOM     13  N   UNL     1       0.615  11.153  19.524  0.00  0.00    +0.000 N 
ATOM     14  N   UNL     1       0.124  10.685  20.701  0.00  0.00    +0.000 NA
ATOM     15  C   UNL     1       0.403   9.460  21.043  0.00  0.00    +0.000 A 
ATOM     16  C   UNL     1       1.240   8.562  20.209  0.00  0.00    +0.000 A 
ATOM     17  C   UNL     1       1.598   7.264  20.594  0.00  0.00    +0.000 A 
ATOM     18  H   UNL     1       0.388  12.115  19.290  0.00  0.00    +0.000 HD
BRANCH  15  19
ATOM     19  C   UNL     1      -0.180   8.958  22.368  0.00  0.00    +0.000 C 
BRANCH  19  20
ATOM     20  N   UNL     1       0.366   9.731  23.482  0.00  0.00    +0.000 NA
ATOM     21  H   UNL     1       1.188  10.245  23.160  0.00  0.00    +0.000 HD
ATOM     22  H   UNL     1       0.701   9.094  24.204  0.00  0.00    +0.000 HD
ENDBRANCH  19  20
ENDBRANCH  15  19
ENDBRANCH   2   7
BRANCH   1  27
ATOM     23  C   UNL     1       6.031   4.418  16.646  0.00  0.00    +0.000 A 
ATOM     24  C   UNL     1       5.259   4.028  15.551  0.00  0.00    +0.000 A 
ATOM     25  C   UNL     1       3.919   3.721  15.727  0.00  0.00    +0.000 A 
ATOM     26  C   UNL     1       3.362   3.745  17.006  0.00  0.00    +0.000 A 
ATOM     27  C   UNL     1       4.096   4.155  18.135  0.00  0.00    +0.000 A 
ATOM     28  C   UNL     1       5.451   4.520  17.932  0.00  0.00    +0.000 A 
BRANCH  23  30
ATOM     29  C   UNL     1       7.839   5.103  15.281  0.00  0.00    +0.000 C 
ATOM     30  O   UNL     1       7.383   4.641  16.547  0.00  0.00    +0.000 OA
ENDBRANCH  23  30
BRANCH  28  31
ATOM     31  C   UNL     1       6.287   5.026  18.991  0.00  0.00    +0.000 C 
ATOM     32  N   UNL     1       6.961   5.465  19.826  0.00  0.00    +0.000 NA
ENDBRANCH  28  31
ENDBRANCH   1  27
TORSDOF 6
ENDMDL
MODEL 4
REMARK VINA RESULT:      -7.3      2.351      4.465
REMARK  Name = 
REMARK  8 active torsions:
REMARK  status: ('A' for Active; 'I' for Inactive)
REMARK    1  A    between atoms: C_1  and  O_2
REMARK    2  A    between atoms: O_2  and  C_3
REMARK    3  A    between atoms: C_7  and  C_8
REMARK    4  A    between atoms: C_9  and  C_10
REMARK    5  A    between atoms: C_18  and  C_19
REMARK    6  A    between atoms: C_19  and  N_20
REMARK    7  A    between atoms: N_25  and  C_26
REMARK    8  A    between atoms: C_27  and  C_28
REMARK                            x       y       z     vdW  Elec       q    Type
REMARK                         _______ _______ _______ _____ _____    ______ ____
ROOT
ATOM      1  C   UNL     1       4.399   5.338  16.854  0.00  0.00    +0.000 A 
ATOM      2  C   UNL     1       4.010   6.675  17.020  0.00  0.00    +0.000 A 
ATOM      3  C   UNL     1       4.742   7.394  16.046  0.00  0.00    +0.000 A 
ATOM      4  N   UNL     1       5.466   6.607  15.261  0.00  0.00    +0.000 NA
ATOM      5  N   UNL     1       5.226   5.371  15.732  0.00  0.00    +0.000 N 
ATOM      6  C   UNL     1       5.858   4.281  15.021  0.00  0.00    +0.000 C 
ENDROOT
BRANCH   2   7
ATOM      7  C   UNL     1       3.100   7.230  18.016  0.00  0.00    +0.000 A 
ATOM      8  C   UNL     1       2.605   6.462  19.078  0.00  0.00    +0.000 A 
ATOM      9  C   UNL     1       1.810   7.048  20.066  0.00  0.00    +0.000 A 
ATOM     10  C   UNL     1       1.448   8.394  19.960  0.00  0.00    +0.000 A 
ATOM     11  C   UNL     1       0.545   8.996  20.954  0.00  0.00    +0.000 A 
ATOM     12  O   UNL     1       0.124   8.355  21.910  0.00  0.00    +0.000 OA
ATOM     13  N   UNL     1       0.195  10.304  20.731  0.00  0.00    +0.000 N 
ATOM     14  N   UNL     1       0.663  11.104  19.737  0.00  0.00    +0.000 NA
ATOM     15  C   UNL     1       1.475  10.588  18.860  0.00  0.00    +0.000 A 
ATOM     16  C   UNL     1       1.901   9.166  18.897  0.00  0.00    +0.000 A 
ATOM     17  C   UNL     1       2.726   8.584  17.926  0.00  0.00    +0.000 A 
ATOM     18  H   UNL     1      -0.444  10.733  21.393  0.00  0.00    +0.000 HD
BRANCH  15  19
ATOM     19  C   UNL     1       1.998  11.520  17.762  0.00  0.00    +0.000 C 
BRANCH  19  20
ATOM     20  N   UNL     1       1.573  12.893  18.027  0.00  0.00    +0.000 NA
ATOM     21  H   UNL     1       1.192  13.296  17.169  0.00  0.00    +0.000 HD
ATOM     22  H   UNL     1       2.387  13.460  18.264  0.00  0.00    +0.000 HD
ENDBRANCH  19  20
ENDBRANCH  15  19
ENDBRANCH   2   7
BRANCH   1  27
ATOM     23  C   UNL     1       4.240   2.580  19.533  0.00  0.00    +0.000 A 
ATOM     24  C   UNL     1       3.191   1.806  19.035  0.00  0.00    +0.000 A 
ATOM     25  C   UNL     1       2.587   2.153  17.837  0.00  0.00    +0.000 A 
ATOM     26  C   UNL     1       2.987   3.308  17.165  0.00  0.00    +0.000 A 
ATOM     27  C   UNL     1       4.056   4.105  17.617  0.00  0.00    +0.000 A 
ATOM     28  C   UNL     1       4.703   3.707  18.814  0.00  0.00    +0.000 A 
BRANCH  23  30
ATOM     29  C   UNL     1       5.294   1.016  20.963  0.00  0.00    +0.000 C 
ATOM     30  O   UNL     1       4.812   2.339  20.759  0.00  0.00    +0.000 OA
ENDBRANCH  23  30
BRANCH  28  31
ATOM     31  C   UNL     1       5.853   4.395  19.342  0.00  0.00    +0.000 C 
ATOM     32  N   UNL     1       6.757   4.966  19.792  0.00  0.00    +0.000 NA
ENDBRANCH  28  31
ENDBRANCH   1  27
TORSDOF 6
ENDMDL
MODEL 5
REMARK VINA RESULT:      -7.3      2.182      7.866
REMARK  Name = 
REMARK  8 active torsions:
REMARK  status: ('A' for Active; 'I' for Inactive)
REMARK    1  A    between atoms: C_1  and  O_2
REMARK    2  A    between atoms: O_2  and  C_3
REMARK    3  A    between atoms: C_7  and  C_8
REMARK    4  A    between atoms: C_9  and  C_10
REMARK    5  A    between atoms: C_18  and  C_19
REMARK    6  A    between atoms: C_19  and  N_20
REMARK    7  A    between atoms: N_25  and  C_26
REMARK    8  A    between atoms: C_27  and  C_28
REMARK                            x       y       z     vdW  Elec       q    Type
REMARK                         _______ _______ _______ _____ _____    ______ ____
ROOT
ATOM      1  C   UNL     1      -0.138  10.258  21.403  0.00  0.00    +0.000 A 
ATOM      2  C   UNL     1       0.654   9.116  21.594  0.00  0.00    +0.000 A 
ATOM      3  C   UNL     1       0.686   8.922  22.995  0.00  0.00    +0.000 A 
ATOM      4  N   UNL     1      -0.077   9.786  23.653  0.00  0.00    +0.000 NA
ATOM      5  N   UNL     1      -0.594  10.563  22.685  0.00  0.00    +0.000 N 
ATOM      6  C   UNL     1      -1.525  11.585  23.113  0.00  0.00    +0.000 C 
ENDROOT
BRANCH   2   7
ATOM      7  C   UNL     1       1.353   8.327  20.587  0.00  0.00    +0.000 A 
ATOM      8  C   UNL     1       1.848   8.900  19.408  0.00  0.00    +0.000 A 
ATOM      9  C   UNL     1       2.593   8.137  18.507  0.00  0.00    +0.000 A 
ATOM     10  C   UNL     1       2.790   6.773  18.747  0.00  0.00    +0.000 A 
ATOM     11  C   UNL     1       3.504   5.945  17.762  0.00  0.00    +0.000 A 
ATOM     12  O   UNL     1       3.975   6.428  16.739  0.00  0.00    +0.000 OA
ATOM     13  N   UNL     1       3.591   4.607  18.054  0.00  0.00    +0.000 N 
ATOM     14  N   UNL     1       3.154   4.002  19.189  0.00  0.00    +0.000 NA
ATOM     15  C   UNL     1       2.534   4.726  20.076  0.00  0.00    +0.000 A 
ATOM     16  C   UNL     1       2.278   6.177  19.894  0.00  0.00    +0.000 A 
ATOM     17  C   UNL     1       1.561   6.954  20.812  0.00  0.00    +0.000 A 
ATOM     18  H   UNL     1       4.061   4.014  17.378  0.00  0.00    +0.000 HD
BRANCH  15  19
ATOM     19  C   UNL     1       2.070   4.017  21.353  0.00  0.00    +0.000 C 
BRANCH  19  20
ATOM     20  N   UNL     1       0.994   3.078  21.041  0.00  0.00    +0.000 NA
ATOM     21  H   UNL     1       0.842   2.467  21.846  0.00  0.00    +0.000 HD
ATOM     22  H   UNL     1       1.287   2.468  20.279  0.00  0.00    +0.000 HD
ENDBRANCH  19  20
ENDBRANCH  15  19
ENDBRANCH   2   7
BRANCH   1  27
ATOM     23  C   UNL     1      -0.246  12.901  18.609  0.00  0.00    +0.000 A 
ATOM     24  C   UNL     1      -1.143  12.298  17.726  0.00  0.00    +0.000 A 
ATOM     25  C   UNL     1      -1.727  11.085  18.058  0.00  0.00    +0.000 A 
ATOM     26  C   UNL     1      -1.370  10.443  19.244  0.00  0.00    +0.000 A 
ATOM     27  C   UNL     1      -0.488  11.026  20.175  0.00  0.00    +0.000 A 
ATOM     28  C   UNL     1       0.058  12.292  19.849  0.00  0.00    +0.000 A 
BRANCH  23  30
ATOM     29  C   UNL     1      -0.213  15.267  18.650  0.00  0.00    +0.000 C 
ATOM     30  O   UNL     1       0.433  14.052  18.290  0.00  0.00    +0.000 OA
ENDBRANCH  23  30
BRANCH  28  31
ATOM     31  C   UNL     1       0.914  13.025  20.747  0.00  0.00    +0.000 C 
ATOM     32  N   UNL     1       1.629  13.589  21.465  0.00  0.00    +0.000 NA
ENDBRANCH  28  31
ENDBRANCH   1  27
TORSDOF 6
ENDMDL
MODEL 6
REMARK VINA RESULT:      -7.3      2.215      3.503
REMARK  Name = 
REMARK  8 active torsions:
REMARK  status: ('A' for Active; 'I' for Inactive)
REMARK    1  A    between atoms: C_1  and  O_2
REMARK    2  A    between atoms: O_2  and  C_3
REMARK    3  A    between atoms: C_7  and  C_8
REMARK    4  A    between atoms: C_9  and  C_10
REMARK    5  A    between atoms: C_18  and  C_19
REMARK    6  A    between atoms: C_19  and  N_20
REMARK    7  A    between atoms: N_25  and  C_26
REMARK    8  A    between atoms: C_27  and  C_28
REMARK                            x       y       z     vdW  Elec       q    Type
REMARK                         _______ _______ _______ _____ _____    ______ ____
ROOT
ATOM      1  C   UNL     1       3.971   4.659  17.844  0.00  0.00    +0.000 A 
ATOM      2  C   UNL     1       2.661   4.968  18.239  0.00  0.00    +0.000 A 
ATOM      3  C   UNL     1       1.842   4.047  17.546  0.00  0.00    +0.000 A 
ATOM      4  N   UNL     1       2.539   3.165  16.841  0.00  0.00    +0.000 NA
ATOM      5  N   UNL     1       3.818   3.520  17.054  0.00  0.00    +0.000 N 
ATOM      6  C   UNL     1       4.826   2.685  16.436  0.00  0.00    +0.000 C 
ENDROOT
BRANCH   2   7
ATOM      7  C   UNL     1       2.218   6.042  19.120  0.00  0.00    +0.000 A 
ATOM      8  C   UNL     1       1.894   5.813  20.464  0.00  0.00    +0.000 A 
ATOM      9  C   UNL     1       1.562   6.877  21.305  0.00  0.00    +0.000 A 
ATOM     10  C   UNL     1       1.485   8.174  20.788  0.00  0.00    +0.000 A 
ATOM     11  C   UNL     1       1.057   9.288  21.649  0.00  0.00    +0.000 A 
ATOM     12  O   UNL     1       0.800   9.120  22.836  0.00  0.00    +0.000 OA
ATOM     13  N   UNL     1       0.950  10.512  21.037  0.00  0.00    +0.000 N 
ATOM     14  N   UNL     1       1.274  10.798  19.749  0.00  0.00    +0.000 NA
ATOM     15  C   UNL     1       1.669   9.824  18.981  0.00  0.00    +0.000 A 
ATOM     16  C   UNL     1       1.770   8.419  19.450  0.00  0.00    +0.000 A 
ATOM     17  C   UNL     1       2.136   7.354  18.617  0.00  0.00    +0.000 A 
ATOM     18  H   UNL     1       0.636  11.291  21.608  0.00  0.00    +0.000 HD
BRANCH  15  19
ATOM     19  C   UNL     1       2.044  10.184  17.539  0.00  0.00    +0.000 C 
BRANCH  19  20
ATOM     20  N   UNL     1       2.458  11.583  17.463  0.00  0.00    +0.000 NA
ATOM     21  H   UNL     1       3.095  11.785  18.235  0.00  0.00    +0.000 HD
ATOM     22  H   UNL     1       1.648  12.184  17.605  0.00  0.00    +0.000 HD
ENDBRANCH  19  20
ENDBRANCH  15  19
ENDBRANCH   2   7
BRANCH   1  27
ATOM     23  C   UNL     1       7.071   6.937  17.755  0.00  0.00    +0.000 A 
ATOM     24  C   UNL     1       7.697   6.556  18.943  0.00  0.00    +0.000 A 
ATOM     25  C   UNL     1       7.143   5.554  19.723  0.00  0.00    +0.000 A 
ATOM     26  C   UNL     1       5.931   4.972  19.351  0.00  0.00    +0.000 A 
ATOM     27  C   UNL     1       5.277   5.307  18.150  0.00  0.00    +0.000 A 
ATOM     28  C   UNL     1       5.884   6.294  17.333  0.00  0.00    +0.000 A 
BRANCH  23  30
ATOM     29  C   UNL     1       8.134   9.051  17.712  0.00  0.00    +0.000 C 
ATOM     30  O   UNL     1       7.522   7.987  16.993  0.00  0.00    +0.000 OA
ENDBRANCH  23  30
BRANCH  28  31
ATOM     31  C   UNL     1       5.353   6.674  16.048  0.00  0.00    +0.000 C 
ATOM     32  N   UNL     1       4.936   6.947  15.001  0.00  0.00    +0.000 NA
ENDBRANCH  28  31
ENDBRANCH   1  27
TORSDOF 6
ENDMDL
MODEL 7
REMARK VINA RESULT:      -7.2      2.270      4.457
REMARK  Name = 
REMARK  8 active torsions:
REMARK  status: ('A' for Active; 'I' for Inactive)
REMARK    1  A    between atoms: C_1  and  O_2
REMARK    2  A    between atoms: O_2  and  C_3
REMARK    3  A    between atoms: C_7  and  C_8
REMARK    4  A    between atoms: C_9  and  C_10
REMARK    5  A    between atoms: C_18  and  C_19
REMARK    6  A    between atoms: C_19  and  N_20
REMARK    7  A    between atoms: N_25  and  C_26
REMARK    8  A    between atoms: C_27  and  C_28
REMARK                            x       y       z     vdW  Elec       q    Type
REMARK                         _______ _______ _______ _____ _____    ______ ____
ROOT
ATOM      1  C   UNL     1       4.680   5.107  16.606  0.00  0.00    +0.000 A 
ATOM      2  C   UNL     1       4.401   6.482  16.627  0.00  0.00    +0.000 A 
ATOM      3  C   UNL     1       5.210   7.036  15.608  0.00  0.00    +0.000 A 
ATOM      4  N   UNL     1       5.881   6.117  14.926  0.00  0.00    +0.000 NA
ATOM      5  N   UNL     1       5.530   4.959  15.510  0.00  0.00    +0.000 N 
ATOM      6  C   UNL     1       6.082   3.754  14.930  0.00  0.00    +0.000 C 
ENDROOT
BRANCH   2   7
ATOM      7  C   UNL     1       3.521   7.207  17.536  0.00  0.00    +0.000 A 
ATOM      8  C   UNL     1       3.154   8.539  17.308  0.00  0.00    +0.000 A 
ATOM      9  C   UNL     1       2.237   9.176  18.147  0.00  0.00    +0.000 A 
ATOM     10  C   UNL     1       1.731   8.503  19.263  0.00  0.00    +0.000 A 
ATOM     11  C   UNL     1       0.828   9.194  20.196  0.00  0.00    +0.000 A 
ATOM     12  O   UNL     1       0.466  10.349  20.002  0.00  0.00    +0.000 OA
ATOM     13  N   UNL     1       0.435   8.473  21.296  0.00  0.00    +0.000 N 
ATOM     14  N   UNL     1       0.737   7.174  21.555  0.00  0.00    +0.000 NA
ATOM     15  C   UNL     1       1.523   6.546  20.729  0.00  0.00    +0.000 A 
ATOM     16  C   UNL     1       2.108   7.190  19.527  0.00  0.00    +0.000 A 
ATOM     17  C   UNL     1       3.002   6.544  18.664  0.00  0.00    +0.000 A 
ATOM     18  H   UNL     1      -0.171   8.938  21.964  0.00  0.00    +0.000 HD
BRANCH  15  19
ATOM     19  C   UNL     1       1.829   5.077  21.041  0.00  0.00    +0.000 C 
BRANCH  19  20
ATOM     20  N   UNL     1       0.809   4.215  20.447  0.00  0.00    +0.000 NA
ATOM     21  H   UNL     1       0.808   4.349  19.434  0.00  0.00    +0.000 HD
ATOM     22  H   UNL     1      -0.112   4.509  20.769  0.00  0.00    +0.000 HD
ENDBRANCH  19  20
ENDBRANCH  15  19
ENDBRANCH   2   7
BRANCH   1  27
ATOM     23  C   UNL     1       4.196   2.692  19.561  0.00  0.00    +0.000 A 
ATOM     24  C   UNL     1       3.138   1.917  19.083  0.00  0.00    +0.000 A 
ATOM     25  C   UNL     1       2.631   2.152  17.815  0.00  0.00    +0.000 A 
ATOM     26  C   UNL     1       3.138   3.199  17.045  0.00  0.00    +0.000 A 
ATOM     27  C   UNL     1       4.220   3.990  17.478  0.00  0.00    +0.000 A 
ATOM     28  C   UNL     1       4.766   3.703  18.754  0.00  0.00    +0.000 A 
BRANCH  23  30
ATOM     29  C   UNL     1       5.213   1.293  21.178  0.00  0.00    +0.000 C 
ATOM     30  O   UNL     1       4.674   2.567  20.843  0.00  0.00    +0.000 OA
ENDBRANCH  23  30
BRANCH  28  31
ATOM     31  C   UNL     1       5.919   4.390  19.279  0.00  0.00    +0.000 C 
ATOM     32  N   UNL     1       6.844   4.967  19.674  0.00  0.00    +0.000 NA
ENDBRANCH  28  31
ENDBRANCH   1  27
TORSDOF 6
ENDMDL
MODEL 8
REMARK VINA RESULT:      -6.7      2.395      4.401
REMARK  Name = 
REMARK  8 active torsions:
REMARK  status: ('A' for Active; 'I' for Inactive)
REMARK    1  A    between atoms: C_1  and  O_2
REMARK    2  A    between atoms: O_2  and  C_3
REMARK    3  A    between atoms: C_7  and  C_8
REMARK    4  A    between atoms: C_9  and  C_10
REMARK    5  A    between atoms: C_18  and  C_19
REMARK    6  A    between atoms: C_19  and  N_20
REMARK    7  A    between atoms: N_25  and  C_26
REMARK    8  A    between atoms: C_27  and  C_28
REMARK                            x       y       z     vdW  Elec       q    Type
REMARK                         _______ _______ _______ _____ _____    ______ ____
ROOT
ATOM      1  C   UNL     1       3.621   5.819  17.574  0.00  0.00    +0.000 A 
ATOM      2  C   UNL     1       3.293   7.164  17.802  0.00  0.00    +0.000 A 
ATOM      3  C   UNL     1       4.073   7.894  16.874  0.00  0.00    +0.000 A 
ATOM      4  N   UNL     1       4.772   7.113  16.061  0.00  0.00    +0.000 NA
ATOM      5  N   UNL     1       4.467   5.868  16.466  0.00  0.00    +0.000 N 
ATOM      6  C   UNL     1       5.059   4.785  15.710  0.00  0.00    +0.000 C 
ENDROOT
BRANCH   2   7
ATOM      7  C   UNL     1       2.395   7.711  18.811  0.00  0.00    +0.000 A 
ATOM      8  C   UNL     1       2.076   7.008  19.980  0.00  0.00    +0.000 A 
ATOM      9  C   UNL     1       1.287   7.599  20.970  0.00  0.00    +0.000 A 
ATOM     10  C   UNL     1       0.754   8.875  20.766  0.00  0.00    +0.000 A 
ATOM     11  C   UNL     1      -0.144   9.470  21.768  0.00  0.00    +0.000 A 
ATOM     12  O   UNL     1      -0.413   8.889  22.814  0.00  0.00    +0.000 OA
ATOM     13  N   UNL     1      -0.669  10.697  21.450  0.00  0.00    +0.000 N 
ATOM     14  N   UNL     1      -0.376  11.435  20.348  0.00  0.00    +0.000 NA
ATOM     15  C   UNL     1       0.430  10.927  19.460  0.00  0.00    +0.000 A 
ATOM     16  C   UNL     1       1.031   9.577  19.598  0.00  0.00    +0.000 A 
ATOM     17  C   UNL     1       1.850   8.995  18.622  0.00  0.00    +0.000 A 
ATOM     18  H   UNL     1      -1.308  11.117  22.118  0.00  0.00    +0.000 HD
BRANCH  15  19
ATOM     19  C   UNL     1       0.752  11.793  18.237  0.00  0.00    +0.000 C 
BRANCH  19  20
ATOM     20  N   UNL     1      -0.416  12.588  17.863  0.00  0.00    +0.000 NA
ATOM     21  H   UNL     1      -0.463  12.653  16.845  0.00  0.00    +0.000 HD
ATOM     22  H   UNL     1      -0.296  13.543  18.198  0.00  0.00    +0.000 HD
ENDBRANCH  19  20
ENDBRANCH  15  19
ENDBRANCH   2   7
BRANCH   1  27
ATOM     23  C   UNL     1       3.466   2.801  19.956  0.00  0.00    +0.000 A 
ATOM     24  C   UNL     1       2.223   2.270  19.608  0.00  0.00    +0.000 A 
ATOM     25  C   UNL     1       1.481   2.857  18.595  0.00  0.00    +0.000 A 
ATOM     26  C   UNL     1       1.951   4.012  17.968  0.00  0.00    +0.000 A 
ATOM     27  C   UNL     1       3.209   4.568  18.270  0.00  0.00    +0.000 A 
ATOM     28  C   UNL     1       3.982   3.924  19.268  0.00  0.00    +0.000 A 
BRANCH  23  30
ATOM     29  C   UNL     1       5.027   1.198  20.727  0.00  0.00    +0.000 C 
ATOM     30  O   UNL     1       4.199   2.319  21.013  0.00  0.00    +0.000 OA
ENDBRANCH  23  30
BRANCH  28  31
ATOM     31  C   UNL     1       5.314   4.351  19.617  0.00  0.00    +0.000 C 
ATOM     32  N   UNL     1       6.398   4.675  19.870  0.00  0.00    +0.000 NA
ENDBRANCH  28  31
ENDBRANCH   1  27
TORSDOF 6
ENDMDL
MODEL 9
REMARK VINA RESULT:      -6.7      6.790     11.554
REMARK  Name = 
REMARK  8 active torsions:
REMARK  status: ('A' for Active; 'I' for Inactive)
REMARK    1  A    between atoms: C_1  and  O_2
REMARK    2  A    between atoms: O_2  and  C_3
REMARK    3  A    between atoms: C_7  and  C_8
REMARK    4  A    between atoms: C_9  and  C_10
REMARK    5  A    between atoms: C_18  and  C_19
REMARK    6  A    between atoms: C_19  and  N_20
REMARK    7  A    between atoms: N_25  and  C_26
REMARK    8  A    between atoms: C_27  and  C_28
REMARK                            x       y       z     vdW  Elec       q    Type
REMARK                         _______ _______ _______ _____ _____    ______ ____
ROOT
ATOM      1  C   UNL     1      -5.028  14.501  21.196  0.00  0.00    +0.000 A 
ATOM      2  C   UNL     1      -3.625  14.514  21.222  0.00  0.00    +0.000 A 
ATOM      3  C   UNL     1      -3.262  15.798  20.753  0.00  0.00    +0.000 A 
ATOM      4  N   UNL     1      -4.309  16.581  20.529  0.00  0.00    +0.000 NA
ATOM      5  N   UNL     1      -5.364  15.804  20.831  0.00  0.00    +0.000 N 
ATOM      6  C   UNL     1      -6.667  16.425  20.727  0.00  0.00    +0.000 C 
ENDROOT
BRANCH   2   7
ATOM      7  C   UNL     1      -2.723  13.429  21.587  0.00  0.00    +0.000 A 
ATOM      8  C   UNL     1      -2.411  13.141  22.922  0.00  0.00    +0.000 A 
ATOM      9  C   UNL     1      -1.617  12.038  23.243  0.00  0.00    +0.000 A 
ATOM     10  C   UNL     1      -1.072  11.252  22.223  0.00  0.00    +0.000 A 
ATOM     11  C   UNL     1      -0.169  10.138  22.551  0.00  0.00    +0.000 A 
ATOM     12  O   UNL     1       0.094   9.845  23.712  0.00  0.00    +0.000 OA
ATOM     13  N   UNL     1       0.367   9.466  21.481  0.00  0.00    +0.000 N 
ATOM     14  N   UNL     1       0.083   9.683  20.171  0.00  0.00    +0.000 NA
ATOM     15  C   UNL     1      -0.728  10.656  19.867  0.00  0.00    +0.000 A 
ATOM     16  C   UNL     1      -1.342  11.540  20.890  0.00  0.00    +0.000 A 
ATOM     17  C   UNL     1      -2.166  12.627  20.573  0.00  0.00    +0.000 A 
ATOM     18  H   UNL     1       1.010   8.707  21.684  0.00  0.00    +0.000 HD
BRANCH  15  19
ATOM     19  C   UNL     1      -1.042  10.863  18.382  0.00  0.00    +0.000 C 
BRANCH  19  20
ATOM     20  N   UNL     1      -2.315  10.230  18.045  0.00  0.00    +0.000 NA
ATOM     21  H   UNL     1      -2.186   9.634  17.225  0.00  0.00    +0.000 HD
ATOM     22  H   UNL     1      -2.986  10.945  17.768  0.00  0.00    +0.000 HD
ENDBRANCH  19  20
ENDBRANCH  15  19
ENDBRANCH   2   7
BRANCH   1  27
ATOM     23  C   UNL     1      -7.086  11.252  21.081  0.00  0.00    +0.000 A 
ATOM     24  C   UNL     1      -7.827  11.382  22.256  0.00  0.00    +0.000 A 
ATOM     25  C   UNL     1      -7.688  12.519  23.037  0.00  0.00    +0.000 A 
ATOM     26  C   UNL     1      -6.764  13.500  22.678  0.00  0.00    +0.000 A 
ATOM     27  C   UNL     1      -6.014  13.423  21.489  0.00  0.00    +0.000 A 
ATOM     28  C   UNL     1      -6.207  12.282  20.671  0.00  0.00    +0.000 A 
BRANCH  23  30
ATOM     29  C   UNL     1      -7.864   9.028  20.860  0.00  0.00    +0.000 C 
ATOM     30  O   UNL     1      -7.113  10.109  20.320  0.00  0.00    +0.000 OA
ENDBRANCH  23  30
BRANCH  28  31
ATOM     31  C   UNL     1      -5.554  12.118  19.397  0.00  0.00    +0.000 C 
ATOM     32  N   UNL     1      -5.033  12.022  18.365  0.00  0.00    +0.000 NA
ENDBRANCH  28  31
ENDBRANCH   1  27
TORSDOF 6
ENDMDL
