MODEL 1
REMARK VINA RESULT:      -7.0      0.000      0.000
REMARK  Name = 
REMARK  6 active torsions:
REMARK  status: ('A' for Active; 'I' for Inactive)
REMARK    1  A    between atoms: C_1  and  C_2
REMARK    2  A    between atoms: N_4  and  C_5
REMARK    3  A    between atoms: C_5  and  C_6
REMARK    4  A    between atoms: N_8  and  C_9
REMARK    5  A    between atoms: C_9  and  C_10
REMARK    6  A    between atoms: C_20  and  C_21
REMARK                            x       y       z     vdW  Elec       q    Type
REMARK                         _______ _______ _______ _____ _____    ______ ____
ROOT
ATOM      1  C   UNL     1       4.412   6.135  17.825  0.00  0.00    +0.000 A 
ATOM      2  C   UNL     1       5.468   5.291  17.572  0.00  0.00    +0.000 A 
ATOM      3  N   UNL     1       5.980   5.739  16.393  0.00  0.00    +0.000 N 
ATOM      4  N   UNL     1       5.223   6.729  15.880  0.00  0.00    +0.000 NA
ATOM      5  N   UNL     1       4.263   6.992  16.761  0.00  0.00    +0.000 NA
ENDROOT
BRANCH   1   6
ATOM      6  C   UNL     1       3.567   6.263  19.056  0.00  0.00    +0.000 C 
BRANCH   6  10
ATOM      7  C   UNL     1       2.383   2.722  21.452  0.00  0.00    +0.000 C 
ATOM      8  C   UNL     1       1.383   3.704  20.845  0.00  0.00    +0.000 C 
ATOM      9  C   UNL     1       2.020   5.068  20.522  0.00  0.00    +0.000 C 
ATOM     10  N   UNL     1       2.880   4.986  19.323  0.00  0.00    +0.000 NA
ATOM     11  C   UNL     1       2.001   4.600  18.200  0.00  0.00    +0.000 C 
ATOM     12  C   UNL     1       1.322   3.233  18.451  0.00  0.00    +0.000 C 
ATOM     13  C   UNL     1       2.260   2.054  18.202  0.00  0.00    +0.000 C 
ATOM     14  O   UNL     1       0.673   3.141  19.730  0.00  0.00    +0.000 OA
ENDBRANCH   6  10
ENDBRANCH   1   6
BRANCH   3  15
ATOM     15  C   UNL     1       7.192   5.300  15.717  0.00  0.00    +0.000 C 
BRANCH  15  16
ATOM     16  C   UNL     1       6.873   4.655  14.389  0.00  0.00    +0.000 A 
ATOM     17  C   UNL     1       5.789   3.764  14.300  0.00  0.00    +0.000 A 
ATOM     18  C   UNL     1       5.430   3.249  13.062  0.00  0.00    +0.000 A 
ATOM     19  N   UNL     1       6.065   3.557  11.913  0.00  0.00    +0.000 NA
ATOM     20  C   UNL     1       7.118   4.400  12.013  0.00  0.00    +0.000 A 
ATOM     21  C   UNL     1       7.568   4.952  13.208  0.00  0.00    +0.000 A 
ATOM     22 CL   UNL     1       8.973   5.945  13.173  0.00  0.00    +0.000 Cl
ENDBRANCH  15  16
ENDBRANCH   3  15
TORSDOF 4
ENDMDL
MODEL 2
REMARK VINA RESULT:      -6.8      4.856      7.975
REMARK  Name = 
REMARK  6 active torsions:
REMARK  status: ('A' for Active; 'I' for Inactive)
REMARK    1  A    between atoms: C_1  and  C_2
REMARK    2  A    between atoms: N_4  and  C_5
REMARK    3  A    between atoms: C_5  and  C_6
REMARK    4  A    between atoms: N_8  and  C_9
REMARK    5  A    between atoms: C_9  and  C_10
REMARK    6  A    between atoms: C_20  and  C_21
REMARK                            x       y       z     vdW  Elec       q    Type
REMARK                         _______ _______ _______ _____ _____    ______ ____
ROOT
ATOM      1  C   UNL     1       2.971   6.504  19.107  0.00  0.00    +0.000 A 
ATOM      2  C   UNL     1       2.866   7.412  18.079  0.00  0.00    +0.000 A 
ATOM      3  N   UNL     1       2.063   8.391  18.578  0.00  0.00    +0.000 N 
ATOM      4  N   UNL     1       1.599   8.063  19.800  0.00  0.00    +0.000 NA
ATOM      5  N   UNL     1       2.164   6.910  20.143  0.00  0.00    +0.000 NA
ENDROOT
BRANCH   1   6
ATOM      6  C   UNL     1       3.859   5.304  19.232  0.00  0.00    +0.000 C 
BRANCH   6  10
ATOM      7  C   UNL     1       7.501   7.165  17.515  0.00  0.00    +0.000 C 
ATOM      8  C   UNL     1       7.456   5.737  18.054  0.00  0.00    +0.000 C 
ATOM      9  C   UNL     1       6.285   5.512  19.027  0.00  0.00    +0.000 C 
ATOM     10  N   UNL     1       4.999   5.428  18.305  0.00  0.00    +0.000 NA
ATOM     11  C   UNL     1       5.095   4.259  17.407  0.00  0.00    +0.000 C 
ATOM     12  C   UNL     1       6.254   4.412  16.394  0.00  0.00    +0.000 C 
ATOM     13  C   UNL     1       5.907   5.347  15.239  0.00  0.00    +0.000 C 
ATOM     14  O   UNL     1       7.508   4.755  17.005  0.00  0.00    +0.000 OA
ENDBRANCH   6  10
ENDBRANCH   1   6
BRANCH   3  15
ATOM     15  C   UNL     1       1.722   9.668  17.968  0.00  0.00    +0.000 C 
BRANCH  15  16
ATOM     16  C   UNL     1       0.745  10.439  18.824  0.00  0.00    +0.000 A 
ATOM     17  C   UNL     1       1.219  11.136  19.948  0.00  0.00    +0.000 A 
ATOM     18  C   UNL     1       0.343  11.928  20.678  0.00  0.00    +0.000 A 
ATOM     19  N   UNL     1      -0.961  12.078  20.370  0.00  0.00    +0.000 NA
ATOM     20  C   UNL     1      -1.411  11.386  19.298  0.00  0.00    +0.000 A 
ATOM     21  C   UNL     1      -0.617  10.552  18.516  0.00  0.00    +0.000 A 
ATOM     22 CL   UNL     1      -1.364   9.682  17.232  0.00  0.00    +0.000 Cl
ENDBRANCH  15  16
ENDBRANCH   3  15
TORSDOF 4
ENDMDL
MODEL 3
REMARK VINA RESULT:      -6.8      4.869      7.747
REMARK  Name = 
REMARK  6 active torsions:
REMARK  status: ('A' for Active; 'I' for Inactive)
REMARK    1  A    between atoms: C_1  and  C_2
REMARK    2  A    between atoms: N_4  and  C_5
REMARK    3  A    between atoms: C_5  and  C_6
REMARK    4  A    between atoms: N_8  and  C_9
REMARK    5  A    between atoms: C_9  and  C_10
REMARK    6  A    between atoms: C_20  and  C_21
REMARK                            x       y       z     vdW  Elec       q    Type
REMARK                         _______ _______ _______ _____ _____    ______ ____
ROOT
ATOM      1  C   UNL     1       2.731   6.463  18.866  0.00  0.00    +0.000 A 
ATOM      2  C   UNL     1       2.663   7.455  17.916  0.00  0.00    +0.000 A 
ATOM      3  N   UNL     1       2.123   8.515  18.576  0.00  0.00    +0.000 N 
ATOM      4  N   UNL     1       1.768   8.176  19.831  0.00  0.00    +0.000 NA
ATOM      5  N   UNL     1       2.152   6.919  20.027  0.00  0.00    +0.000 NA
ENDROOT
BRANCH   1   6
ATOM      6  C   UNL     1       3.394   5.121  18.798  0.00  0.00    +0.000 C 
BRANCH   6  10
ATOM      7  C   UNL     1       7.304   6.870  17.643  0.00  0.00    +0.000 C 
ATOM      8  C   UNL     1       7.130   5.428  18.116  0.00  0.00    +0.000 C 
ATOM      9  C   UNL     1       5.832   5.225  18.919  0.00  0.00    +0.000 C 
ATOM     10  N   UNL     1       4.650   5.224  18.033  0.00  0.00    +0.000 NA
ATOM     11  C   UNL     1       4.816   4.082  17.111  0.00  0.00    +0.000 C 
ATOM     12  C   UNL     1       6.104   4.215  16.265  0.00  0.00    +0.000 C 
ATOM     13  C   UNL     1       5.951   5.202  15.111  0.00  0.00    +0.000 C 
ATOM     14  O   UNL     1       7.279   4.480  17.047  0.00  0.00    +0.000 OA
ENDBRANCH   6  10
ENDBRANCH   1   6
BRANCH   3  15
ATOM     15  C   UNL     1       1.945   9.877  18.093  0.00  0.00    +0.000 C 
BRANCH  15  16
ATOM     16  C   UNL     1       0.552  10.383  18.386  0.00  0.00    +0.000 A 
ATOM     17  C   UNL     1      -0.539   9.829  17.696  0.00  0.00    +0.000 A 
ATOM     18  C   UNL     1      -1.828  10.218  18.035  0.00  0.00    +0.000 A 
ATOM     19  N   UNL     1      -2.107  11.109  19.007  0.00  0.00    +0.000 NA
ATOM     20  C   UNL     1      -1.048  11.651  19.651  0.00  0.00    +0.000 A 
ATOM     21  C   UNL     1       0.279  11.342  19.371  0.00  0.00    +0.000 A 
ATOM     22 CL   UNL     1       1.513  12.179  20.231  0.00  0.00    +0.000 Cl
ENDBRANCH  15  16
ENDBRANCH   3  15
TORSDOF 4
ENDMDL
MODEL 4
REMARK VINA RESULT:      -6.7      5.034      7.575
REMARK  Name = 
REMARK  6 active torsions:
REMARK  status: ('A' for Active; 'I' for Inactive)
REMARK    1  A    between atoms: C_1  and  C_2
REMARK    2  A    between atoms: N_4  and  C_5
REMARK    3  A    between atoms: C_5  and  C_6
REMARK    4  A    between atoms: N_8  and  C_9
REMARK    5  A    between atoms: C_9  and  C_10
REMARK    6  A    between atoms: C_20  and  C_21
REMARK                            x       y       z     vdW  Elec       q    Type
REMARK                         _______ _______ _______ _____ _____    ______ ____
ROOT
ATOM      1  C   UNL     1       2.590   7.457  18.511  0.00  0.00    +0.000 A 
ATOM      2  C   UNL     1       1.941   8.446  17.808  0.00  0.00    +0.000 A 
ATOM      3  N   UNL     1       1.284   9.160  18.762  0.00  0.00    +0.000 N 
ATOM      4  N   UNL     1       1.418   8.588  19.975  0.00  0.00    +0.000 NA
ATOM      5  N   UNL     1       2.233   7.547  19.836  0.00  0.00    +0.000 NA
ENDROOT
BRANCH   1   6
ATOM      6  C   UNL     1       3.612   6.468  18.043  0.00  0.00    +0.000 C 
BRANCH   6  10
ATOM      7  C   UNL     1       0.964   3.385  19.822  0.00  0.00    +0.000 C 
ATOM      8  C   UNL     1       1.449   3.349  18.374  0.00  0.00    +0.000 C 
ATOM      9  C   UNL     1       1.901   4.732  17.871  0.00  0.00    +0.000 C 
ATOM     10  N   UNL     1       3.210   5.108  18.445  0.00  0.00    +0.000 NA
ATOM     11  C   UNL     1       4.180   4.096  17.979  0.00  0.00    +0.000 C 
ATOM     12  C   UNL     1       3.792   2.675  18.449  0.00  0.00    +0.000 C 
ATOM     13  C   UNL     1       4.141   2.422  19.913  0.00  0.00    +0.000 C 
ATOM     14  O   UNL     1       2.431   2.324  18.152  0.00  0.00    +0.000 OA
ENDBRANCH   6  10
ENDBRANCH   1   6
BRANCH   3  15
ATOM     15  C   UNL     1       0.542  10.402  18.601  0.00  0.00    +0.000 C 
BRANCH  15  16
ATOM     16  C   UNL     1       1.349  11.586  19.079  0.00  0.00    +0.000 A 
ATOM     17  C   UNL     1       2.288  12.173  18.212  0.00  0.00    +0.000 A 
ATOM     18  C   UNL     1       2.957  13.322  18.610  0.00  0.00    +0.000 A 
ATOM     19  N   UNL     1       2.758  13.928  19.798  0.00  0.00    +0.000 NA
ATOM     20  C   UNL     1       1.868  13.344  20.632  0.00  0.00    +0.000 A 
ATOM     21  C   UNL     1       1.163  12.182  20.333  0.00  0.00    +0.000 A 
ATOM     22 CL   UNL     1       0.123  11.524  21.538  0.00  0.00    +0.000 Cl
ENDBRANCH  15  16
ENDBRANCH   3  15
TORSDOF 4
ENDMDL
MODEL 5
REMARK VINA RESULT:      -6.7      4.635      7.897
REMARK  Name = 
REMARK  6 active torsions:
REMARK  status: ('A' for Active; 'I' for Inactive)
REMARK    1  A    between atoms: C_1  and  C_2
REMARK    2  A    between atoms: N_4  and  C_5
REMARK    3  A    between atoms: C_5  and  C_6
REMARK    4  A    between atoms: N_8  and  C_9
REMARK    5  A    between atoms: C_9  and  C_10
REMARK    6  A    between atoms: C_20  and  C_21
REMARK                            x       y       z     vdW  Elec       q    Type
REMARK                         _______ _______ _______ _____ _____    ______ ____
ROOT
ATOM      1  C   UNL     1       3.020   7.033  18.531  0.00  0.00    +0.000 A 
ATOM      2  C   UNL     1       1.882   7.635  19.016  0.00  0.00    +0.000 A 
ATOM      3  N   UNL     1       1.669   8.679  18.168  0.00  0.00    +0.000 N 
ATOM      4  N   UNL     1       2.672   8.794  17.276  0.00  0.00    +0.000 NA
ATOM      5  N   UNL     1       3.503   7.775  17.479  0.00  0.00    +0.000 NA
ENDROOT
BRANCH   1   6
ATOM      6  C   UNL     1       3.655   5.735  18.927  0.00  0.00    +0.000 C 
BRANCH   6  10
ATOM      7  C   UNL     1       7.878   6.855  18.156  0.00  0.00    +0.000 C 
ATOM      8  C   UNL     1       7.447   5.477  18.656  0.00  0.00    +0.000 C 
ATOM      9  C   UNL     1       6.056   5.500  19.316  0.00  0.00    +0.000 C 
ATOM     10  N   UNL     1       4.986   5.621  18.304  0.00  0.00    +0.000 NA
ATOM     11  C   UNL     1       5.081   4.422  17.445  0.00  0.00    +0.000 C 
ATOM     12  C   UNL     1       6.456   4.330  16.744  0.00  0.00    +0.000 C 
ATOM     13  C   UNL     1       6.571   5.270  15.547  0.00  0.00    +0.000 C 
ATOM     14  O   UNL     1       7.568   4.466  17.643  0.00  0.00    +0.000 OA
ENDBRANCH   6  10
ENDBRANCH   1   6
BRANCH   3  15
ATOM     15  C   UNL     1       0.527   9.581  18.127  0.00  0.00    +0.000 C 
BRANCH  15  16
ATOM     16  C   UNL     1       0.510  10.496  19.330  0.00  0.00    +0.000 A 
ATOM     17  C   UNL     1      -0.319  10.181  20.420  0.00  0.00    +0.000 A 
ATOM     18  C   UNL     1      -0.262  10.961  21.567  0.00  0.00    +0.000 A 
ATOM     19  N   UNL     1       0.558  12.022  21.707  0.00  0.00    +0.000 NA
ATOM     20  C   UNL     1       1.338  12.327  20.644  0.00  0.00    +0.000 A 
ATOM     21  C   UNL     1       1.338  11.620  19.446  0.00  0.00    +0.000 A 
ATOM     22 CL   UNL     1       2.334  12.187  18.162  0.00  0.00    +0.000 Cl
ENDBRANCH  15  16
ENDBRANCH   3  15
TORSDOF 4
ENDMDL
MODEL 6
REMARK VINA RESULT:      -6.7      5.179      7.586
REMARK  Name = 
REMARK  6 active torsions:
REMARK  status: ('A' for Active; 'I' for Inactive)
REMARK    1  A    between atoms: C_1  and  C_2
REMARK    2  A    between atoms: N_4  and  C_5
REMARK    3  A    between atoms: C_5  and  C_6
REMARK    4  A    between atoms: N_8  and  C_9
REMARK    5  A    between atoms: C_9  and  C_10
REMARK    6  A    between atoms: C_20  and  C_21
REMARK                            x       y       z     vdW  Elec       q    Type
REMARK                         _______ _______ _______ _____ _____    ______ ____
ROOT
ATOM      1  C   UNL     1       2.600   7.442  18.399  0.00  0.00    +0.000 A 
ATOM      2  C   UNL     1       2.220   8.649  17.859  0.00  0.00    +0.000 A 
ATOM      3  N   UNL     1       1.613   9.300  18.888  0.00  0.00    +0.000 N 
ATOM      4  N   UNL     1       1.514   8.508  19.974  0.00  0.00    +0.000 NA
ATOM      5  N   UNL     1       2.133   7.366  19.690  0.00  0.00    +0.000 NA
ENDROOT
BRANCH   1   6
ATOM      6  C   UNL     1       3.464   6.366  17.816  0.00  0.00    +0.000 C 
BRANCH   6  10
ATOM      7  C   UNL     1       0.837   3.492  19.942  0.00  0.00    +0.000 C 
ATOM      8  C   UNL     1       1.302   3.304  18.499  0.00  0.00    +0.000 C 
ATOM      9  C   UNL     1       1.749   4.625  17.849  0.00  0.00    +0.000 C 
ATOM     10  N   UNL     1       3.065   5.056  18.363  0.00  0.00    +0.000 NA
ATOM     11  C   UNL     1       4.029   4.000  17.993  0.00  0.00    +0.000 C 
ATOM     12  C   UNL     1       3.646   2.636  18.613  0.00  0.00    +0.000 C 
ATOM     13  C   UNL     1       4.014   2.537  20.091  0.00  0.00    +0.000 C 
ATOM     14  O   UNL     1       2.281   2.259  18.372  0.00  0.00    +0.000 OA
ENDBRANCH   6  10
ENDBRANCH   1   6
BRANCH   3  15
ATOM     15  C   UNL     1       1.134  10.675  18.922  0.00  0.00    +0.000 C 
BRANCH  15  16
ATOM     16  C   UNL     1      -0.335  10.750  18.575  0.00  0.00    +0.000 A 
ATOM     17  C   UNL     1      -0.857   9.876  17.607  0.00  0.00    +0.000 A 
ATOM     18  C   UNL     1      -2.223   9.872  17.359  0.00  0.00    +0.000 A 
ATOM     19  N   UNL     1      -3.101  10.666  18.004  0.00  0.00    +0.000 NA
ATOM     20  C   UNL     1      -2.585  11.517  18.920  0.00  0.00    +0.000 A 
ATOM     21  C   UNL     1      -1.230  11.611  19.225  0.00  0.00    +0.000 A 
ATOM     22 CL   UNL     1      -0.728  12.802  20.361  0.00  0.00    +0.000 Cl
ENDBRANCH  15  16
ENDBRANCH   3  15
TORSDOF 4
ENDMDL
MODEL 7
REMARK VINA RESULT:      -6.6      4.982      7.834
REMARK  Name = 
REMARK  6 active torsions:
REMARK  status: ('A' for Active; 'I' for Inactive)
REMARK    1  A    between atoms: C_1  and  C_2
REMARK    2  A    between atoms: N_4  and  C_5
REMARK    3  A    between atoms: C_5  and  C_6
REMARK    4  A    between atoms: N_8  and  C_9
REMARK    5  A    between atoms: C_9  and  C_10
REMARK    6  A    between atoms: C_20  and  C_21
REMARK                            x       y       z     vdW  Elec       q    Type
REMARK                         _______ _______ _______ _____ _____    ______ ____
ROOT
ATOM      1  C   UNL     1       2.600   6.929  18.534  0.00  0.00    +0.000 A 
ATOM      2  C   UNL     1       1.999   7.439  19.661  0.00  0.00    +0.000 A 
ATOM      3  N   UNL     1       1.737   8.736  19.343  0.00  0.00    +0.000 N 
ATOM      4  N   UNL     1       2.244   9.052  18.135  0.00  0.00    +0.000 NA
ATOM      5  N   UNL     1       2.764   7.942  17.620  0.00  0.00    +0.000 NA
ENDROOT
BRANCH   1   6
ATOM      6  C   UNL     1       2.959   5.513  18.203  0.00  0.00    +0.000 C 
BRANCH   6  10
ATOM      7  C   UNL     1       7.105   6.899  17.451  0.00  0.00    +0.000 C 
ATOM      8  C   UNL     1       6.765   5.520  18.010  0.00  0.00    +0.000 C 
ATOM      9  C   UNL     1       5.363   5.472  18.644  0.00  0.00    +0.000 C 
ATOM     10  N   UNL     1       4.308   5.467  17.609  0.00  0.00    +0.000 NA
ATOM     11  C   UNL     1       4.506   4.238  16.812  0.00  0.00    +0.000 C 
ATOM     12  C   UNL     1       5.899   4.214  16.140  0.00  0.00    +0.000 C 
ATOM     13  C   UNL     1       5.971   5.101  14.900  0.00  0.00    +0.000 C 
ATOM     14  O   UNL     1       6.980   4.473  17.050  0.00  0.00    +0.000 OA
ENDBRANCH   6  10
ENDBRANCH   1   6
BRANCH   3  15
ATOM     15  C   UNL     1       0.987   9.715  20.116  0.00  0.00    +0.000 C 
BRANCH  15  16
ATOM     16  C   UNL     1       0.064  10.520  19.231  0.00  0.00    +0.000 A 
ATOM     17  C   UNL     1      -1.063   9.898  18.669  0.00  0.00    +0.000 A 
ATOM     18  C   UNL     1      -1.968  10.658  17.940  0.00  0.00    +0.000 A 
ATOM     19  N   UNL     1      -1.835  11.983  17.735  0.00  0.00    +0.000 NA
ATOM     20  C   UNL     1      -0.736  12.568  18.265  0.00  0.00    +0.000 A 
ATOM     21  C   UNL     1       0.237  11.890  18.992  0.00  0.00    +0.000 A 
ATOM     22 CL   UNL     1       1.616  12.769  19.531  0.00  0.00    +0.000 Cl
ENDBRANCH  15  16
ENDBRANCH   3  15
TORSDOF 4
ENDMDL
MODEL 8
REMARK VINA RESULT:      -6.6      4.913      7.576
REMARK  Name = 
REMARK  6 active torsions:
REMARK  status: ('A' for Active; 'I' for Inactive)
REMARK    1  A    between atoms: C_1  and  C_2
REMARK    2  A    between atoms: N_4  and  C_5
REMARK    3  A    between atoms: C_5  and  C_6
REMARK    4  A    between atoms: N_8  and  C_9
REMARK    5  A    between atoms: C_9  and  C_10
REMARK    6  A    between atoms: C_20  and  C_21
REMARK                            x       y       z     vdW  Elec       q    Type
REMARK                         _______ _______ _______ _____ _____    ______ ____
ROOT
ATOM      1  C   UNL     1       2.890   7.441  18.183  0.00  0.00    +0.000 A 
ATOM      2  C   UNL     1       2.278   7.650  19.397  0.00  0.00    +0.000 A 
ATOM      3  N   UNL     1       1.524   8.767  19.204  0.00  0.00    +0.000 N 
ATOM      4  N   UNL     1       1.736   9.292  17.982  0.00  0.00    +0.000 NA
ATOM      5  N   UNL     1       2.564   8.475  17.337  0.00  0.00    +0.000 NA
ENDROOT
BRANCH   1   6
ATOM      6  C   UNL     1       3.702   6.273  17.713  0.00  0.00    +0.000 C 
BRANCH   6  10
ATOM      7  C   UNL     1       0.882   3.759  20.037  0.00  0.00    +0.000 C 
ATOM      8  C   UNL     1       1.306   3.448  18.603  0.00  0.00    +0.000 C 
ATOM      9  C   UNL     1       1.850   4.687  17.870  0.00  0.00    +0.000 C 
ATOM     10  N   UNL     1       3.205   5.036  18.342  0.00  0.00    +0.000 NA
ATOM     11  C   UNL     1       4.072   3.882  18.024  0.00  0.00    +0.000 C 
ATOM     12  C   UNL     1       3.588   2.594  18.730  0.00  0.00    +0.000 C 
ATOM     13  C   UNL     1       3.971   2.551  20.207  0.00  0.00    +0.000 C 
ATOM     14  O   UNL     1       2.192   2.320  18.528  0.00  0.00    +0.000 OA
ENDBRANCH   6  10
ENDBRANCH   1   6
BRANCH   3  15
ATOM     15  C   UNL     1       0.562   9.368  20.118  0.00  0.00    +0.000 C 
BRANCH  15  16
ATOM     16  C   UNL     1       0.267  10.799  19.735  0.00  0.00    +0.000 A 
ATOM     17  C   UNL     1       1.085  11.827  20.236  0.00  0.00    +0.000 A 
ATOM     18  C   UNL     1       0.880  13.131  19.807  0.00  0.00    +0.000 A 
ATOM     19  N   UNL     1      -0.070  13.483  18.917  0.00  0.00    +0.000 NA
ATOM     20  C   UNL     1      -0.863  12.489  18.456  0.00  0.00    +0.000 A 
ATOM     21  C   UNL     1      -0.751  11.157  18.841  0.00  0.00    +0.000 A 
ATOM     22 CL   UNL     1      -1.892  10.028  18.219  0.00  0.00    +0.000 Cl
ENDBRANCH  15  16
ENDBRANCH   3  15
TORSDOF 4
ENDMDL
MODEL 9
REMARK VINA RESULT:      -6.6      4.845      7.443
REMARK  Name = 
REMARK  6 active torsions:
REMARK  status: ('A' for Active; 'I' for Inactive)
REMARK    1  A    between atoms: C_1  and  C_2
REMARK    2  A    between atoms: N_4  and  C_5
REMARK    3  A    between atoms: C_5  and  C_6
REMARK    4  A    between atoms: N_8  and  C_9
REMARK    5  A    between atoms: C_9  and  C_10
REMARK    6  A    between atoms: C_20  and  C_21
REMARK                            x       y       z     vdW  Elec       q    Type
REMARK                         _______ _______ _______ _____ _____    ______ ____
ROOT
ATOM      1  C   UNL     1       2.930   7.315  18.140  0.00  0.00    +0.000 A 
ATOM      2  C   UNL     1       2.323   7.490  19.363  0.00  0.00    +0.000 A 
ATOM      3  N   UNL     1       1.652   8.667  19.238  0.00  0.00    +0.000 N 
ATOM      4  N   UNL     1       1.912   9.252  18.052  0.00  0.00    +0.000 NA
ATOM      5  N   UNL     1       2.686   8.421  17.360  0.00  0.00    +0.000 NA
ENDROOT
BRANCH   1   6
ATOM      6  C   UNL     1       3.661   6.125  17.600  0.00  0.00    +0.000 C 
BRANCH   6  10
ATOM      7  C   UNL     1       0.896   3.653  20.034  0.00  0.00    +0.000 C 
ATOM      8  C   UNL     1       1.300   3.307  18.603  0.00  0.00    +0.000 C 
ATOM      9  C   UNL     1       1.824   4.530  17.828  0.00  0.00    +0.000 C 
ATOM     10  N   UNL     1       3.184   4.901  18.270  0.00  0.00    +0.000 NA
ATOM     11  C   UNL     1       4.054   3.746  17.969  0.00  0.00    +0.000 C 
ATOM     12  C   UNL     1       3.590   2.473  18.716  0.00  0.00    +0.000 C 
ATOM     13  C   UNL     1       3.996   2.472  20.187  0.00  0.00    +0.000 C 
ATOM     14  O   UNL     1       2.194   2.184  18.543  0.00  0.00    +0.000 OA
ENDBRANCH   6  10
ENDBRANCH   1   6
BRANCH   3  15
ATOM     15  C   UNL     1       0.726   9.276  20.183  0.00  0.00    +0.000 C 
BRANCH  15  16
ATOM     16  C   UNL     1      -0.080  10.373  19.528  0.00  0.00    +0.000 A 
ATOM     17  C   UNL     1      -1.185  10.030  18.730  0.00  0.00    +0.000 A 
ATOM     18  C   UNL     1      -1.989  11.035  18.211  0.00  0.00    +0.000 A 
ATOM     19  N   UNL     1      -1.777  12.348  18.430  0.00  0.00    +0.000 NA
ATOM     20  C   UNL     1      -0.700  12.668  19.183  0.00  0.00    +0.000 A 
ATOM     21  C   UNL     1       0.176  11.736  19.730  0.00  0.00    +0.000 A 
ATOM     22 CL   UNL     1       1.546  12.312  20.599  0.00  0.00    +0.000 Cl
ENDBRANCH  15  16
ENDBRANCH   3  15
TORSDOF 4
ENDMDL
