MODEL 1
REMARK VINA RESULT:      -7.5      0.000      0.000
REMARK  Name = 
REMARK  9 active torsions:
REMARK  status: ('A' for Active; 'I' for Inactive)
REMARK    1  A    between atoms: C_1  and  O_2
REMARK    2  A    between atoms: O_2  and  C_3
REMARK    3  A    between atoms: C_7  and  N_8
REMARK    4  A    between atoms: N_8  and  C_9
REMARK    5  A    between atoms: C_11  and  C_12
REMARK    6  A    between atoms: C_11  and  N_24
REMARK    7  A    between atoms: C_12  and  C_14
REMARK    8  A    between atoms: C_17  and  C_18
REMARK    9  A    between atoms: C_19  and  N_20
REMARK                            x       y       z     vdW  Elec       q    Type
REMARK                         _______ _______ _______ _____ _____    ______ ____
ROOT
ATOM      1  C   UNL     1       4.019   4.220  17.573  0.00  0.00    +0.000 C 
ATOM      2  S   UNL     1       2.356   4.121  16.923  0.00  0.00    +0.000 SA
ATOM      3  C   UNL     1       4.318   5.133  18.566  0.00  0.00    +0.000 C 
ENDROOT
BRANCH   3   4
ATOM      4  N   UNL     1       5.495   5.942  18.382  0.00  0.00    +0.000 N 
ATOM      5  C   UNL     1       6.647   5.617  19.042  0.00  0.00    +0.000 A 
ATOM      6  C   UNL     1       7.819   6.345  18.882  0.00  0.00    +0.000 A 
ATOM      7  C   UNL     1       7.851   7.384  17.969  0.00  0.00    +0.000 A 
ATOM      8  C   UNL     1       6.709   7.662  17.231  0.00  0.00    +0.000 A 
ATOM      9  C   UNL     1       5.539   6.933  17.456  0.00  0.00    +0.000 A 
ENDBRANCH   3   4
BRANCH   1  10
ATOM     10  N   UNL     1       5.113   3.549  16.952  0.00  0.00    +0.000 N 
ATOM     11  H   UNL     1       5.122   2.548  17.102  0.00  0.00    +0.000 HD
BRANCH  10  16
ATOM     12  C   UNL     1       5.696   3.682  13.282  0.00  0.00    +0.000 A 
ATOM     13  C   UNL     1       6.937   4.312  13.214  0.00  0.00    +0.000 A 
ATOM     14  C   UNL     1       7.579   4.721  14.378  0.00  0.00    +0.000 A 
ATOM     15  C   UNL     1       6.984   4.496  15.620  0.00  0.00    +0.000 A 
ATOM     16  C   UNL     1       5.766   3.823  15.720  0.00  0.00    +0.000 A 
ATOM     17  C   UNL     1       5.115   3.441  14.533  0.00  0.00    +0.000 A 
BRANCH  12  19
ATOM     18  C   UNL     1       5.627   2.130  11.481  0.00  0.00    +0.000 C 
ATOM     19  O   UNL     1       5.163   3.339  12.068  0.00  0.00    +0.000 OA
ENDBRANCH  12  19
ENDBRANCH  10  16
ENDBRANCH   1  10
BRANCH   3  20
ATOM     20  C   UNL     1       3.322   5.494  19.668  0.00  0.00    +0.000 C 
ATOM     21  O   UNL     1       3.001   4.649  20.507  0.00  0.00    +0.000 OA
BRANCH  20  22
ATOM     22  C   UNL     1       2.625   6.821  19.709  0.00  0.00    +0.000 A 
ATOM     23  C   UNL     1       2.509   7.527  18.508  0.00  0.00    +0.000 A 
ATOM     24  C   UNL     1       1.720   8.679  18.436  0.00  0.00    +0.000 A 
ATOM     25  C   UNL     1       1.021   9.159  19.559  0.00  0.00    +0.000 A 
ATOM     26  C   UNL     1       0.093  10.327  19.350  0.00  0.00    +0.000 C 
ATOM     27  C   UNL     1       1.200   8.484  20.787  0.00  0.00    +0.000 A 
ATOM     28  C   UNL     1       2.037   7.347  20.865  0.00  0.00    +0.000 A 
BRANCH  27  29
ATOM     29  N   UNL     1       0.506   8.890  22.032  0.00  0.00    +0.000 N 
ATOM     30  O   UNL     1      -0.669   8.544  22.209  0.00  0.00    +0.000 OA
ATOM     31  O   UNL     1       1.137   9.600  22.831  0.00  0.00    +0.000 OA
ENDBRANCH  27  29
ENDBRANCH  20  22
ENDBRANCH   3  20
TORSDOF 7
ENDMDL
MODEL 2
REMARK VINA RESULT:      -7.4      4.442      8.520
REMARK  Name = 
REMARK  9 active torsions:
REMARK  status: ('A' for Active; 'I' for Inactive)
REMARK    1  A    between atoms: C_1  and  O_2
REMARK    2  A    between atoms: O_2  and  C_3
REMARK    3  A    between atoms: C_7  and  N_8
REMARK    4  A    between atoms: N_8  and  C_9
REMARK    5  A    between atoms: C_11  and  C_12
REMARK    6  A    between atoms: C_11  and  N_24
REMARK    7  A    between atoms: C_12  and  C_14
REMARK    8  A    between atoms: C_17  and  C_18
REMARK    9  A    between atoms: C_19  and  N_20
REMARK                            x       y       z     vdW  Elec       q    Type
REMARK                         _______ _______ _______ _____ _____    ______ ____
ROOT
ATOM      1  C   UNL     1      -0.662  11.274  21.130  0.00  0.00    +0.000 C 
ATOM      2  S   UNL     1      -1.279  10.958  22.778  0.00  0.00    +0.000 SA
ATOM      3  C   UNL     1       0.619  10.888  20.788  0.00  0.00    +0.000 C 
ENDROOT
BRANCH   3   4
ATOM      4  N   UNL     1       1.444  11.863  20.119  0.00  0.00    +0.000 N 
ATOM      5  C   UNL     1       1.613  11.788  18.765  0.00  0.00    +0.000 A 
ATOM      6  C   UNL     1       2.375  12.715  18.066  0.00  0.00    +0.000 A 
ATOM      7  C   UNL     1       2.914  13.795  18.741  0.00  0.00    +0.000 A 
ATOM      8  C   UNL     1       2.670  13.924  20.101  0.00  0.00    +0.000 A 
ATOM      9  C   UNL     1       1.937  12.945  20.774  0.00  0.00    +0.000 A 
ENDBRANCH   3   4
BRANCH   1  10
ATOM     10  N   UNL     1      -1.357  12.116  20.212  0.00  0.00    +0.000 N 
ATOM     11  H   UNL     1      -0.810  12.898  19.873  0.00  0.00    +0.000 HD
BRANCH  10  16
ATOM     12  C   UNL     1      -2.788  10.635  17.115  0.00  0.00    +0.000 A 
ATOM     13  C   UNL     1      -4.119  11.038  17.196  0.00  0.00    +0.000 A 
ATOM     14  C   UNL     1      -4.560  11.780  18.287  0.00  0.00    +0.000 A 
ATOM     15  C   UNL     1      -3.669  12.128  19.302  0.00  0.00    +0.000 A 
ATOM     16  C   UNL     1      -2.320  11.781  19.222  0.00  0.00    +0.000 A 
ATOM     17  C   UNL     1      -1.894  11.006  18.127  0.00  0.00    +0.000 A 
BRANCH  12  19
ATOM     18  C   UNL     1      -3.168  10.234  14.802  0.00  0.00    +0.000 C 
ATOM     19  O   UNL     1      -2.480   9.901  16.001  0.00  0.00    +0.000 OA
ENDBRANCH  12  19
ENDBRANCH  10  16
ENDBRANCH   1  10
BRANCH   3  20
ATOM     20  C   UNL     1       1.257   9.609  21.329  0.00  0.00    +0.000 C 
ATOM     21  O   UNL     1       1.680   9.577  22.488  0.00  0.00    +0.000 OA
BRANCH  20  22
ATOM     22  C   UNL     1       1.492   8.407  20.465  0.00  0.00    +0.000 A 
ATOM     23  C   UNL     1       1.986   8.625  19.175  0.00  0.00    +0.000 A 
ATOM     24  C   UNL     1       2.396   7.550  18.382  0.00  0.00    +0.000 A 
ATOM     25  C   UNL     1       2.329   6.225  18.853  0.00  0.00    +0.000 A 
ATOM     26  C   UNL     1       2.918   5.149  17.979  0.00  0.00    +0.000 C 
ATOM     27  C   UNL     1       1.762   6.005  20.127  0.00  0.00    +0.000 A 
ATOM     28  C   UNL     1       1.304   7.092  20.906  0.00  0.00    +0.000 A 
BRANCH  27  29
ATOM     29  N   UNL     1       1.651   4.656  20.731  0.00  0.00    +0.000 N 
ATOM     30  O   UNL     1       0.707   3.924  20.408  0.00  0.00    +0.000 OA
ATOM     31  O   UNL     1       2.505   4.337  21.575  0.00  0.00    +0.000 OA
ENDBRANCH  27  29
ENDBRANCH  20  22
ENDBRANCH   3  20
TORSDOF 7
ENDMDL
MODEL 3
REMARK VINA RESULT:      -7.4      1.735      1.983
REMARK  Name = 
REMARK  9 active torsions:
REMARK  status: ('A' for Active; 'I' for Inactive)
REMARK    1  A    between atoms: C_1  and  O_2
REMARK    2  A    between atoms: O_2  and  C_3
REMARK    3  A    between atoms: C_7  and  N_8
REMARK    4  A    between atoms: N_8  and  C_9
REMARK    5  A    between atoms: C_11  and  C_12
REMARK    6  A    between atoms: C_11  and  N_24
REMARK    7  A    between atoms: C_12  and  C_14
REMARK    8  A    between atoms: C_17  and  C_18
REMARK    9  A    between atoms: C_19  and  N_20
REMARK                            x       y       z     vdW  Elec       q    Type
REMARK                         _______ _______ _______ _____ _____    ______ ____
ROOT
ATOM      1  C   UNL     1       4.515   3.864  17.261  0.00  0.00    +0.000 C 
ATOM      2  S   UNL     1       2.869   3.611  16.609  0.00  0.00    +0.000 SA
ATOM      3  C   UNL     1       4.702   4.674  18.365  0.00  0.00    +0.000 C 
ENDROOT
BRANCH   3   4
ATOM      4  N   UNL     1       5.747   5.663  18.285  0.00  0.00    +0.000 N 
ATOM      5  C   UNL     1       6.928   5.450  18.939  0.00  0.00    +0.000 A 
ATOM      6  C   UNL     1       7.978   6.355  18.876  0.00  0.00    +0.000 A 
ATOM      7  C   UNL     1       7.864   7.470  18.064  0.00  0.00    +0.000 A 
ATOM      8  C   UNL     1       6.701   7.645  17.328  0.00  0.00    +0.000 A 
ATOM      9  C   UNL     1       5.651   6.733  17.456  0.00  0.00    +0.000 A 
ENDBRANCH   3   4
BRANCH   1  10
ATOM     10  N   UNL     1       5.680   3.446  16.553  0.00  0.00    +0.000 N 
ATOM     11  H   UNL     1       5.923   2.474  16.696  0.00  0.00    +0.000 HD
BRANCH  10  16
ATOM     12  C   UNL     1       5.995   3.593  12.850  0.00  0.00    +0.000 A 
ATOM     13  C   UNL     1       7.001   4.543  12.688  0.00  0.00    +0.000 A 
ATOM     14  C   UNL     1       7.565   5.161  13.799  0.00  0.00    +0.000 A 
ATOM     15  C   UNL     1       7.128   4.827  15.081  0.00  0.00    +0.000 A 
ATOM     16  C   UNL     1       6.158   3.844  15.276  0.00  0.00    +0.000 A 
ATOM     17  C   UNL     1       5.576   3.248  14.141  0.00  0.00    +0.000 A 
BRANCH  12  19
ATOM     18  C   UNL     1       4.122   3.221  11.432  0.00  0.00    +0.000 C 
ATOM     19  O   UNL     1       5.513   3.066  11.682  0.00  0.00    +0.000 OA
ENDBRANCH  12  19
ENDBRANCH  10  16
ENDBRANCH   1  10
BRANCH   3  20
ATOM     20  C   UNL     1       3.689   4.740  19.508  0.00  0.00    +0.000 C 
ATOM     21  O   UNL     1       3.553   3.775  20.263  0.00  0.00    +0.000 OA
BRANCH  20  22
ATOM     22  C   UNL     1       2.765   5.907  19.687  0.00  0.00    +0.000 A 
ATOM     23  C   UNL     1       2.171   6.074  20.941  0.00  0.00    +0.000 A 
ATOM     24  C   UNL     1       1.445   7.232  21.233  0.00  0.00    +0.000 A 
ATOM     25  C   UNL     1       1.291   8.258  20.283  0.00  0.00    +0.000 A 
ATOM     26  C   UNL     1       0.607   9.523  20.734  0.00  0.00    +0.000 C 
ATOM     27  C   UNL     1       1.830   8.052  18.994  0.00  0.00    +0.000 A 
ATOM     28  C   UNL     1       2.523   6.859  18.689  0.00  0.00    +0.000 A 
BRANCH  27  29
ATOM     29  N   UNL     1       1.741   9.068  17.918  0.00  0.00    +0.000 N 
ATOM     30  O   UNL     1       0.643   9.568  17.648  0.00  0.00    +0.000 OA
ATOM     31  O   UNL     1       2.786   9.342  17.305  0.00  0.00    +0.000 OA
ENDBRANCH  27  29
ENDBRANCH  20  22
ENDBRANCH   3  20
TORSDOF 7
ENDMDL
MODEL 4
REMARK VINA RESULT:      -7.4      0.509      1.001
REMARK  Name = 
REMARK  9 active torsions:
REMARK  status: ('A' for Active; 'I' for Inactive)
REMARK    1  A    between atoms: C_1  and  O_2
REMARK    2  A    between atoms: O_2  and  C_3
REMARK    3  A    between atoms: C_7  and  N_8
REMARK    4  A    between atoms: N_8  and  C_9
REMARK    5  A    between atoms: C_11  and  C_12
REMARK    6  A    between atoms: C_11  and  N_24
REMARK    7  A    between atoms: C_12  and  C_14
REMARK    8  A    between atoms: C_17  and  C_18
REMARK    9  A    between atoms: C_19  and  N_20
REMARK                            x       y       z     vdW  Elec       q    Type
REMARK                         _______ _______ _______ _____ _____    ______ ____
ROOT
ATOM      1  C   UNL     1       4.328   4.196  17.306  0.00  0.00    +0.000 C 
ATOM      2  S   UNL     1       2.663   4.083  16.662  0.00  0.00    +0.000 SA
ATOM      3  C   UNL     1       4.614   5.086  18.322  0.00  0.00    +0.000 C 
ENDROOT
BRANCH   3   4
ATOM      4  N   UNL     1       5.774   5.924  18.155  0.00  0.00    +0.000 N 
ATOM      5  C   UNL     1       5.708   7.010  17.328  0.00  0.00    +0.000 A 
ATOM      6  C   UNL     1       6.786   7.868  17.150  0.00  0.00    +0.000 A 
ATOM      7  C   UNL     1       7.938   7.669  17.890  0.00  0.00    +0.000 A 
ATOM      8  C   UNL     1       7.978   6.621  18.797  0.00  0.00    +0.000 A 
ATOM      9  C   UNL     1       6.888   5.755  18.912  0.00  0.00    +0.000 A 
ENDBRANCH   3   4
BRANCH   1  10
ATOM     10  N   UNL     1       5.431   3.565  16.659  0.00  0.00    +0.000 N 
ATOM     11  H   UNL     1       5.498   2.570  16.834  0.00  0.00    +0.000 HD
BRANCH  10  16
ATOM     12  C   UNL     1       5.975   3.468  12.982  0.00  0.00    +0.000 A 
ATOM     13  C   UNL     1       7.083   4.300  12.836  0.00  0.00    +0.000 A 
ATOM     14  C   UNL     1       7.643   4.920  13.949  0.00  0.00    +0.000 A 
ATOM     15  C   UNL     1       7.100   4.706  15.215  0.00  0.00    +0.000 A 
ATOM     16  C   UNL     1       6.022   3.839  15.397  0.00  0.00    +0.000 A 
ATOM     17  C   UNL     1       5.448   3.242  14.259  0.00  0.00    +0.000 A 
BRANCH  12  19
ATOM     18  C   UNL     1       4.179   3.260  11.436  0.00  0.00    +0.000 C 
ATOM     19  O   UNL     1       5.509   2.928  11.813  0.00  0.00    +0.000 OA
ENDBRANCH  12  19
ENDBRANCH  10  16
ENDBRANCH   1  10
BRANCH   3  20
ATOM     20  C   UNL     1       3.618   5.396  19.439  0.00  0.00    +0.000 C 
ATOM     21  O   UNL     1       3.350   4.534  20.279  0.00  0.00    +0.000 OA
BRANCH  20  22
ATOM     22  C   UNL     1       2.860   6.688  19.496  0.00  0.00    +0.000 A 
ATOM     23  C   UNL     1       2.759   7.430  18.315  0.00  0.00    +0.000 A 
ATOM     24  C   UNL     1       1.921   8.547  18.249  0.00  0.00    +0.000 A 
ATOM     25  C   UNL     1       1.158   8.956  19.358  0.00  0.00    +0.000 A 
ATOM     26  C   UNL     1       0.185  10.088  19.150  0.00  0.00    +0.000 C 
ATOM     27  C   UNL     1       1.319   8.247  20.569  0.00  0.00    +0.000 A 
ATOM     28  C   UNL     1       2.203   7.147  20.644  0.00  0.00    +0.000 A 
BRANCH  27  29
ATOM     29  N   UNL     1       0.558   8.578  21.798  0.00  0.00    +0.000 N 
ATOM     30  O   UNL     1      -0.593   8.145  21.930  0.00  0.00    +0.000 OA
ATOM     31  O   UNL     1       1.111   9.317  22.629  0.00  0.00    +0.000 OA
ENDBRANCH  27  29
ENDBRANCH  20  22
ENDBRANCH   3  20
TORSDOF 7
ENDMDL
MODEL 5
REMARK VINA RESULT:      -7.2      1.757      8.197
REMARK  Name = 
REMARK  9 active torsions:
REMARK  status: ('A' for Active; 'I' for Inactive)
REMARK    1  A    between atoms: C_1  and  O_2
REMARK    2  A    between atoms: O_2  and  C_3
REMARK    3  A    between atoms: C_7  and  N_8
REMARK    4  A    between atoms: N_8  and  C_9
REMARK    5  A    between atoms: C_11  and  C_12
REMARK    6  A    between atoms: C_11  and  N_24
REMARK    7  A    between atoms: C_12  and  C_14
REMARK    8  A    between atoms: C_17  and  C_18
REMARK    9  A    between atoms: C_19  and  N_20
REMARK                            x       y       z     vdW  Elec       q    Type
REMARK                         _______ _______ _______ _____ _____    ______ ____
ROOT
ATOM      1  C   UNL     1       3.556   6.049  17.563  0.00  0.00    +0.000 C 
ATOM      2  S   UNL     1       2.256   4.908  18.017  0.00  0.00    +0.000 SA
ATOM      3  C   UNL     1       4.777   5.566  17.131  0.00  0.00    +0.000 C 
ENDROOT
BRANCH   3   4
ATOM      4  N   UNL     1       5.958   6.138  17.726  0.00  0.00    +0.000 N 
ATOM      5  C   UNL     1       6.619   5.453  18.707  0.00  0.00    +0.000 A 
ATOM      6  C   UNL     1       7.776   5.944  19.296  0.00  0.00    +0.000 A 
ATOM      7  C   UNL     1       8.329   7.122  18.826  0.00  0.00    +0.000 A 
ATOM      8  C   UNL     1       7.711   7.775  17.770  0.00  0.00    +0.000 A 
ATOM      9  C   UNL     1       6.523   7.271  17.236  0.00  0.00    +0.000 A 
ENDBRANCH   3   4
BRANCH   1  10
ATOM     10  N   UNL     1       3.468   7.444  17.841  0.00  0.00    +0.000 N 
ATOM     11  H   UNL     1       3.941   8.031  17.165  0.00  0.00    +0.000 HD
BRANCH  10  16
ATOM     12  C   UNL     1       1.010   8.607  20.378  0.00  0.00    +0.000 A 
ATOM     13  C   UNL     1       0.324   9.597  19.676  0.00  0.00    +0.000 A 
ATOM     14  C   UNL     1       0.685   9.905  18.368  0.00  0.00    +0.000 A 
ATOM     15  C   UNL     1       1.733   9.220  17.753  0.00  0.00    +0.000 A 
ATOM     16  C   UNL     1       2.404   8.191  18.414  0.00  0.00    +0.000 A 
ATOM     17  C   UNL     1       2.047   7.910  19.746  0.00  0.00    +0.000 A 
BRANCH  12  19
ATOM     18  C   UNL     1       0.916   9.393  22.620  0.00  0.00    +0.000 C 
ATOM     19  O   UNL     1       0.569   8.406  21.658  0.00  0.00    +0.000 OA
ENDBRANCH  12  19
ENDBRANCH  10  16
ENDBRANCH   1  10
BRANCH   3  20
ATOM     20  C   UNL     1       4.900   4.297  16.288  0.00  0.00    +0.000 C 
ATOM     21  O   UNL     1       4.617   3.203  16.782  0.00  0.00    +0.000 OA
BRANCH  20  22
ATOM     22  C   UNL     1       5.461   4.315  14.898  0.00  0.00    +0.000 A 
ATOM     23  C   UNL     1       6.670   4.988  14.698  0.00  0.00    +0.000 A 
ATOM     24  C   UNL     1       7.339   4.894  13.474  0.00  0.00    +0.000 A 
ATOM     25  C   UNL     1       6.825   4.124  12.416  0.00  0.00    +0.000 A 
ATOM     26  C   UNL     1       7.682   3.975  11.186  0.00  0.00    +0.000 C 
ATOM     27  C   UNL     1       5.568   3.505  12.598  0.00  0.00    +0.000 A 
ATOM     28  C   UNL     1       4.872   3.642  13.821  0.00  0.00    +0.000 A 
BRANCH  27  29
ATOM     29  N   UNL     1       4.934   2.659  11.559  0.00  0.00    +0.000 N 
ATOM     30  O   UNL     1       3.902   3.056  11.004  0.00  0.00    +0.000 OA
ATOM     31  O   UNL     1       5.458   1.558  11.322  0.00  0.00    +0.000 OA
ENDBRANCH  27  29
ENDBRANCH  20  22
ENDBRANCH   3  20
TORSDOF 7
ENDMDL
MODEL 6
REMARK VINA RESULT:      -7.2      2.024      8.164
REMARK  Name = 
REMARK  9 active torsions:
REMARK  status: ('A' for Active; 'I' for Inactive)
REMARK    1  A    between atoms: C_1  and  O_2
REMARK    2  A    between atoms: O_2  and  C_3
REMARK    3  A    between atoms: C_7  and  N_8
REMARK    4  A    between atoms: N_8  and  C_9
REMARK    5  A    between atoms: C_11  and  C_12
REMARK    6  A    between atoms: C_11  and  N_24
REMARK    7  A    between atoms: C_12  and  C_14
REMARK    8  A    between atoms: C_17  and  C_18
REMARK    9  A    between atoms: C_19  and  N_20
REMARK                            x       y       z     vdW  Elec       q    Type
REMARK                         _______ _______ _______ _____ _____    ______ ____
ROOT
ATOM      1  C   UNL     1       3.560   5.869  17.562  0.00  0.00    +0.000 C 
ATOM      2  S   UNL     1       2.324   4.666  18.035  0.00  0.00    +0.000 SA
ATOM      3  C   UNL     1       4.797   5.447  17.113  0.00  0.00    +0.000 C 
ENDROOT
BRANCH   3   4
ATOM      4  N   UNL     1       5.957   6.077  17.691  0.00  0.00    +0.000 N 
ATOM      5  C   UNL     1       6.630   5.453  18.703  0.00  0.00    +0.000 A 
ATOM      6  C   UNL     1       7.768   6.000  19.278  0.00  0.00    +0.000 A 
ATOM      7  C   UNL     1       8.290   7.174  18.763  0.00  0.00    +0.000 A 
ATOM      8  C   UNL     1       7.661   7.765  17.677  0.00  0.00    +0.000 A 
ATOM      9  C   UNL     1       6.492   7.205  17.158  0.00  0.00    +0.000 A 
ENDBRANCH   3   4
BRANCH   1  10
ATOM     10  N   UNL     1       3.407   7.259  17.842  0.00  0.00    +0.000 N 
ATOM     11  H   UNL     1       3.593   7.862  17.050  0.00  0.00    +0.000 HD
BRANCH  10  16
ATOM     12  C   UNL     1       0.866   9.726  18.976  0.00  0.00    +0.000 A 
ATOM     13  C   UNL     1       0.626   9.307  20.283  0.00  0.00    +0.000 A 
ATOM     14  C   UNL     1       1.283   8.191  20.791  0.00  0.00    +0.000 A 
ATOM     15  C   UNL     1       2.188   7.490  19.994  0.00  0.00    +0.000 A 
ATOM     16  C   UNL     1       2.485   7.917  18.700  0.00  0.00    +0.000 A 
ATOM     17  C   UNL     1       1.792   9.030  18.190  0.00  0.00    +0.000 A 
BRANCH  12  19
ATOM     18  C   UNL     1      -0.657  11.449  19.580  0.00  0.00    +0.000 C 
ATOM     19  O   UNL     1       0.151  10.828  18.590  0.00  0.00    +0.000 OA
ENDBRANCH  12  19
ENDBRANCH  10  16
ENDBRANCH   1  10
BRANCH   3  20
ATOM     20  C   UNL     1       4.970   4.185  16.268  0.00  0.00    +0.000 C 
ATOM     21  O   UNL     1       4.749   3.079  16.766  0.00  0.00    +0.000 OA
BRANCH  20  22
ATOM     22  C   UNL     1       5.509   4.230  14.870  0.00  0.00    +0.000 A 
ATOM     23  C   UNL     1       6.704   4.925  14.660  0.00  0.00    +0.000 A 
ATOM     24  C   UNL     1       7.355   4.857  13.425  0.00  0.00    +0.000 A 
ATOM     25  C   UNL     1       6.837   4.093  12.364  0.00  0.00    +0.000 A 
ATOM     26  C   UNL     1       7.677   3.974  11.120  0.00  0.00    +0.000 C 
ATOM     27  C   UNL     1       5.593   3.452  12.558  0.00  0.00    +0.000 A 
ATOM     28  C   UNL     1       4.914   3.562  13.793  0.00  0.00    +0.000 A 
BRANCH  27  29
ATOM     29  N   UNL     1       4.956   2.609  11.518  0.00  0.00    +0.000 N 
ATOM     30  O   UNL     1       3.934   3.016  10.953  0.00  0.00    +0.000 OA
ATOM     31  O   UNL     1       5.468   1.501  11.289  0.00  0.00    +0.000 OA
ENDBRANCH  27  29
ENDBRANCH  20  22
ENDBRANCH   3  20
TORSDOF 7
ENDMDL
MODEL 7
REMARK VINA RESULT:      -7.2      4.430      8.804
REMARK  Name = 
REMARK  9 active torsions:
REMARK  status: ('A' for Active; 'I' for Inactive)
REMARK    1  A    between atoms: C_1  and  O_2
REMARK    2  A    between atoms: O_2  and  C_3
REMARK    3  A    between atoms: C_7  and  N_8
REMARK    4  A    between atoms: N_8  and  C_9
REMARK    5  A    between atoms: C_11  and  C_12
REMARK    6  A    between atoms: C_11  and  N_24
REMARK    7  A    between atoms: C_12  and  C_14
REMARK    8  A    between atoms: C_17  and  C_18
REMARK    9  A    between atoms: C_19  and  N_20
REMARK                            x       y       z     vdW  Elec       q    Type
REMARK                         _______ _______ _______ _____ _____    ______ ____
ROOT
ATOM      1  C   UNL     1      -0.641  10.954  21.089  0.00  0.00    +0.000 C 
ATOM      2  S   UNL     1      -1.242  10.623  22.741  0.00  0.00    +0.000 SA
ATOM      3  C   UNL     1       0.660  10.634  20.752  0.00  0.00    +0.000 C 
ENDROOT
BRANCH   3   4
ATOM      4  N   UNL     1       1.431  11.644  20.073  0.00  0.00    +0.000 N 
ATOM      5  C   UNL     1       1.661  11.529  18.731  0.00  0.00    +0.000 A 
ATOM      6  C   UNL     1       2.374  12.486  18.021  0.00  0.00    +0.000 A 
ATOM      7  C   UNL     1       2.799  13.632  18.669  0.00  0.00    +0.000 A 
ATOM      8  C   UNL     1       2.491  13.795  20.011  0.00  0.00    +0.000 A 
ATOM      9  C   UNL     1       1.811  12.787  20.699  0.00  0.00    +0.000 A 
ENDBRANCH   3   4
BRANCH   1  10
ATOM     10  N   UNL     1      -1.380  11.747  20.162  0.00  0.00    +0.000 N 
ATOM     11  H   UNL     1      -0.966  12.652  19.972  0.00  0.00    +0.000 HD
BRANCH  10  16
ATOM     12  C   UNL     1      -4.170  11.633  17.706  0.00  0.00    +0.000 A 
ATOM     13  C   UNL     1      -3.719  10.668  16.808  0.00  0.00    +0.000 A 
ATOM     14  C   UNL     1      -2.478  10.067  16.992  0.00  0.00    +0.000 A 
ATOM     15  C   UNL     1      -1.683  10.424  18.081  0.00  0.00    +0.000 A 
ATOM     16  C   UNL     1      -2.131  11.350  19.024  0.00  0.00    +0.000 A 
ATOM     17  C   UNL     1      -3.376  11.971  18.809  0.00  0.00    +0.000 A 
BRANCH  12  19
ATOM     18  C   UNL     1      -6.188  12.605  18.505  0.00  0.00    +0.000 C 
ATOM     19  O   UNL     1      -5.399  12.158  17.410  0.00  0.00    +0.000 OA
ENDBRANCH  12  19
ENDBRANCH  10  16
ENDBRANCH   1  10
BRANCH   3  20
ATOM     20  C   UNL     1       1.365   9.397  21.307  0.00  0.00    +0.000 C 
ATOM     21  O   UNL     1       1.858   9.428  22.437  0.00  0.00    +0.000 OA
BRANCH  20  22
ATOM     22  C   UNL     1       1.580   8.164  20.483  0.00  0.00    +0.000 A 
ATOM     23  C   UNL     1       2.088   8.330  19.191  0.00  0.00    +0.000 A 
ATOM     24  C   UNL     1       2.481   7.222  18.435  0.00  0.00    +0.000 A 
ATOM     25  C   UNL     1       2.382   5.915  18.946  0.00  0.00    +0.000 A 
ATOM     26  C   UNL     1       2.953   4.799  18.111  0.00  0.00    +0.000 C 
ATOM     27  C   UNL     1       1.801   5.747  20.223  0.00  0.00    +0.000 A 
ATOM     28  C   UNL     1       1.361   6.867  20.964  0.00  0.00    +0.000 A 
BRANCH  27  29
ATOM     29  N   UNL     1       1.657   4.420  20.868  0.00  0.00    +0.000 N 
ATOM     30  O   UNL     1       2.449   4.093  21.760  0.00  0.00    +0.000 OA
ATOM     31  O   UNL     1       0.755   3.676  20.447  0.00  0.00    +0.000 OA
ENDBRANCH  27  29
ENDBRANCH  20  22
ENDBRANCH   3  20
TORSDOF 7
ENDMDL
MODEL 8
REMARK VINA RESULT:      -7.1      0.937      1.508
REMARK  Name = 
REMARK  9 active torsions:
REMARK  status: ('A' for Active; 'I' for Inactive)
REMARK    1  A    between atoms: C_1  and  O_2
REMARK    2  A    between atoms: O_2  and  C_3
REMARK    3  A    between atoms: C_7  and  N_8
REMARK    4  A    between atoms: N_8  and  C_9
REMARK    5  A    between atoms: C_11  and  C_12
REMARK    6  A    between atoms: C_11  and  N_24
REMARK    7  A    between atoms: C_12  and  C_14
REMARK    8  A    between atoms: C_17  and  C_18
REMARK    9  A    between atoms: C_19  and  N_20
REMARK                            x       y       z     vdW  Elec       q    Type
REMARK                         _______ _______ _______ _____ _____    ______ ____
ROOT
ATOM      1  C   UNL     1       4.043   4.289  17.484  0.00  0.00    +0.000 C 
ATOM      2  S   UNL     1       2.373   4.221  16.850  0.00  0.00    +0.000 SA
ATOM      3  C   UNL     1       4.358   5.168  18.502  0.00  0.00    +0.000 C 
ENDROOT
BRANCH   3   4
ATOM      4  N   UNL     1       5.538   5.978  18.331  0.00  0.00    +0.000 N 
ATOM      5  C   UNL     1       6.690   5.637  18.983  0.00  0.00    +0.000 A 
ATOM      6  C   UNL     1       7.863   6.364  18.835  0.00  0.00    +0.000 A 
ATOM      7  C   UNL     1       7.897   7.418  17.940  0.00  0.00    +0.000 A 
ATOM      8  C   UNL     1       6.756   7.713  17.208  0.00  0.00    +0.000 A 
ATOM      9  C   UNL     1       5.583   6.984  17.422  0.00  0.00    +0.000 A 
ENDBRANCH   3   4
BRANCH   1  10
ATOM     10  N   UNL     1       5.127   3.634  16.829  0.00  0.00    +0.000 N 
ATOM     11  H   UNL     1       5.230   2.658  17.079  0.00  0.00    +0.000 HD
BRANCH  10  16
ATOM     12  C   UNL     1       7.350   4.843  14.105  0.00  0.00    +0.000 A 
ATOM     13  C   UNL     1       6.769   4.256  12.982  0.00  0.00    +0.000 A 
ATOM     14  C   UNL     1       5.654   3.436  13.120  0.00  0.00    +0.000 A 
ATOM     15  C   UNL     1       5.110   3.202  14.383  0.00  0.00    +0.000 A 
ATOM     16  C   UNL     1       5.641   3.816  15.518  0.00  0.00    +0.000 A 
ATOM     17  C   UNL     1       6.785   4.621  15.366  0.00  0.00    +0.000 A 
BRANCH  12  19
ATOM     18  C   UNL     1       8.609   6.068  12.501  0.00  0.00    +0.000 C 
ATOM     19  O   UNL     1       8.447   5.618  13.840  0.00  0.00    +0.000 OA
ENDBRANCH  12  19
ENDBRANCH  10  16
ENDBRANCH   1  10
BRANCH   3  20
ATOM     20  C   UNL     1       3.376   5.500  19.626  0.00  0.00    +0.000 C 
ATOM     21  O   UNL     1       3.090   4.641  20.464  0.00  0.00    +0.000 OA
BRANCH  20  22
ATOM     22  C   UNL     1       2.653   6.811  19.692  0.00  0.00    +0.000 A 
ATOM     23  C   UNL     1       2.561   7.558  18.514  0.00  0.00    +0.000 A 
ATOM     24  C   UNL     1       1.752   8.697  18.459  0.00  0.00    +0.000 A 
ATOM     25  C   UNL     1       1.009   9.123  19.575  0.00  0.00    +0.000 A 
ATOM     26  C   UNL     1       0.065  10.280  19.378  0.00  0.00    +0.000 C 
ATOM     27  C   UNL     1       1.162   8.407  20.783  0.00  0.00    +0.000 A 
ATOM     28  C   UNL     1       2.018   7.283  20.847  0.00  0.00    +0.000 A 
BRANCH  27  29
ATOM     29  N   UNL     1       0.421   8.754  22.018  0.00  0.00    +0.000 N 
ATOM     30  O   UNL     1      -0.717   8.299  22.188  0.00  0.00    +0.000 OA
ATOM     31  O   UNL     1       0.974   9.527  22.817  0.00  0.00    +0.000 OA
ENDBRANCH  27  29
ENDBRANCH  20  22
ENDBRANCH   3  20
TORSDOF 7
ENDMDL
MODEL 9
REMARK VINA RESULT:      -7.1      7.896     10.340
REMARK  Name = 
REMARK  9 active torsions:
REMARK  status: ('A' for Active; 'I' for Inactive)
REMARK    1  A    between atoms: C_1  and  O_2
REMARK    2  A    between atoms: O_2  and  C_3
REMARK    3  A    between atoms: C_7  and  N_8
REMARK    4  A    between atoms: N_8  and  C_9
REMARK    5  A    between atoms: C_11  and  C_12
REMARK    6  A    between atoms: C_11  and  N_24
REMARK    7  A    between atoms: C_12  and  C_14
REMARK    8  A    between atoms: C_17  and  C_18
REMARK    9  A    between atoms: C_19  and  N_20
REMARK                            x       y       z     vdW  Elec       q    Type
REMARK                         _______ _______ _______ _____ _____    ______ ____
ROOT
ATOM      1  C   UNL     1      -0.048  10.941  19.091  0.00  0.00    +0.000 C 
ATOM      2  S   UNL     1       1.431  10.182  18.431  0.00  0.00    +0.000 SA
ATOM      3  C   UNL     1       0.055  11.976  20.000  0.00  0.00    +0.000 C 
ENDROOT
BRANCH   3   4
ATOM      4  N   UNL     1      -0.755  11.892  21.188  0.00  0.00    +0.000 N 
ATOM      5  C   UNL     1      -1.906  12.623  21.273  0.00  0.00    +0.000 A 
ATOM      6  C   UNL     1      -2.739  12.560  22.383  0.00  0.00    +0.000 A 
ATOM      7  C   UNL     1      -2.442  11.673  23.402  0.00  0.00    +0.000 A 
ATOM      8  C   UNL     1      -1.322  10.864  23.280  0.00  0.00    +0.000 A 
ATOM      9  C   UNL     1      -0.487  10.991  22.168  0.00  0.00    +0.000 A 
ENDBRANCH   3   4
BRANCH   1  10
ATOM     10  N   UNL     1      -1.341  10.372  18.894  0.00  0.00    +0.000 N 
ATOM     11  H   UNL     1      -1.895  10.305  19.739  0.00  0.00    +0.000 HD
BRANCH  10  16
ATOM     12  C   UNL     1      -4.260  11.483  16.875  0.00  0.00    +0.000 A 
ATOM     13  C   UNL     1      -4.048  10.809  15.674  0.00  0.00    +0.000 A 
ATOM     14  C   UNL     1      -2.926  10.002  15.513  0.00  0.00    +0.000 A 
ATOM     15  C   UNL     1      -2.010   9.862  16.557  0.00  0.00    +0.000 A 
ATOM     16  C   UNL     1      -2.224  10.485  17.787  0.00  0.00    +0.000 A 
ATOM     17  C   UNL     1      -3.348  11.320  17.925  0.00  0.00    +0.000 A 
BRANCH  12  19
ATOM     18  C   UNL     1      -6.408  11.865  17.821  0.00  0.00    +0.000 C 
ATOM     19  O   UNL     1      -5.391  12.252  16.905  0.00  0.00    +0.000 OA
ENDBRANCH  12  19
ENDBRANCH  10  16
ENDBRANCH   1  10
BRANCH   3  20
ATOM     20  C   UNL     1       1.168  13.021  19.921  0.00  0.00    +0.000 C 
ATOM     21  O   UNL     1       2.232  12.831  20.515  0.00  0.00    +0.000 OA
BRANCH  20  22
ATOM     22  C   UNL     1       0.977  14.338  19.230  0.00  0.00    +0.000 A 
ATOM     23  C   UNL     1      -0.291  14.923  19.292  0.00  0.00    +0.000 A 
ATOM     24  C   UNL     1      -0.494  16.226  18.828  0.00  0.00    +0.000 A 
ATOM     25  C   UNL     1       0.562  16.985  18.291  0.00  0.00    +0.000 A 
ATOM     26  C   UNL     1       0.274  18.422  17.943  0.00  0.00    +0.000 C 
ATOM     27  C   UNL     1       1.824  16.364  18.164  0.00  0.00    +0.000 A 
ATOM     28  C   UNL     1       2.013  15.030  18.591  0.00  0.00    +0.000 A 
BRANCH  27  29
ATOM     29  N   UNL     1       3.012  17.069  17.626  0.00  0.00    +0.000 N 
ATOM     30  O   UNL     1       3.990  17.250  18.360  0.00  0.00    +0.000 OA
ATOM     31  O   UNL     1       2.949  17.482  16.456  0.00  0.00    +0.000 OA
ENDBRANCH  27  29
ENDBRANCH  20  22
ENDBRANCH   3  20
TORSDOF 7
ENDMDL
