MODEL 1
REMARK VINA RESULT:      -7.1      0.000      0.000
REMARK  Name = 
REMARK  7 active torsions:
REMARK  status: ('A' for Active; 'I' for Inactive)
REMARK    1  A    between atoms: C_1  and  O_2
REMARK    2  A    between atoms: O_2  and  C_3
REMARK    3  A    between atoms: C_6  and  C_7
REMARK    4  A    between atoms: N_9  and  O_10
REMARK    5  A    between atoms: O_10  and  C_11
REMARK    6  A    between atoms: C_11  and  O_13
REMARK    7  A    between atoms: O_13  and  C_14
REMARK                            x       y       z     vdW  Elec       q    Type
REMARK                         _______ _______ _______ _____ _____    ______ ____
ROOT
ATOM      1  C   UNL     1       3.391   5.786  19.790  0.00  0.00    +0.000 C 
ATOM      2  N   UNL     1       2.609   6.819  19.807  0.00  0.00    +0.000 NA
ATOM      3  N   UNL     1       3.291   4.786  20.746  0.00  0.00    +0.000 N 
ATOM      4  H   UNL     1       2.844   7.499  19.083  0.00  0.00    +0.000 HD
ATOM      5  H   UNL     1       3.644   3.864  20.482  0.00  0.00    +0.000 HD
ENDROOT
BRANCH   1   9
ATOM      6  C   UNL     1       6.444   5.356  16.754  0.00  0.00    +0.000 A 
ATOM      7  C   UNL     1       6.531   4.651  17.956  0.00  0.00    +0.000 A 
ATOM      8  C   UNL     1       5.545   4.789  18.940  0.00  0.00    +0.000 A 
ATOM      9  C   UNL     1       4.460   5.650  18.735  0.00  0.00    +0.000 A 
ATOM     10  C   UNL     1       4.384   6.368  17.535  0.00  0.00    +0.000 A 
ATOM     11  C   UNL     1       5.376   6.228  16.552  0.00  0.00    +0.000 A 
BRANCH   6  13
ATOM     12  C   UNL     1       7.106   4.898  14.529  0.00  0.00    +0.000 C 
ATOM     13  O   UNL     1       7.474   5.143  15.880  0.00  0.00    +0.000 OA
ENDBRANCH   6  13
ENDBRANCH   1   9
BRANCH   3  14
ATOM     14  O   UNL     1       2.009   4.710  21.344  0.00  0.00    +0.000 OA
BRANCH  14  15
ATOM     15  C   UNL     1       1.565   3.415  21.437  0.00  0.00    +0.000 C 
ATOM     16  O   UNL     1       1.849   2.664  22.367  0.00  0.00    +0.000 OA
BRANCH  15  17
ATOM     17  O   UNL     1       0.844   3.095  20.298  0.00  0.00    +0.000 OA
BRANCH  17  18
ATOM     18  C   UNL     1       1.600   2.828  19.143  0.00  0.00    +0.000 A 
ATOM     19  C   UNL     1       1.400   3.643  18.028  0.00  0.00    +0.000 A 
ATOM     20  C   UNL     1       2.237   3.506  16.918  0.00  0.00    +0.000 A 
ATOM     21  C   UNL     1       3.270   2.565  16.930  0.00  0.00    +0.000 A 
ATOM     22  C   UNL     1       3.467   1.757  18.050  0.00  0.00    +0.000 A 
ATOM     23  C   UNL     1       2.639   1.892  19.161  0.00  0.00    +0.000 A 
ENDBRANCH  17  18
ENDBRANCH  15  17
ENDBRANCH  14  15
ENDBRANCH   3  14
TORSDOF 6
ENDMDL
MODEL 2
REMARK VINA RESULT:      -7.0      0.325      1.085
REMARK  Name = 
REMARK  7 active torsions:
REMARK  status: ('A' for Active; 'I' for Inactive)
REMARK    1  A    between atoms: C_1  and  O_2
REMARK    2  A    between atoms: O_2  and  C_3
REMARK    3  A    between atoms: C_6  and  C_7
REMARK    4  A    between atoms: N_9  and  O_10
REMARK    5  A    between atoms: O_10  and  C_11
REMARK    6  A    between atoms: C_11  and  O_13
REMARK    7  A    between atoms: O_13  and  C_14
REMARK                            x       y       z     vdW  Elec       q    Type
REMARK                         _______ _______ _______ _____ _____    ______ ____
ROOT
ATOM      1  C   UNL     1       3.514   5.885  19.485  0.00  0.00    +0.000 C 
ATOM      2  N   UNL     1       2.674   6.853  19.297  0.00  0.00    +0.000 NA
ATOM      3  N   UNL     1       3.442   5.072  20.607  0.00  0.00    +0.000 N 
ATOM      4  H   UNL     1       2.892   7.402  18.464  0.00  0.00    +0.000 HD
ATOM      5  H   UNL     1       3.855   4.140  20.524  0.00  0.00    +0.000 HD
ENDROOT
BRANCH   1   9
ATOM      6  C   UNL     1       6.698   5.179  16.643  0.00  0.00    +0.000 A 
ATOM      7  C   UNL     1       5.522   5.819  16.248  0.00  0.00    +0.000 A 
ATOM      8  C   UNL     1       4.489   6.048  17.166  0.00  0.00    +0.000 A 
ATOM      9  C   UNL     1       4.621   5.624  18.494  0.00  0.00    +0.000 A 
ATOM     10  C   UNL     1       5.796   4.969  18.883  0.00  0.00    +0.000 A 
ATOM     11  C   UNL     1       6.827   4.740  17.959  0.00  0.00    +0.000 A 
BRANCH   6  13
ATOM     12  C   UNL     1       7.114   4.930  14.326  0.00  0.00    +0.000 C 
ATOM     13  O   UNL     1       7.624   5.006  15.652  0.00  0.00    +0.000 OA
ENDBRANCH   6  13
ENDBRANCH   1   9
BRANCH   3  14
ATOM     14  O   UNL     1       2.149   5.028  21.185  0.00  0.00    +0.000 OA
BRANCH  14  15
ATOM     15  C   UNL     1       1.743   3.740  21.429  0.00  0.00    +0.000 C 
ATOM     16  O   UNL     1       2.104   3.087  22.404  0.00  0.00    +0.000 OA
BRANCH  15  17
ATOM     17  O   UNL     1       0.957   3.300  20.376  0.00  0.00    +0.000 OA
BRANCH  17  18
ATOM     18  C   UNL     1       1.643   2.933  19.205  0.00  0.00    +0.000 A 
ATOM     19  C   UNL     1       1.391   3.663  18.043  0.00  0.00    +0.000 A 
ATOM     20  C   UNL     1       2.161   3.427  16.903  0.00  0.00    +0.000 A 
ATOM     21  C   UNL     1       3.181   2.472  16.929  0.00  0.00    +0.000 A 
ATOM     22  C   UNL     1       3.431   1.749  18.096  0.00  0.00    +0.000 A 
ATOM     23  C   UNL     1       2.669   1.983  19.237  0.00  0.00    +0.000 A 
ENDBRANCH  17  18
ENDBRANCH  15  17
ENDBRANCH  14  15
ENDBRANCH   3  14
TORSDOF 6
ENDMDL
MODEL 3
REMARK VINA RESULT:      -6.9      1.940      2.979
REMARK  Name = 
REMARK  7 active torsions:
REMARK  status: ('A' for Active; 'I' for Inactive)
REMARK    1  A    between atoms: C_1  and  O_2
REMARK    2  A    between atoms: O_2  and  C_3
REMARK    3  A    between atoms: C_6  and  C_7
REMARK    4  A    between atoms: N_9  and  O_10
REMARK    5  A    between atoms: O_10  and  C_11
REMARK    6  A    between atoms: C_11  and  O_13
REMARK    7  A    between atoms: O_13  and  C_14
REMARK                            x       y       z     vdW  Elec       q    Type
REMARK                         _______ _______ _______ _____ _____    ______ ____
ROOT
ATOM      1  C   UNL     1       4.355   2.677  19.245  0.00  0.00    +0.000 C 
ATOM      2  N   UNL     1       4.974   2.042  20.189  0.00  0.00    +0.000 NA
ATOM      3  N   UNL     1       3.067   2.331  18.863  0.00  0.00    +0.000 N 
ATOM      4  H   UNL     1       5.934   2.366  20.314  0.00  0.00    +0.000 HD
ATOM      5  H   UNL     1       2.511   3.061  18.412  0.00  0.00    +0.000 HD
ENDROOT
BRANCH   1   9
ATOM      6  C   UNL     1       6.330   5.902  17.142  0.00  0.00    +0.000 A 
ATOM      7  C   UNL     1       6.368   5.834  18.536  0.00  0.00    +0.000 A 
ATOM      8  C   UNL     1       5.729   4.792  19.219  0.00  0.00    +0.000 A 
ATOM      9  C   UNL     1       5.030   3.807  18.509  0.00  0.00    +0.000 A 
ATOM     10  C   UNL     1       4.981   3.888  17.112  0.00  0.00    +0.000 A 
ATOM     11  C   UNL     1       5.621   4.935  16.432  0.00  0.00    +0.000 A 
BRANCH   6  13
ATOM     12  C   UNL     1       7.648   7.832  17.512  0.00  0.00    +0.000 C 
ATOM     13  O   UNL     1       6.982   6.972  16.596  0.00  0.00    +0.000 OA
ENDBRANCH   6  13
ENDBRANCH   1   9
BRANCH   3  14
ATOM     14  O   UNL     1       2.341   1.665  19.882  0.00  0.00    +0.000 OA
BRANCH  14  15
ATOM     15  C   UNL     1       1.660   2.548  20.682  0.00  0.00    +0.000 C 
ATOM     16  O   UNL     1       1.745   2.559  21.907  0.00  0.00    +0.000 OA
BRANCH  15  17
ATOM     17  O   UNL     1       0.829   3.331  19.897  0.00  0.00    +0.000 OA
BRANCH  17  18
ATOM     18  C   UNL     1       1.342   4.581  19.509  0.00  0.00    +0.000 A 
ATOM     19  C   UNL     1       1.807   5.435  20.509  0.00  0.00    +0.000 A 
ATOM     20  C   UNL     1       2.460   6.618  20.153  0.00  0.00    +0.000 A 
ATOM     21  C   UNL     1       2.652   6.936  18.805  0.00  0.00    +0.000 A 
ATOM     22  C   UNL     1       2.188   6.074  17.811  0.00  0.00    +0.000 A 
ATOM     23  C   UNL     1       1.540   4.892  18.160  0.00  0.00    +0.000 A 
ENDBRANCH  17  18
ENDBRANCH  15  17
ENDBRANCH  14  15
ENDBRANCH   3  14
TORSDOF 6
ENDMDL
MODEL 4
REMARK VINA RESULT:      -6.8      2.048      3.247
REMARK  Name = 
REMARK  7 active torsions:
REMARK  status: ('A' for Active; 'I' for Inactive)
REMARK    1  A    between atoms: C_1  and  O_2
REMARK    2  A    between atoms: O_2  and  C_3
REMARK    3  A    between atoms: C_6  and  C_7
REMARK    4  A    between atoms: N_9  and  O_10
REMARK    5  A    between atoms: O_10  and  C_11
REMARK    6  A    between atoms: C_11  and  O_13
REMARK    7  A    between atoms: O_13  and  C_14
REMARK                            x       y       z     vdW  Elec       q    Type
REMARK                         _______ _______ _______ _____ _____    ______ ____
ROOT
ATOM      1  C   UNL     1       4.537   2.786  18.868  0.00  0.00    +0.000 C 
ATOM      2  N   UNL     1       4.943   2.196  19.946  0.00  0.00    +0.000 NA
ATOM      3  N   UNL     1       3.449   2.312  18.149  0.00  0.00    +0.000 N 
ATOM      4  H   UNL     1       5.791   2.620  20.328  0.00  0.00    +0.000 HD
ATOM      5  H   UNL     1       2.957   2.989  17.562  0.00  0.00    +0.000 HD
ENDROOT
BRANCH   1   9
ATOM      6  C   UNL     1       6.554   6.299  17.348  0.00  0.00    +0.000 A 
ATOM      7  C   UNL     1       5.972   5.379  16.474  0.00  0.00    +0.000 A 
ATOM      8  C   UNL     1       5.320   4.241  16.963  0.00  0.00    +0.000 A 
ATOM      9  C   UNL     1       5.253   4.005  18.342  0.00  0.00    +0.000 A 
ATOM     10  C   UNL     1       5.851   4.922  19.215  0.00  0.00    +0.000 A 
ATOM     11  C   UNL     1       6.506   6.060  18.720  0.00  0.00    +0.000 A 
BRANCH   6  13
ATOM     12  C   UNL     1       7.831   8.275  17.614  0.00  0.00    +0.000 C 
ATOM     13  O   UNL     1       7.170   7.361  16.746  0.00  0.00    +0.000 OA
ENDBRANCH   6  13
ENDBRANCH   1   9
BRANCH   3  14
ATOM     14  O   UNL     1       2.554   1.541  18.931  0.00  0.00    +0.000 OA
BRANCH  14  15
ATOM     15  C   UNL     1       1.812   2.326  19.778  0.00  0.00    +0.000 C 
ATOM     16  O   UNL     1       1.791   2.180  20.997  0.00  0.00    +0.000 OA
BRANCH  15  17
ATOM     17  O   UNL     1       1.056   3.217  19.033  0.00  0.00    +0.000 OA
BRANCH  17  18
ATOM     18  C   UNL     1       1.473   4.559  19.063  0.00  0.00    +0.000 A 
ATOM     19  C   UNL     1       1.627   5.167  20.309  0.00  0.00    +0.000 A 
ATOM     20  C   UNL     1       2.183   6.446  20.385  0.00  0.00    +0.000 A 
ATOM     21  C   UNL     1       2.589   7.105  19.221  0.00  0.00    +0.000 A 
ATOM     22  C   UNL     1       2.436   6.489  17.979  0.00  0.00    +0.000 A 
ATOM     23  C   UNL     1       1.886   5.212  17.898  0.00  0.00    +0.000 A 
ENDBRANCH  17  18
ENDBRANCH  15  17
ENDBRANCH  14  15
ENDBRANCH   3  14
TORSDOF 6
ENDMDL
MODEL 5
REMARK VINA RESULT:      -6.8      2.811      4.184
REMARK  Name = 
REMARK  7 active torsions:
REMARK  status: ('A' for Active; 'I' for Inactive)
REMARK    1  A    between atoms: C_1  and  O_2
REMARK    2  A    between atoms: O_2  and  C_3
REMARK    3  A    between atoms: C_6  and  C_7
REMARK    4  A    between atoms: N_9  and  O_10
REMARK    5  A    between atoms: O_10  and  C_11
REMARK    6  A    between atoms: C_11  and  O_13
REMARK    7  A    between atoms: O_13  and  C_14
REMARK                            x       y       z     vdW  Elec       q    Type
REMARK                         _______ _______ _______ _____ _____    ______ ____
ROOT
ATOM      1  C   UNL     1       7.077   5.281  16.728  0.00  0.00    +0.000 C 
ATOM      2  N   UNL     1       7.151   6.551  16.970  0.00  0.00    +0.000 NA
ATOM      3  N   UNL     1       7.266   4.341  17.731  0.00  0.00    +0.000 N 
ATOM      4  H   UNL     1       7.055   7.116  16.125  0.00  0.00    +0.000 HD
ATOM      5  H   UNL     1       6.841   3.423  17.584  0.00  0.00    +0.000 HD
ENDROOT
BRANCH   1   9
ATOM      6  C   UNL     1       6.265   3.867  12.721  0.00  0.00    +0.000 A 
ATOM      7  C   UNL     1       5.462   3.470  13.791  0.00  0.00    +0.000 A 
ATOM      8  C   UNL     1       5.723   3.926  15.090  0.00  0.00    +0.000 A 
ATOM      9  C   UNL     1       6.806   4.779  15.332  0.00  0.00    +0.000 A 
ATOM     10  C   UNL     1       7.620   5.162  14.258  0.00  0.00    +0.000 A 
ATOM     11  C   UNL     1       7.355   4.701  12.960  0.00  0.00    +0.000 A 
BRANCH   6  13
ATOM     12  C   UNL     1       5.714   1.937  11.466  0.00  0.00    +0.000 C 
ATOM     13  O   UNL     1       5.913   3.345  11.507  0.00  0.00    +0.000 OA
ENDBRANCH   6  13
ENDBRANCH   1   9
BRANCH   3  14
ATOM     14  O   UNL     1       7.000   4.845  19.028  0.00  0.00    +0.000 OA
BRANCH  14  15
ATOM     15  C   UNL     1       5.662   4.799  19.328  0.00  0.00    +0.000 C 
ATOM     16  O   UNL     1       4.951   5.796  19.419  0.00  0.00    +0.000 OA
BRANCH  15  17
ATOM     17  O   UNL     1       5.296   3.488  19.587  0.00  0.00    +0.000 OA
BRANCH  17  18
ATOM     18  C   UNL     1       3.960   3.152  19.306  0.00  0.00    +0.000 A 
ATOM     19  C   UNL     1       3.625   2.853  17.986  0.00  0.00    +0.000 A 
ATOM     20  C   UNL     1       2.347   2.370  17.694  0.00  0.00    +0.000 A 
ATOM     21  C   UNL     1       1.417   2.181  18.720  0.00  0.00    +0.000 A 
ATOM     22  C   UNL     1       1.760   2.479  20.039  0.00  0.00    +0.000 A 
ATOM     23  C   UNL     1       3.034   2.956  20.336  0.00  0.00    +0.000 A 
ENDBRANCH  17  18
ENDBRANCH  15  17
ENDBRANCH  14  15
ENDBRANCH   3  14
TORSDOF 6
ENDMDL
MODEL 6
REMARK VINA RESULT:      -6.7      4.677      8.134
REMARK  Name = 
REMARK  7 active torsions:
REMARK  status: ('A' for Active; 'I' for Inactive)
REMARK    1  A    between atoms: C_1  and  O_2
REMARK    2  A    between atoms: O_2  and  C_3
REMARK    3  A    between atoms: C_6  and  C_7
REMARK    4  A    between atoms: N_9  and  O_10
REMARK    5  A    between atoms: O_10  and  C_11
REMARK    6  A    between atoms: C_11  and  O_13
REMARK    7  A    between atoms: O_13  and  C_14
REMARK                            x       y       z     vdW  Elec       q    Type
REMARK                         _______ _______ _______ _____ _____    ______ ____
ROOT
ATOM      1  C   UNL     1       5.422   6.471  16.614  0.00  0.00    +0.000 C 
ATOM      2  N   UNL     1       5.325   6.914  15.401  0.00  0.00    +0.000 NA
ATOM      3  N   UNL     1       6.523   6.763  17.406  0.00  0.00    +0.000 N 
ATOM      4  H   UNL     1       4.494   6.565  14.922  0.00  0.00    +0.000 HD
ATOM      5  H   UNL     1       6.383   6.720  18.418  0.00  0.00    +0.000 HD
ENDROOT
BRANCH   1   9
ATOM      6  C   UNL     1       2.297   3.976  18.266  0.00  0.00    +0.000 A 
ATOM      7  C   UNL     1       2.258   5.363  18.424  0.00  0.00    +0.000 A 
ATOM      8  C   UNL     1       3.268   6.173  17.891  0.00  0.00    +0.000 A 
ATOM      9  C   UNL     1       4.342   5.597  17.200  0.00  0.00    +0.000 A 
ATOM     10  C   UNL     1       4.386   4.204  17.058  0.00  0.00    +0.000 A 
ATOM     11  C   UNL     1       3.372   3.397  17.595  0.00  0.00    +0.000 A 
BRANCH   6  13
ATOM     12  C   UNL     1       1.604   2.398  19.888  0.00  0.00    +0.000 C 
ATOM     13  O   UNL     1       1.259   3.297  18.842  0.00  0.00    +0.000 OA
ENDBRANCH   6  13
ENDBRANCH   1   9
BRANCH   3  14
ATOM     14  O   UNL     1       7.196   7.947  17.014  0.00  0.00    +0.000 OA
BRANCH  14  15
ATOM     15  C   UNL     1       8.025   8.412  18.003  0.00  0.00    +0.000 C 
ATOM     16  O   UNL     1       8.594   7.684  18.813  0.00  0.00    +0.000 OA
BRANCH  15  17
ATOM     17  O   UNL     1       8.035   9.798  17.979  0.00  0.00    +0.000 OA
BRANCH  17  18
ATOM     18  C   UNL     1       9.157  10.419  18.554  0.00  0.00    +0.000 A 
ATOM     19  C   UNL     1      10.104  10.980  17.698  0.00  0.00    +0.000 A 
ATOM     20  C   UNL     1      11.151  11.735  18.233  0.00  0.00    +0.000 A 
ATOM     21  C   UNL     1      11.241  11.931  19.614  0.00  0.00    +0.000 A 
ATOM     22  C   UNL     1      10.287  11.370  20.463  0.00  0.00    +0.000 A 
ATOM     23  C   UNL     1       9.239  10.621  19.936  0.00  0.00    +0.000 A 
ENDBRANCH  17  18
ENDBRANCH  15  17
ENDBRANCH  14  15
ENDBRANCH   3  14
TORSDOF 6
ENDMDL
MODEL 7
REMARK VINA RESULT:      -6.7      2.020      6.141
REMARK  Name = 
REMARK  7 active torsions:
REMARK  status: ('A' for Active; 'I' for Inactive)
REMARK    1  A    between atoms: C_1  and  O_2
REMARK    2  A    between atoms: O_2  and  C_3
REMARK    3  A    between atoms: C_6  and  C_7
REMARK    4  A    between atoms: N_9  and  O_10
REMARK    5  A    between atoms: O_10  and  C_11
REMARK    6  A    between atoms: C_11  and  O_13
REMARK    7  A    between atoms: O_13  and  C_14
REMARK                            x       y       z     vdW  Elec       q    Type
REMARK                         _______ _______ _______ _____ _____    ______ ____
ROOT
ATOM      1  C   UNL     1       5.888   5.403  19.017  0.00  0.00    +0.000 C 
ATOM      2  N   UNL     1       6.883   5.160  19.810  0.00  0.00    +0.000 NA
ATOM      3  N   UNL     1       6.032   6.223  17.906  0.00  0.00    +0.000 N 
ATOM      4  H   UNL     1       6.610   4.595  20.616  0.00  0.00    +0.000 HD
ATOM      5  H   UNL     1       5.366   6.082  17.144  0.00  0.00    +0.000 HD
ENDROOT
BRANCH   1   9
ATOM      6  C   UNL     1       1.994   3.707  19.838  0.00  0.00    +0.000 A 
ATOM      7  C   UNL     1       3.052   2.893  19.428  0.00  0.00    +0.000 A 
ATOM      8  C   UNL     1       4.313   3.439  19.161  0.00  0.00    +0.000 A 
ATOM      9  C   UNL     1       4.526   4.818  19.290  0.00  0.00    +0.000 A 
ATOM     10  C   UNL     1       3.458   5.633  19.686  0.00  0.00    +0.000 A 
ATOM     11  C   UNL     1       2.195   5.081  19.951  0.00  0.00    +0.000 A 
BRANCH   6  13
ATOM     12  C   UNL     1       0.422   2.117  19.061  0.00  0.00    +0.000 C 
ATOM     13  O   UNL     1       0.812   3.055  20.056  0.00  0.00    +0.000 OA
ENDBRANCH   6  13
ENDBRANCH   1   9
BRANCH   3  14
ATOM     14  O   UNL     1       7.367   6.300  17.436  0.00  0.00    +0.000 OA
BRANCH  14  15
ATOM     15  C   UNL     1       7.632   5.334  16.499  0.00  0.00    +0.000 C 
ATOM     16  O   UNL     1       8.061   4.216  16.776  0.00  0.00    +0.000 OA
BRANCH  15  17
ATOM     17  O   UNL     1       7.424   5.856  15.232  0.00  0.00    +0.000 OA
BRANCH  17  18
ATOM     18  C   UNL     1       6.965   4.951  14.259  0.00  0.00    +0.000 A 
ATOM     19  C   UNL     1       5.706   4.378  14.440  0.00  0.00    +0.000 A 
ATOM     20  C   UNL     1       5.155   3.595  13.423  0.00  0.00    +0.000 A 
ATOM     21  C   UNL     1       5.858   3.396  12.231  0.00  0.00    +0.000 A 
ATOM     22  C   UNL     1       7.114   3.975  12.055  0.00  0.00    +0.000 A 
ATOM     23  C   UNL     1       7.667   4.760  13.064  0.00  0.00    +0.000 A 
ENDBRANCH  17  18
ENDBRANCH  15  17
ENDBRANCH  14  15
ENDBRANCH   3  14
TORSDOF 6
ENDMDL
MODEL 8
REMARK VINA RESULT:      -6.6      0.365      1.534
REMARK  Name = 
REMARK  7 active torsions:
REMARK  status: ('A' for Active; 'I' for Inactive)
REMARK    1  A    between atoms: C_1  and  O_2
REMARK    2  A    between atoms: O_2  and  C_3
REMARK    3  A    between atoms: C_6  and  C_7
REMARK    4  A    between atoms: N_9  and  O_10
REMARK    5  A    between atoms: O_10  and  C_11
REMARK    6  A    between atoms: C_11  and  O_13
REMARK    7  A    between atoms: O_13  and  C_14
REMARK                            x       y       z     vdW  Elec       q    Type
REMARK                         _______ _______ _______ _____ _____    ______ ____
ROOT
ATOM      1  C   UNL     1       3.220   6.079  19.532  0.00  0.00    +0.000 C 
ATOM      2  N   UNL     1       2.288   6.965  19.373  0.00  0.00    +0.000 NA
ATOM      3  N   UNL     1       3.239   5.239  20.636  0.00  0.00    +0.000 N 
ATOM      4  H   UNL     1       2.442   7.550  18.551  0.00  0.00    +0.000 HD
ATOM      5  H   UNL     1       3.740   4.354  20.528  0.00  0.00    +0.000 HD
ENDROOT
BRANCH   1   9
ATOM      6  C   UNL     1       6.434   5.745  16.655  0.00  0.00    +0.000 A 
ATOM      7  C   UNL     1       5.317   6.539  16.385  0.00  0.00    +0.000 A 
ATOM      8  C   UNL     1       4.275   6.648  17.313  0.00  0.00    +0.000 A 
ATOM      9  C   UNL     1       4.336   5.949  18.526  0.00  0.00    +0.000 A 
ATOM     10  C   UNL     1       5.450   5.142  18.786  0.00  0.00    +0.000 A 
ATOM     11  C   UNL     1       6.491   5.034  17.851  0.00  0.00    +0.000 A 
BRANCH   6  13
ATOM     12  C   UNL     1       7.085   4.876  14.552  0.00  0.00    +0.000 C 
ATOM     13  O   UNL     1       7.375   5.714  15.664  0.00  0.00    +0.000 OA
ENDBRANCH   6  13
ENDBRANCH   1   9
BRANCH   3  14
ATOM     14  O   UNL     1       1.963   5.057  21.224  0.00  0.00    +0.000 OA
BRANCH  14  15
ATOM     15  C   UNL     1       1.679   3.730  21.424  0.00  0.00    +0.000 C 
ATOM     16  O   UNL     1       2.022   3.104  22.424  0.00  0.00    +0.000 OA
BRANCH  15  17
ATOM     17  O   UNL     1       1.040   3.223  20.303  0.00  0.00    +0.000 OA
BRANCH  17  18
ATOM     18  C   UNL     1       1.845   3.030  19.167  0.00  0.00    +0.000 A 
ATOM     19  C   UNL     1       2.833   2.047  19.226  0.00  0.00    +0.000 A 
ATOM     20  C   UNL     1       3.549   1.724  18.071  0.00  0.00    +0.000 A 
ATOM     21  C   UNL     1       3.270   2.375  16.866  0.00  0.00    +0.000 A 
ATOM     22  C   UNL     1       2.278   3.355  16.815  0.00  0.00    +0.000 A 
ATOM     23  C   UNL     1       1.558   3.678  17.962  0.00  0.00    +0.000 A 
ENDBRANCH  17  18
ENDBRANCH  15  17
ENDBRANCH  14  15
ENDBRANCH   3  14
TORSDOF 6
ENDMDL
MODEL 9
REMARK VINA RESULT:      -6.6      1.925      3.155
REMARK  Name = 
REMARK  7 active torsions:
REMARK  status: ('A' for Active; 'I' for Inactive)
REMARK    1  A    between atoms: C_1  and  O_2
REMARK    2  A    between atoms: O_2  and  C_3
REMARK    3  A    between atoms: C_6  and  C_7
REMARK    4  A    between atoms: N_9  and  O_10
REMARK    5  A    between atoms: O_10  and  C_11
REMARK    6  A    between atoms: C_11  and  O_13
REMARK    7  A    between atoms: O_13  and  C_14
REMARK                            x       y       z     vdW  Elec       q    Type
REMARK                         _______ _______ _______ _____ _____    ______ ____
ROOT
ATOM      1  C   UNL     1       5.350   4.024  18.682  0.00  0.00    +0.000 C 
ATOM      2  N   UNL     1       5.633   4.831  19.655  0.00  0.00    +0.000 NA
ATOM      3  N   UNL     1       4.628   2.859  18.894  0.00  0.00    +0.000 N 
ATOM      4  H   UNL     1       6.224   5.609  19.357  0.00  0.00    +0.000 HD
ATOM      5  H   UNL     1       4.127   2.478  18.089  0.00  0.00    +0.000 HD
ENDROOT
BRANCH   1   9
ATOM      6  C   UNL     1       6.726   4.825  14.659  0.00  0.00    +0.000 A 
ATOM      7  C   UNL     1       7.596   4.944  15.745  0.00  0.00    +0.000 A 
ATOM      8  C   UNL     1       7.153   4.686  17.048  0.00  0.00    +0.000 A 
ATOM      9  C   UNL     1       5.822   4.316  17.279  0.00  0.00    +0.000 A 
ATOM     10  C   UNL     1       4.949   4.213  16.189  0.00  0.00    +0.000 A 
ATOM     11  C   UNL     1       5.397   4.474  14.886  0.00  0.00    +0.000 A 
BRANCH   6  13
ATOM     12  C   UNL     1       7.020   4.178  12.401  0.00  0.00    +0.000 C 
ATOM     13  O   UNL     1       7.277   5.114  13.441  0.00  0.00    +0.000 OA
ENDBRANCH   6  13
ENDBRANCH   1   9
BRANCH   3  14
ATOM     14  O   UNL     1       3.810   2.911  20.050  0.00  0.00    +0.000 OA
BRANCH  14  15
ATOM     15  C   UNL     1       2.486   2.718  19.747  0.00  0.00    +0.000 C 
ATOM     16  O   UNL     1       2.077   1.802  19.039  0.00  0.00    +0.000 OA
BRANCH  15  17
ATOM     17  O   UNL     1       1.737   3.751  20.287  0.00  0.00    +0.000 OA
BRANCH  17  18
ATOM     18  C   UNL     1       2.012   5.038  19.794  0.00  0.00    +0.000 A 
ATOM     19  C   UNL     1       2.188   5.187  18.418  0.00  0.00    +0.000 A 
ATOM     20  C   UNL     1       2.312   6.469  17.877  0.00  0.00    +0.000 A 
ATOM     21  C   UNL     1       2.251   7.591  18.707  0.00  0.00    +0.000 A 
ATOM     22  C   UNL     1       2.071   7.435  20.081  0.00  0.00    +0.000 A 
ATOM     23  C   UNL     1       1.943   6.160  20.626  0.00  0.00    +0.000 A 
ENDBRANCH  17  18
ENDBRANCH  15  17
ENDBRANCH  14  15
ENDBRANCH   3  14
TORSDOF 6
ENDMDL
