MODEL 1
REMARK VINA RESULT:      -9.1      0.000      0.000
REMARK  Name = 
REMARK  7 active torsions:
REMARK  status: ('A' for Active; 'I' for Inactive)
REMARK    1  A    between atoms: C_1  and  C_2
REMARK    2  A    between atoms: C_2  and  C_3
REMARK    3  A    between atoms: C_2  and  C_4
REMARK    4  A    between atoms: C_2  and  C_5
REMARK    5  A    between atoms: C_11  and  C_12
REMARK    6  A    between atoms: N_18  and  C_19
REMARK    7  A    between atoms: C_19  and  C_20
REMARK                            x       y       z     vdW  Elec       q    Type
REMARK                         _______ _______ _______ _____ _____    ______ ____
ROOT
ATOM      1  C   UNL     1       0.997   8.916  20.567  0.00  0.00    +0.000 A 
ATOM      2  C   UNL     1       0.987   8.777  21.967  0.00  0.00    +0.000 A 
ATOM      3  C   UNL     1       0.219   9.620  22.785  0.00  0.00    +0.000 A 
ATOM      4  C   UNL     1      -0.597  10.599  22.226  0.00  0.00    +0.000 A 
ATOM      5  N   UNL     1      -1.388  11.387  23.070  0.00  0.00    +0.000 NA
ATOM      6  C   UNL     1      -2.183  12.238  22.513  0.00  0.00    +0.000 A 
ATOM      7  N   UNL     1      -2.314  12.428  21.157  0.00  0.00    +0.000 N 
ATOM      8  C   UNL     1      -1.539  11.719  20.254  0.00  0.00    +0.000 A 
ATOM      9  O   UNL     1      -1.604  11.846  19.031  0.00  0.00    +0.000 OA
ATOM     10  C   UNL     1      -0.609  10.738  20.842  0.00  0.00    +0.000 A 
ATOM     11  C   UNL     1       0.196   9.936  20.022  0.00  0.00    +0.000 A 
ENDROOT
BRANCH   1  18
ATOM     12  C   UNL     1       5.507   5.944  17.065  0.00  0.00    +0.000 C 
ATOM     13  O   UNL     1       5.892   7.108  17.195  0.00  0.00    +0.000 OA
ATOM     14  N   UNL     1       4.282   5.494  17.515  0.00  0.00    +0.000 N 
ATOM     15  C   UNL     1       3.405   6.345  18.186  0.00  0.00    +0.000 A 
ATOM     16  C   UNL     1       3.091   7.599  17.687  0.00  0.00    +0.000 A 
ATOM     17  C   UNL     1       2.265   8.430  18.439  0.00  0.00    +0.000 A 
ATOM     18  C   UNL     1       1.802   8.026  19.699  0.00  0.00    +0.000 A 
ATOM     19  C   UNL     1       2.163   6.727  20.075  0.00  0.00    +0.000 A 
ATOM     20  N   UNL     1       2.902   5.863  19.332  0.00  0.00    +0.000 NA
ATOM     21  H   UNL     1       4.231   4.545  17.857  0.00  0.00    +0.000 HD
BRANCH  12  23
ATOM     22  C   UNL     1       5.502   3.645  16.090  0.00  0.00    +0.000 C 
ATOM     23  C   UNL     1       6.362   4.899  16.332  0.00  0.00    +0.000 C 
ATOM     24  C   UNL     1       7.545   4.533  17.238  0.00  0.00    +0.000 C 
ATOM     25  C   UNL     1       6.870   5.407  14.975  0.00  0.00    +0.000 C 
ENDBRANCH  12  23
ENDBRANCH   1  18
BRANCH   7  26
ATOM     26  C   UNL     1      -3.237  13.435  20.656  0.00  0.00    +0.000 C 
BRANCH  26  27
ATOM     27  C   UNL     1      -4.632  12.869  20.525  0.00  0.00    +0.000 A 
ATOM     28  C   UNL     1      -5.519  12.933  21.609  0.00  0.00    +0.000 A 
ATOM     29  C   UNL     1      -6.761  12.303  21.546  0.00  0.00    +0.000 A 
ATOM     30  C   UNL     1      -7.130  11.607  20.395  0.00  0.00    +0.000 A 
ATOM     31  C   UNL     1      -6.267  11.560  19.303  0.00  0.00    +0.000 A 
ATOM     32  C   UNL     1      -5.023  12.186  19.364  0.00  0.00    +0.000 A 
ENDBRANCH  26  27
ENDBRANCH   7  26
TORSDOF 4
ENDMDL
MODEL 2
REMARK VINA RESULT:      -8.9      2.267     11.149
REMARK  Name = 
REMARK  7 active torsions:
REMARK  status: ('A' for Active; 'I' for Inactive)
REMARK    1  A    between atoms: C_1  and  C_2
REMARK    2  A    between atoms: C_2  and  C_3
REMARK    3  A    between atoms: C_2  and  C_4
REMARK    4  A    between atoms: C_2  and  C_5
REMARK    5  A    between atoms: C_11  and  C_12
REMARK    6  A    between atoms: N_18  and  C_19
REMARK    7  A    between atoms: C_19  and  C_20
REMARK                            x       y       z     vdW  Elec       q    Type
REMARK                         _______ _______ _______ _____ _____    ______ ____
ROOT
ATOM      1  C   UNL     1       2.775   6.821  18.530  0.00  0.00    +0.000 A 
ATOM      2  C   UNL     1       2.706   5.567  19.163  0.00  0.00    +0.000 A 
ATOM      3  C   UNL     1       3.392   4.450  18.662  0.00  0.00    +0.000 A 
ATOM      4  C   UNL     1       4.204   4.562  17.537  0.00  0.00    +0.000 A 
ATOM      5  N   UNL     1       4.913   3.439  17.096  0.00  0.00    +0.000 NA
ATOM      6  C   UNL     1       5.708   3.598  16.092  0.00  0.00    +0.000 A 
ATOM      7  N   UNL     1       5.914   4.783  15.425  0.00  0.00    +0.000 N 
ATOM      8  C   UNL     1       5.222   5.931  15.771  0.00  0.00    +0.000 A 
ATOM      9  O   UNL     1       5.356   7.020  15.212  0.00  0.00    +0.000 OA
ATOM     10  C   UNL     1       4.294   5.801  16.910  0.00  0.00    +0.000 A 
ATOM     11  C   UNL     1       3.571   6.907  17.372  0.00  0.00    +0.000 A 
ENDROOT
BRANCH   1  18
ATOM     12  C   UNL     1      -1.355  11.538  19.986  0.00  0.00    +0.000 C 
ATOM     13  O   UNL     1      -1.718  11.095  18.894  0.00  0.00    +0.000 OA
ATOM     14  N   UNL     1      -0.209  11.121  20.633  0.00  0.00    +0.000 N 
ATOM     15  C   UNL     1       0.604  10.128  20.086  0.00  0.00    +0.000 A 
ATOM     16  C   UNL     1       1.014  10.176  18.764  0.00  0.00    +0.000 A 
ATOM     17  C   UNL     1       1.766   9.118  18.259  0.00  0.00    +0.000 A 
ATOM     18  C   UNL     1       2.058   8.004  19.057  0.00  0.00    +0.000 A 
ATOM     19  C   UNL     1       1.614   8.091  20.382  0.00  0.00    +0.000 A 
ATOM     20  N   UNL     1       0.947   9.141  20.927  0.00  0.00    +0.000 NA
ATOM     21  H   UNL     1      -0.230  11.086  21.642  0.00  0.00    +0.000 HD
BRANCH  12  23
ATOM     22  C   UNL     1      -2.149  12.352  22.210  0.00  0.00    +0.000 C 
ATOM     23  C   UNL     1      -2.144  12.647  20.699  0.00  0.00    +0.000 C 
ATOM     24  C   UNL     1      -3.586  12.617  20.174  0.00  0.00    +0.000 C 
ATOM     25  C   UNL     1      -1.528  14.036  20.479  0.00  0.00    +0.000 C 
ENDBRANCH  12  23
ENDBRANCH   1  18
BRANCH   7  26
ATOM     26  C   UNL     1       6.829   4.824  14.294  0.00  0.00    +0.000 C 
BRANCH  26  27
ATOM     27  C   UNL     1       6.300   4.000  13.144  0.00  0.00    +0.000 A 
ATOM     28  C   UNL     1       4.933   4.027  12.833  0.00  0.00    +0.000 A 
ATOM     29  C   UNL     1       4.410   3.177  11.859  0.00  0.00    +0.000 A 
ATOM     30  C   UNL     1       5.252   2.294  11.183  0.00  0.00    +0.000 A 
ATOM     31  C   UNL     1       6.616   2.277  11.466  0.00  0.00    +0.000 A 
ATOM     32  C   UNL     1       7.141   3.124  12.441  0.00  0.00    +0.000 A 
ENDBRANCH  26  27
ENDBRANCH   7  26
TORSDOF 4
ENDMDL
MODEL 3
REMARK VINA RESULT:      -8.8      2.256     11.158
REMARK  Name = 
REMARK  7 active torsions:
REMARK  status: ('A' for Active; 'I' for Inactive)
REMARK    1  A    between atoms: C_1  and  C_2
REMARK    2  A    between atoms: C_2  and  C_3
REMARK    3  A    between atoms: C_2  and  C_4
REMARK    4  A    between atoms: C_2  and  C_5
REMARK    5  A    between atoms: C_11  and  C_12
REMARK    6  A    between atoms: N_18  and  C_19
REMARK    7  A    between atoms: C_19  and  C_20
REMARK                            x       y       z     vdW  Elec       q    Type
REMARK                         _______ _______ _______ _____ _____    ______ ____
ROOT
ATOM      1  C   UNL     1       2.850   6.895  18.636  0.00  0.00    +0.000 A 
ATOM      2  C   UNL     1       2.883   5.674  19.333  0.00  0.00    +0.000 A 
ATOM      3  C   UNL     1       3.601   4.569  18.851  0.00  0.00    +0.000 A 
ATOM      4  C   UNL     1       4.344   4.663  17.679  0.00  0.00    +0.000 A 
ATOM      5  N   UNL     1       5.089   3.557  17.255  0.00  0.00    +0.000 NA
ATOM      6  C   UNL     1       5.820   3.702  16.201  0.00  0.00    +0.000 A 
ATOM      7  N   UNL     1       5.925   4.859  15.465  0.00  0.00    +0.000 N 
ATOM      8  C   UNL     1       5.191   5.987  15.792  0.00  0.00    +0.000 A 
ATOM      9  O   UNL     1       5.235   7.050  15.172  0.00  0.00    +0.000 OA
ATOM     10  C   UNL     1       4.333   5.870  16.986  0.00  0.00    +0.000 A 
ATOM     11  C   UNL     1       3.577   6.960  17.432  0.00  0.00    +0.000 A 
ENDROOT
BRANCH   1  18
ATOM     12  C   UNL     1      -1.404  11.532  19.989  0.00  0.00    +0.000 C 
ATOM     13  O   UNL     1      -1.738  11.076  18.894  0.00  0.00    +0.000 OA
ATOM     14  N   UNL     1      -0.261  11.143  20.659  0.00  0.00    +0.000 N 
ATOM     15  C   UNL     1       0.582  10.164  20.133  0.00  0.00    +0.000 A 
ATOM     16  C   UNL     1       1.015  10.213  18.818  0.00  0.00    +0.000 A 
ATOM     17  C   UNL     1       1.798   9.168  18.333  0.00  0.00    +0.000 A 
ATOM     18  C   UNL     1       2.098   8.065  19.143  0.00  0.00    +0.000 A 
ATOM     19  C   UNL     1       1.629   8.151  20.459  0.00  0.00    +0.000 A 
ATOM     20  N   UNL     1       0.931   9.189  20.986  0.00  0.00    +0.000 NA
ATOM     21  H   UNL     1      -0.299  11.113  21.667  0.00  0.00    +0.000 HD
BRANCH  12  23
ATOM     22  C   UNL     1      -1.559  13.989  20.410  0.00  0.00    +0.000 C 
ATOM     23  C   UNL     1      -2.228  12.629  20.680  0.00  0.00    +0.000 C 
ATOM     24  C   UNL     1      -2.217  12.351  22.190  0.00  0.00    +0.000 C 
ATOM     25  C   UNL     1      -3.672  12.689  20.163  0.00  0.00    +0.000 C 
ENDBRANCH  12  23
ENDBRANCH   1  18
BRANCH   7  26
ATOM     26  C   UNL     1       6.774   4.888  14.284  0.00  0.00    +0.000 C 
BRANCH  26  27
ATOM     27  C   UNL     1       6.254   3.945  13.225  0.00  0.00    +0.000 A 
ATOM     28  C   UNL     1       7.147   3.134  12.509  0.00  0.00    +0.000 A 
ATOM     29  C   UNL     1       6.699   2.354  11.444  0.00  0.00    +0.000 A 
ATOM     30  C   UNL     1       5.351   2.375  11.086  0.00  0.00    +0.000 A 
ATOM     31  C   UNL     1       4.451   3.156  11.807  0.00  0.00    +0.000 A 
ATOM     32  C   UNL     1       4.897   3.939  12.871  0.00  0.00    +0.000 A 
ENDBRANCH  26  27
ENDBRANCH   7  26
TORSDOF 4
ENDMDL
MODEL 4
REMARK VINA RESULT:      -8.8      2.366     11.138
REMARK  Name = 
REMARK  7 active torsions:
REMARK  status: ('A' for Active; 'I' for Inactive)
REMARK    1  A    between atoms: C_1  and  C_2
REMARK    2  A    between atoms: C_2  and  C_3
REMARK    3  A    between atoms: C_2  and  C_4
REMARK    4  A    between atoms: C_2  and  C_5
REMARK    5  A    between atoms: C_11  and  C_12
REMARK    6  A    between atoms: N_18  and  C_19
REMARK    7  A    between atoms: C_19  and  C_20
REMARK                            x       y       z     vdW  Elec       q    Type
REMARK                         _______ _______ _______ _____ _____    ______ ____
ROOT
ATOM      1  C   UNL     1       3.130   6.798  18.857  0.00  0.00    +0.000 A 
ATOM      2  C   UNL     1       3.612   5.786  19.707  0.00  0.00    +0.000 A 
ATOM      3  C   UNL     1       4.597   4.879  19.289  0.00  0.00    +0.000 A 
ATOM      4  C   UNL     1       5.164   4.982  18.023  0.00  0.00    +0.000 A 
ATOM      5  N   UNL     1       6.180   4.092  17.658  0.00  0.00    +0.000 NA
ATOM      6  C   UNL     1       6.729   4.260  16.502  0.00  0.00    +0.000 A 
ATOM      7  N   UNL     1       6.396   5.247  15.604  0.00  0.00    +0.000 N 
ATOM      8  C   UNL     1       5.374   6.143  15.869  0.00  0.00    +0.000 A 
ATOM      9  O   UNL     1       5.023   7.044  15.106  0.00  0.00    +0.000 OA
ATOM     10  C   UNL     1       4.709   5.988  17.176  0.00  0.00    +0.000 A 
ATOM     11  C   UNL     1       3.688   6.864  17.567  0.00  0.00    +0.000 A 
ENDROOT
BRANCH   1  18
ATOM     12  C   UNL     1      -0.415  11.370  21.677  0.00  0.00    +0.000 C 
ATOM     13  O   UNL     1       0.460  11.071  22.491  0.00  0.00    +0.000 OA
ATOM     14  N   UNL     1      -0.592  10.715  20.475  0.00  0.00    +0.000 N 
ATOM     15  C   UNL     1       0.254   9.674  20.093  0.00  0.00    +0.000 A 
ATOM     16  C   UNL     1       0.550   8.630  20.954  0.00  0.00    +0.000 A 
ATOM     17  C   UNL     1       1.457   7.658  20.539  0.00  0.00    +0.000 A 
ATOM     18  C   UNL     1       2.095   7.761  19.295  0.00  0.00    +0.000 A 
ATOM     19  C   UNL     1       1.686   8.843  18.507  0.00  0.00    +0.000 A 
ATOM     20  N   UNL     1       0.748   9.764  18.849  0.00  0.00    +0.000 NA
ATOM     21  H   UNL     1      -0.903  11.264  19.686  0.00  0.00    +0.000 HD
BRANCH  12  23
ATOM     22  C   UNL     1      -0.661  13.732  22.451  0.00  0.00    +0.000 C 
ATOM     23  C   UNL     1      -1.429  12.487  21.971  0.00  0.00    +0.000 C 
ATOM     24  C   UNL     1      -2.357  12.002  23.093  0.00  0.00    +0.000 C 
ATOM     25  C   UNL     1      -2.251  12.872  20.733  0.00  0.00    +0.000 C 
ENDBRANCH  12  23
ENDBRANCH   1  18
BRANCH   7  26
ATOM     26  C   UNL     1       7.083   5.319  14.324  0.00  0.00    +0.000 C 
BRANCH  26  27
ATOM     27  C   UNL     1       6.530   4.296  13.358  0.00  0.00    +0.000 A 
ATOM     28  C   UNL     1       7.378   3.686  12.423  0.00  0.00    +0.000 A 
ATOM     29  C   UNL     1       6.860   2.838  11.445  0.00  0.00    +0.000 A 
ATOM     30  C   UNL     1       5.489   2.588  11.396  0.00  0.00    +0.000 A 
ATOM     31  C   UNL     1       4.642   3.169  12.337  0.00  0.00    +0.000 A 
ATOM     32  C   UNL     1       5.156   4.019  13.314  0.00  0.00    +0.000 A 
ENDBRANCH  26  27
ENDBRANCH   7  26
TORSDOF 4
ENDMDL
MODEL 5
REMARK VINA RESULT:      -8.7      2.395     11.134
REMARK  Name = 
REMARK  7 active torsions:
REMARK  status: ('A' for Active; 'I' for Inactive)
REMARK    1  A    between atoms: C_1  and  C_2
REMARK    2  A    between atoms: C_2  and  C_3
REMARK    3  A    between atoms: C_2  and  C_4
REMARK    4  A    between atoms: C_2  and  C_5
REMARK    5  A    between atoms: C_11  and  C_12
REMARK    6  A    between atoms: N_18  and  C_19
REMARK    7  A    between atoms: C_19  and  C_20
REMARK                            x       y       z     vdW  Elec       q    Type
REMARK                         _______ _______ _______ _____ _____    ______ ____
ROOT
ATOM      1  C   UNL     1       3.198   6.688  18.806  0.00  0.00    +0.000 A 
ATOM      2  C   UNL     1       3.680   5.654  19.628  0.00  0.00    +0.000 A 
ATOM      3  C   UNL     1       4.662   4.756  19.184  0.00  0.00    +0.000 A 
ATOM      4  C   UNL     1       5.226   4.891  17.919  0.00  0.00    +0.000 A 
ATOM      5  N   UNL     1       6.240   4.009  17.529  0.00  0.00    +0.000 NA
ATOM      6  C   UNL     1       6.786   4.206  16.377  0.00  0.00    +0.000 A 
ATOM      7  N   UNL     1       6.452   5.216  15.505  0.00  0.00    +0.000 N 
ATOM      8  C   UNL     1       5.432   6.106  15.795  0.00  0.00    +0.000 A 
ATOM      9  O   UNL     1       5.080   7.027  15.057  0.00  0.00    +0.000 OA
ATOM     10  C   UNL     1       4.770   5.919  17.100  0.00  0.00    +0.000 A 
ATOM     11  C   UNL     1       3.752   6.786  17.516  0.00  0.00    +0.000 A 
ENDROOT
BRANCH   1  18
ATOM     12  C   UNL     1      -0.355  11.150  21.789  0.00  0.00    +0.000 C 
ATOM     13  O   UNL     1       0.495  10.792  22.606  0.00  0.00    +0.000 OA
ATOM     14  N   UNL     1      -0.509  10.566  20.547  0.00  0.00    +0.000 N 
ATOM     15  C   UNL     1       0.331   9.535  20.128  0.00  0.00    +0.000 A 
ATOM     16  C   UNL     1       0.590   8.440  20.937  0.00  0.00    +0.000 A 
ATOM     17  C   UNL     1       1.493   7.479  20.490  0.00  0.00    +0.000 A 
ATOM     18  C   UNL     1       2.165   7.641  19.271  0.00  0.00    +0.000 A 
ATOM     19  C   UNL     1       1.792   8.772  18.535  0.00  0.00    +0.000 A 
ATOM     20  N   UNL     1       0.859   9.687  18.905  0.00  0.00    +0.000 NA
ATOM     21  H   UNL     1      -0.792  11.163  19.783  0.00  0.00    +0.000 HD
BRANCH  12  23
ATOM     22  C   UNL     1      -2.286  11.769  23.246  0.00  0.00    +0.000 C 
ATOM     23  C   UNL     1      -1.360  12.264  22.120  0.00  0.00    +0.000 C 
ATOM     24  C   UNL     1      -2.197  12.538  20.862  0.00  0.00    +0.000 C 
ATOM     25  C   UNL     1      -0.672  13.553  22.590  0.00  0.00    +0.000 C 
ENDBRANCH  12  23
ENDBRANCH   1  18
BRANCH   7  26
ATOM     26  C   UNL     1       7.135   5.319  14.225  0.00  0.00    +0.000 C 
BRANCH  26  27
ATOM     27  C   UNL     1       6.547   4.355  13.221  0.00  0.00    +0.000 A 
ATOM     28  C   UNL     1       5.166   4.110  13.211  0.00  0.00    +0.000 A 
ATOM     29  C   UNL     1       4.626   3.130  12.379  0.00  0.00    +0.000 A 
ATOM     30  C   UNL     1       5.463   2.389  11.545  0.00  0.00    +0.000 A 
ATOM     31  C   UNL     1       6.832   2.642  11.528  0.00  0.00    +0.000 A 
ATOM     32  C   UNL     1       7.375   3.619  12.361  0.00  0.00    +0.000 A 
ENDBRANCH  26  27
ENDBRANCH   7  26
TORSDOF 4
ENDMDL
MODEL 6
REMARK VINA RESULT:      -8.7      0.637      1.106
REMARK  Name = 
REMARK  7 active torsions:
REMARK  status: ('A' for Active; 'I' for Inactive)
REMARK    1  A    between atoms: C_1  and  C_2
REMARK    2  A    between atoms: C_2  and  C_3
REMARK    3  A    between atoms: C_2  and  C_4
REMARK    4  A    between atoms: C_2  and  C_5
REMARK    5  A    between atoms: C_11  and  C_12
REMARK    6  A    between atoms: N_18  and  C_19
REMARK    7  A    between atoms: C_19  and  C_20
REMARK                            x       y       z     vdW  Elec       q    Type
REMARK                         _______ _______ _______ _____ _____    ______ ____
ROOT
ATOM      1  C   UNL     1       0.807   9.069  20.822  0.00  0.00    +0.000 A 
ATOM      2  C   UNL     1       0.798   8.901  22.218  0.00  0.00    +0.000 A 
ATOM      3  C   UNL     1       0.082   9.766  23.060  0.00  0.00    +0.000 A 
ATOM      4  C   UNL     1      -0.683  10.800  22.529  0.00  0.00    +0.000 A 
ATOM      5  N   UNL     1      -1.425  11.612  23.395  0.00  0.00    +0.000 NA
ATOM      6  C   UNL     1      -2.175  12.516  22.862  0.00  0.00    +0.000 A 
ATOM      7  N   UNL     1      -2.305  12.743  21.512  0.00  0.00    +0.000 N 
ATOM      8  C   UNL     1      -1.575  12.013  20.589  0.00  0.00    +0.000 A 
ATOM      9  O   UNL     1      -1.640  12.170  19.369  0.00  0.00    +0.000 OA
ATOM     10  C   UNL     1      -0.696  10.969  21.148  0.00  0.00    +0.000 A 
ATOM     11  C   UNL     1       0.059  10.143  20.305  0.00  0.00    +0.000 A 
ENDROOT
BRANCH   1  18
ATOM     12  C   UNL     1       5.103   5.984  17.155  0.00  0.00    +0.000 C 
ATOM     13  O   UNL     1       5.512   7.142  17.253  0.00  0.00    +0.000 OA
ATOM     14  N   UNL     1       3.893   5.558  17.665  0.00  0.00    +0.000 N 
ATOM     15  C   UNL     1       3.061   6.432  18.365  0.00  0.00    +0.000 A 
ATOM     16  C   UNL     1       2.745   7.685  17.865  0.00  0.00    +0.000 A 
ATOM     17  C   UNL     1       1.968   8.538  18.645  0.00  0.00    +0.000 A 
ATOM     18  C   UNL     1       1.556   8.157  19.929  0.00  0.00    +0.000 A 
ATOM     19  C   UNL     1       1.914   6.856  20.304  0.00  0.00    +0.000 A 
ATOM     20  N   UNL     1       2.603   5.971  19.538  0.00  0.00    +0.000 NA
ATOM     21  H   UNL     1       3.843   4.615  18.021  0.00  0.00    +0.000 HD
BRANCH  12  23
ATOM     22  C   UNL     1       5.108   3.599  16.411  0.00  0.00    +0.000 C 
ATOM     23  C   UNL     1       5.906   4.916  16.396  0.00  0.00    +0.000 C 
ATOM     24  C   UNL     1       7.236   4.709  17.133  0.00  0.00    +0.000 C 
ATOM     25  C   UNL     1       6.165   5.308  14.935  0.00  0.00    +0.000 C 
ENDBRANCH  12  23
ENDBRANCH   1  18
BRANCH   7  26
ATOM     26  C   UNL     1      -3.175  13.809  21.040  0.00  0.00    +0.000 C 
BRANCH  26  27
ATOM     27  C   UNL     1      -4.627  13.462  21.273  0.00  0.00    +0.000 A 
ATOM     28  C   UNL     1      -5.232  12.441  20.525  0.00  0.00    +0.000 A 
ATOM     29  C   UNL     1      -6.599  12.196  20.638  0.00  0.00    +0.000 A 
ATOM     30  C   UNL     1      -7.375  12.967  21.503  0.00  0.00    +0.000 A 
ATOM     31  C   UNL     1      -6.779  13.965  22.269  0.00  0.00    +0.000 A 
ATOM     32  C   UNL     1      -5.413  14.215  22.157  0.00  0.00    +0.000 A 
ENDBRANCH  26  27
ENDBRANCH   7  26
TORSDOF 4
ENDMDL
MODEL 7
REMARK VINA RESULT:      -8.7      2.234     11.023
REMARK  Name = 
REMARK  7 active torsions:
REMARK  status: ('A' for Active; 'I' for Inactive)
REMARK    1  A    between atoms: C_1  and  C_2
REMARK    2  A    between atoms: C_2  and  C_3
REMARK    3  A    between atoms: C_2  and  C_4
REMARK    4  A    between atoms: C_2  and  C_5
REMARK    5  A    between atoms: C_11  and  C_12
REMARK    6  A    between atoms: N_18  and  C_19
REMARK    7  A    between atoms: C_19  and  C_20
REMARK                            x       y       z     vdW  Elec       q    Type
REMARK                         _______ _______ _______ _____ _____    ______ ____
ROOT
ATOM      1  C   UNL     1       2.790   6.831  19.295  0.00  0.00    +0.000 A 
ATOM      2  C   UNL     1       3.101   5.720  20.100  0.00  0.00    +0.000 A 
ATOM      3  C   UNL     1       4.077   4.786  19.722  0.00  0.00    +0.000 A 
ATOM      4  C   UNL     1       4.804   4.955  18.547  0.00  0.00    +0.000 A 
ATOM      5  N   UNL     1       5.805   4.031  18.227  0.00  0.00    +0.000 NA
ATOM      6  C   UNL     1       6.504   4.258  17.166  0.00  0.00    +0.000 A 
ATOM      7  N   UNL     1       6.344   5.337  16.329  0.00  0.00    +0.000 N 
ATOM      8  C   UNL     1       5.350   6.276  16.550  0.00  0.00    +0.000 A 
ATOM      9  O   UNL     1       5.151   7.260  15.837  0.00  0.00    +0.000 OA
ATOM     10  C   UNL     1       4.518   6.058  17.748  0.00  0.00    +0.000 A 
ATOM     11  C   UNL     1       3.509   6.966  18.092  0.00  0.00    +0.000 A 
ENDROOT
BRANCH   1  18
ATOM     12  C   UNL     1      -0.823  11.365  22.089  0.00  0.00    +0.000 C 
ATOM     13  O   UNL     1      -0.088  10.925  22.975  0.00  0.00    +0.000 OA
ATOM     14  N   UNL     1      -0.872  10.844  20.811  0.00  0.00    +0.000 N 
ATOM     15  C   UNL     1      -0.047   9.783  20.437  0.00  0.00    +0.000 A 
ATOM     16  C   UNL     1       0.063   8.642  21.215  0.00  0.00    +0.000 A 
ATOM     17  C   UNL     1       0.957   7.649  20.823  0.00  0.00    +0.000 A 
ATOM     18  C   UNL     1       1.765   7.822  19.691  0.00  0.00    +0.000 A 
ATOM     19  C   UNL     1       1.537   9.002  18.974  0.00  0.00    +0.000 A 
ATOM     20  N   UNL     1       0.619   9.954  19.285  0.00  0.00    +0.000 NA
ATOM     21  H   UNL     1      -1.037  11.487  20.051  0.00  0.00    +0.000 HD
BRANCH  12  23
ATOM     22  C   UNL     1      -2.529  12.866  21.052  0.00  0.00    +0.000 C 
ATOM     23  C   UNL     1      -1.797  12.522  22.363  0.00  0.00    +0.000 C 
ATOM     24  C   UNL     1      -0.977  13.736  22.817  0.00  0.00    +0.000 C 
ATOM     25  C   UNL     1      -2.847  12.163  23.423  0.00  0.00    +0.000 C 
ENDBRANCH  12  23
ENDBRANCH   1  18
BRANCH   7  26
ATOM     26  C   UNL     1       7.189   5.469  15.153  0.00  0.00    +0.000 C 
BRANCH  26  27
ATOM     27  C   UNL     1       6.676   4.608  14.022  0.00  0.00    +0.000 A 
ATOM     28  C   UNL     1       7.460   4.416  12.875  0.00  0.00    +0.000 A 
ATOM     29  C   UNL     1       6.949   3.732  11.773  0.00  0.00    +0.000 A 
ATOM     30  C   UNL     1       5.649   3.228  11.810  0.00  0.00    +0.000 A 
ATOM     31  C   UNL     1       4.872   3.390  12.953  0.00  0.00    +0.000 A 
ATOM     32  C   UNL     1       5.378   4.076  14.056  0.00  0.00    +0.000 A 
ENDBRANCH  26  27
ENDBRANCH   7  26
TORSDOF 4
ENDMDL
MODEL 8
REMARK VINA RESULT:      -8.5      0.864      1.457
REMARK  Name = 
REMARK  7 active torsions:
REMARK  status: ('A' for Active; 'I' for Inactive)
REMARK    1  A    between atoms: C_1  and  C_2
REMARK    2  A    between atoms: C_2  and  C_3
REMARK    3  A    between atoms: C_2  and  C_4
REMARK    4  A    between atoms: C_2  and  C_5
REMARK    5  A    between atoms: C_11  and  C_12
REMARK    6  A    between atoms: N_18  and  C_19
REMARK    7  A    between atoms: C_19  and  C_20
REMARK                            x       y       z     vdW  Elec       q    Type
REMARK                         _______ _______ _______ _____ _____    ______ ____
ROOT
ATOM      1  C   UNL     1       0.936   8.991  20.743  0.00  0.00    +0.000 A 
ATOM      2  C   UNL     1       0.919   8.819  22.139  0.00  0.00    +0.000 A 
ATOM      3  C   UNL     1       0.211   9.690  22.980  0.00  0.00    +0.000 A 
ATOM      4  C   UNL     1      -0.537  10.737  22.449  0.00  0.00    +0.000 A 
ATOM      5  N   UNL     1      -1.271  11.555  23.315  0.00  0.00    +0.000 NA
ATOM      6  C   UNL     1      -2.007  12.472  22.782  0.00  0.00    +0.000 A 
ATOM      7  N   UNL     1      -2.128  12.704  21.432  0.00  0.00    +0.000 N 
ATOM      8  C   UNL     1      -1.405  11.967  20.509  0.00  0.00    +0.000 A 
ATOM      9  O   UNL     1      -1.462  12.128  19.290  0.00  0.00    +0.000 OA
ATOM     10  C   UNL     1      -0.542  10.910  21.069  0.00  0.00    +0.000 A 
ATOM     11  C   UNL     1       0.205  10.076  20.226  0.00  0.00    +0.000 A 
ENDROOT
BRANCH   1  18
ATOM     12  C   UNL     1       5.195   5.877  17.057  0.00  0.00    +0.000 C 
ATOM     13  O   UNL     1       5.603   7.037  17.139  0.00  0.00    +0.000 OA
ATOM     14  N   UNL     1       3.992   5.454  17.585  0.00  0.00    +0.000 N 
ATOM     15  C   UNL     1       3.167   6.334  18.286  0.00  0.00    +0.000 A 
ATOM     16  C   UNL     1       2.842   7.581  17.778  0.00  0.00    +0.000 A 
ATOM     17  C   UNL     1       2.073   8.441  18.558  0.00  0.00    +0.000 A 
ATOM     18  C   UNL     1       1.677   8.071  19.850  0.00  0.00    +0.000 A 
ATOM     19  C   UNL     1       2.041   6.775  20.234  0.00  0.00    +0.000 A 
ATOM     20  N   UNL     1       2.723   5.884  19.469  0.00  0.00    +0.000 NA
ATOM     21  H   UNL     1       3.947   4.514  17.951  0.00  0.00    +0.000 HD
BRANCH  12  23
ATOM     22  C   UNL     1       6.184   5.271  14.845  0.00  0.00    +0.000 C 
ATOM     23  C   UNL     1       5.991   4.803  16.299  0.00  0.00    +0.000 C 
ATOM     24  C   UNL     1       5.169   3.507  16.307  0.00  0.00    +0.000 C 
ATOM     25  C   UNL     1       7.376   4.557  16.915  0.00  0.00    +0.000 C 
ENDBRANCH  12  23
ENDBRANCH   1  18
BRANCH   7  26
ATOM     26  C   UNL     1      -2.981  13.783  20.959  0.00  0.00    +0.000 C 
BRANCH  26  27
ATOM     27  C   UNL     1      -4.296  13.795  21.703  0.00  0.00    +0.000 A 
ATOM     28  C   UNL     1      -4.545  14.778  22.671  0.00  0.00    +0.000 A 
ATOM     29  C   UNL     1      -5.698  14.726  23.454  0.00  0.00    +0.000 A 
ATOM     30  C   UNL     1      -6.615  13.692  23.273  0.00  0.00    +0.000 A 
ATOM     31  C   UNL     1      -6.390  12.725  22.296  0.00  0.00    +0.000 A 
ATOM     32  C   UNL     1      -5.238  12.773  21.513  0.00  0.00    +0.000 A 
ENDBRANCH  26  27
ENDBRANCH   7  26
TORSDOF 4
ENDMDL
MODEL 9
REMARK VINA RESULT:      -8.5      1.801     11.131
REMARK  Name = 
REMARK  7 active torsions:
REMARK  status: ('A' for Active; 'I' for Inactive)
REMARK    1  A    between atoms: C_1  and  C_2
REMARK    2  A    between atoms: C_2  and  C_3
REMARK    3  A    between atoms: C_2  and  C_4
REMARK    4  A    between atoms: C_2  and  C_5
REMARK    5  A    between atoms: C_11  and  C_12
REMARK    6  A    between atoms: N_18  and  C_19
REMARK    7  A    between atoms: C_19  and  C_20
REMARK                            x       y       z     vdW  Elec       q    Type
REMARK                         _______ _______ _______ _____ _____    ______ ____
ROOT
ATOM      1  C   UNL     1       2.441   7.021  18.735  0.00  0.00    +0.000 A 
ATOM      2  C   UNL     1       1.996   5.734  19.090  0.00  0.00    +0.000 A 
ATOM      3  C   UNL     1       2.635   4.577  18.620  0.00  0.00    +0.000 A 
ATOM      4  C   UNL     1       3.766   4.670  17.815  0.00  0.00    +0.000 A 
ATOM      5  N   UNL     1       4.408   3.495  17.407  0.00  0.00    +0.000 NA
ATOM      6  C   UNL     1       5.493   3.621  16.718  0.00  0.00    +0.000 A 
ATOM      7  N   UNL     1       6.067   4.817  16.358  0.00  0.00    +0.000 N 
ATOM      8  C   UNL     1       5.475   6.025  16.686  0.00  0.00    +0.000 A 
ATOM      9  O   UNL     1       5.934   7.129  16.390  0.00  0.00    +0.000 OA
ATOM     10  C   UNL     1       4.228   5.936  17.468  0.00  0.00    +0.000 A 
ATOM     11  C   UNL     1       3.564   7.095  17.889  0.00  0.00    +0.000 A 
ENDROOT
BRANCH   1  18
ATOM     12  C   UNL     1      -1.538  11.869  20.178  0.00  0.00    +0.000 C 
ATOM     13  O   UNL     1      -1.990  11.355  19.153  0.00  0.00    +0.000 OA
ATOM     14  N   UNL     1      -0.346  11.487  20.759  0.00  0.00    +0.000 N 
ATOM     15  C   UNL     1       0.416  10.450  20.221  0.00  0.00    +0.000 A 
ATOM     16  C   UNL     1       0.719  10.401  18.870  0.00  0.00    +0.000 A 
ATOM     17  C   UNL     1       1.423   9.303  18.383  0.00  0.00    +0.000 A 
ATOM     18  C   UNL     1       1.773   8.245  19.232  0.00  0.00    +0.000 A 
ATOM     19  C   UNL     1       1.438   8.429  20.579  0.00  0.00    +0.000 A 
ATOM     20  N   UNL     1       0.822   9.522  21.100  0.00  0.00    +0.000 NA
ATOM     21  H   UNL     1      -0.285  11.524  21.766  0.00  0.00    +0.000 HD
BRANCH  12  23
ATOM     22  C   UNL     1      -3.728  13.050  20.399  0.00  0.00    +0.000 C 
ATOM     23  C   UNL     1      -2.262  13.034  20.870  0.00  0.00    +0.000 C 
ATOM     24  C   UNL     1      -1.580  14.340  20.441  0.00  0.00    +0.000 C 
ATOM     25  C   UNL     1      -2.247  12.906  22.400  0.00  0.00    +0.000 C 
ENDBRANCH  12  23
ENDBRANCH   1  18
BRANCH   7  26
ATOM     26  C   UNL     1       7.286   4.822  15.565  0.00  0.00    +0.000 C 
BRANCH  26  27
ATOM     27  C   UNL     1       6.980   4.579  14.105  0.00  0.00    +0.000 A 
ATOM     28  C   UNL     1       5.972   3.673  13.742  0.00  0.00    +0.000 A 
ATOM     29  C   UNL     1       5.764   3.343  12.404  0.00  0.00    +0.000 A 
ATOM     30  C   UNL     1       6.560   3.920  11.414  0.00  0.00    +0.000 A 
ATOM     31  C   UNL     1       7.546   4.840  11.762  0.00  0.00    +0.000 A 
ATOM     32  C   UNL     1       7.758   5.170  13.099  0.00  0.00    +0.000 A 
ENDBRANCH  26  27
ENDBRANCH   7  26
TORSDOF 4
ENDMDL
