MODEL 1
REMARK VINA RESULT:      -8.0      0.000      0.000
REMARK  Name = 
REMARK  6 active torsions:
REMARK  status: ('A' for Active; 'I' for Inactive)
REMARK    1  A    between atoms: S_2  and  N_4
REMARK    2  A    between atoms: S_2  and  C_15
REMARK    3  A    between atoms: N_4  and  C_5
REMARK    4  A    between atoms: C_10  and  O_11
REMARK    5  A    between atoms: O_11  and  C_12
REMARK    6  A    between atoms: C_20  and  C_21
REMARK                            x       y       z     vdW  Elec       q    Type
REMARK                         _______ _______ _______ _____ _____    ______ ____
ROOT
ATOM      1  O   UNL     1       2.375   3.427  16.363  0.00  0.00    +0.000 OA
ATOM      2  S   UNL     1       2.742   3.160  17.738  0.00  0.00    +0.000 S 
ATOM      3  O   UNL     1       2.107   2.081  18.454  0.00  0.00    +0.000 OA
ENDROOT
BRANCH   2   4
ATOM      4  C   UNL     1       2.485   4.644  18.695  0.00  0.00    +0.000 A 
ATOM      5  C   UNL     1       2.428   5.855  17.980  0.00  0.00    +0.000 A 
ATOM      6  C   UNL     1       2.207   7.064  18.639  0.00  0.00    +0.000 A 
ATOM      7  C   UNL     1       2.046   7.078  20.017  0.00  0.00    +0.000 A 
ATOM      8  C   UNL     1       2.087   5.882  20.732  0.00  0.00    +0.000 A 
ATOM      9  C   UNL     1       2.298   4.637  20.090  0.00  0.00    +0.000 A 
BRANCH   9  10
ATOM     10  C   UNL     1       2.296   3.424  20.989  0.00  0.00    +0.000 C 
ATOM     11  F   UNL     1       3.306   2.535  20.836  0.00  0.00    +0.000 F 
ATOM     12  F   UNL     1       2.355   3.792  22.304  0.00  0.00    +0.000 F 
ATOM     13  F   UNL     1       1.143   2.708  20.870  0.00  0.00    +0.000 F 
ENDBRANCH   9  10
ENDBRANCH   2   4
BRANCH   2  14
ATOM     14  N   UNL     1       4.401   2.914  17.783  0.00  0.00    +0.000 N 
ATOM     15  H   UNL     1       4.733   2.019  17.417  0.00  0.00    +0.000 HD
BRANCH  14  16
ATOM     16  C   UNL     1       5.289   4.025  17.799  0.00  0.00    +0.000 A 
ATOM     17  C   UNL     1       5.770   4.423  19.058  0.00  0.00    +0.000 A 
ATOM     18  C   UNL     1       6.629   5.514  19.183  0.00  0.00    +0.000 A 
ATOM     19  C   UNL     1       7.014   6.227  18.054  0.00  0.00    +0.000 A 
ATOM     20  C   UNL     1       6.547   5.833  16.801  0.00  0.00    +0.000 A 
ATOM     21  C   UNL     1       5.702   4.723  16.653  0.00  0.00    +0.000 A 
BRANCH  21  22
ATOM     22  O   UNL     1       5.380   4.499  15.345  0.00  0.00    +0.000 OA
BRANCH  22  23
ATOM     23  C   UNL     1       6.359   3.992  14.463  0.00  0.00    +0.000 C 
ATOM     24  F   UNL     1       5.698   3.415  13.425  0.00  0.00    +0.000 F 
ATOM     25  F   UNL     1       7.087   5.006  13.929  0.00  0.00    +0.000 F 
ENDBRANCH  22  23
ENDBRANCH  21  22
ENDBRANCH  14  16
ENDBRANCH   2  14
TORSDOF 6
ENDMDL
MODEL 2
REMARK VINA RESULT:      -7.8      2.491      3.717
REMARK  Name = 
REMARK  6 active torsions:
REMARK  status: ('A' for Active; 'I' for Inactive)
REMARK    1  A    between atoms: S_2  and  N_4
REMARK    2  A    between atoms: S_2  and  C_15
REMARK    3  A    between atoms: N_4  and  C_5
REMARK    4  A    between atoms: C_10  and  O_11
REMARK    5  A    between atoms: O_11  and  C_12
REMARK    6  A    between atoms: C_20  and  C_21
REMARK                            x       y       z     vdW  Elec       q    Type
REMARK                         _______ _______ _______ _____ _____    ______ ____
ROOT
ATOM      1  O   UNL     1       4.911   5.331  19.629  0.00  0.00    +0.000 OA
ATOM      2  S   UNL     1       4.297   4.936  18.378  0.00  0.00    +0.000 S 
ATOM      3  O   UNL     1       3.887   5.942  17.429  0.00  0.00    +0.000 OA
ENDROOT
BRANCH   2   4
ATOM      4  C   UNL     1       2.859   3.942  18.738  0.00  0.00    +0.000 A 
ATOM      5  C   UNL     1       2.784   2.687  18.106  0.00  0.00    +0.000 A 
ATOM      6  C   UNL     1       1.710   1.830  18.343  0.00  0.00    +0.000 A 
ATOM      7  C   UNL     1       0.700   2.217  19.211  0.00  0.00    +0.000 A 
ATOM      8  C   UNL     1       0.773   3.452  19.853  0.00  0.00    +0.000 A 
ATOM      9  C   UNL     1       1.856   4.339  19.641  0.00  0.00    +0.000 A 
BRANCH   9  10
ATOM     10  C   UNL     1       1.812   5.632  20.422  0.00  0.00    +0.000 C 
ATOM     11  F   UNL     1       0.614   6.017  20.922  0.00  0.00    +0.000 F 
ATOM     12  F   UNL     1       2.638   5.571  21.509  0.00  0.00    +0.000 F 
ATOM     13  F   UNL     1       2.268   6.683  19.684  0.00  0.00    +0.000 F 
ENDBRANCH   9  10
ENDBRANCH   2   4
BRANCH   2  14
ATOM     14  N   UNL     1       5.351   3.884  17.605  0.00  0.00    +0.000 N 
ATOM     15  H   UNL     1       5.244   2.893  17.834  0.00  0.00    +0.000 HD
BRANCH  14  16
ATOM     16  C   UNL     1       5.940   4.246  16.363  0.00  0.00    +0.000 A 
ATOM     17  C   UNL     1       5.372   3.675  15.211  0.00  0.00    +0.000 A 
ATOM     18  C   UNL     1       5.890   3.951  13.946  0.00  0.00    +0.000 A 
ATOM     19  C   UNL     1       6.987   4.794  13.815  0.00  0.00    +0.000 A 
ATOM     20  C   UNL     1       7.551   5.370  14.953  0.00  0.00    +0.000 A 
ATOM     21  C   UNL     1       7.028   5.124  16.231  0.00  0.00    +0.000 A 
BRANCH  21  22
ATOM     22  O   UNL     1       7.713   5.799  17.199  0.00  0.00    +0.000 OA
BRANCH  22  23
ATOM     23  C   UNL     1       7.284   7.087  17.588  0.00  0.00    +0.000 C 
ATOM     24  F   UNL     1       8.259   7.959  17.221  0.00  0.00    +0.000 F 
ATOM     25  F   UNL     1       6.174   7.448  16.893  0.00  0.00    +0.000 F 
ENDBRANCH  22  23
ENDBRANCH  21  22
ENDBRANCH  14  16
ENDBRANCH   2  14
TORSDOF 6
ENDMDL
MODEL 3
REMARK VINA RESULT:      -7.8      2.626      3.787
REMARK  Name = 
REMARK  6 active torsions:
REMARK  status: ('A' for Active; 'I' for Inactive)
REMARK    1  A    between atoms: S_2  and  N_4
REMARK    2  A    between atoms: S_2  and  C_15
REMARK    3  A    between atoms: N_4  and  C_5
REMARK    4  A    between atoms: C_10  and  O_11
REMARK    5  A    between atoms: O_11  and  C_12
REMARK    6  A    between atoms: C_20  and  C_21
REMARK                            x       y       z     vdW  Elec       q    Type
REMARK                         _______ _______ _______ _____ _____    ______ ____
ROOT
ATOM      1  O   UNL     1       5.214   4.997  19.472  0.00  0.00    +0.000 OA
ATOM      2  S   UNL     1       4.439   4.763  18.271  0.00  0.00    +0.000 S 
ATOM      3  O   UNL     1       4.058   5.875  17.434  0.00  0.00    +0.000 OA
ENDROOT
BRANCH   2   4
ATOM      4  C   UNL     1       2.939   3.906  18.718  0.00  0.00    +0.000 A 
ATOM      5  C   UNL     1       2.810   2.581  18.265  0.00  0.00    +0.000 A 
ATOM      6  C   UNL     1       1.684   1.823  18.584  0.00  0.00    +0.000 A 
ATOM      7  C   UNL     1       0.674   2.382  19.354  0.00  0.00    +0.000 A 
ATOM      8  C   UNL     1       0.800   3.690  19.819  0.00  0.00    +0.000 A 
ATOM      9  C   UNL     1       1.936   4.480  19.522  0.00  0.00    +0.000 A 
BRANCH   9  10
ATOM     10  C   UNL     1       1.945   5.870  20.111  0.00  0.00    +0.000 C 
ATOM     11  F   UNL     1       3.026   6.230  20.842  0.00  0.00    +0.000 F 
ATOM     12  F   UNL     1       1.862   6.816  19.127  0.00  0.00    +0.000 F 
ATOM     13  F   UNL     1       0.861   6.089  20.907  0.00  0.00    +0.000 F 
ENDBRANCH   9  10
ENDBRANCH   2   4
BRANCH   2  14
ATOM     14  N   UNL     1       5.285   3.663  17.327  0.00  0.00    +0.000 N 
ATOM     15  H   UNL     1       5.016   2.682  17.432  0.00  0.00    +0.000 HD
BRANCH  14  16
ATOM     16  C   UNL     1       5.903   4.084  16.118  0.00  0.00    +0.000 A 
ATOM     17  C   UNL     1       5.288   3.669  14.924  0.00  0.00    +0.000 A 
ATOM     18  C   UNL     1       5.829   4.012  13.685  0.00  0.00    +0.000 A 
ATOM     19  C   UNL     1       6.994   4.767  13.621  0.00  0.00    +0.000 A 
ATOM     20  C   UNL     1       7.604   5.189  14.802  0.00  0.00    +0.000 A 
ATOM     21  C   UNL     1       7.062   4.875  16.056  0.00  0.00    +0.000 A 
BRANCH  21  22
ATOM     22  O   UNL     1       7.801   5.400  17.076  0.00  0.00    +0.000 OA
BRANCH  22  23
ATOM     23  C   UNL     1       7.456   6.659  17.612  0.00  0.00    +0.000 C 
ATOM     24  F   UNL     1       7.977   6.714  18.867  0.00  0.00    +0.000 F 
ATOM     25  F   UNL     1       8.057   7.654  16.911  0.00  0.00    +0.000 F 
ENDBRANCH  22  23
ENDBRANCH  21  22
ENDBRANCH  14  16
ENDBRANCH   2  14
TORSDOF 6
ENDMDL
MODEL 4
REMARK VINA RESULT:      -7.7      0.674      1.030
REMARK  Name = 
REMARK  6 active torsions:
REMARK  status: ('A' for Active; 'I' for Inactive)
REMARK    1  A    between atoms: S_2  and  N_4
REMARK    2  A    between atoms: S_2  and  C_15
REMARK    3  A    between atoms: N_4  and  C_5
REMARK    4  A    between atoms: C_10  and  O_11
REMARK    5  A    between atoms: O_11  and  C_12
REMARK    6  A    between atoms: C_20  and  C_21
REMARK                            x       y       z     vdW  Elec       q    Type
REMARK                         _______ _______ _______ _____ _____    ______ ____
ROOT
ATOM      1  O   UNL     1       2.965   3.664  16.330  0.00  0.00    +0.000 OA
ATOM      2  S   UNL     1       3.006   3.289  17.728  0.00  0.00    +0.000 S 
ATOM      3  O   UNL     1       2.175   2.211  18.207  0.00  0.00    +0.000 OA
ENDROOT
BRANCH   2   4
ATOM      4  C   UNL     1       2.621   4.725  18.715  0.00  0.00    +0.000 A 
ATOM      5  C   UNL     1       2.581   5.961  18.044  0.00  0.00    +0.000 A 
ATOM      6  C   UNL     1       2.266   7.135  18.727  0.00  0.00    +0.000 A 
ATOM      7  C   UNL     1       1.990   7.088  20.086  0.00  0.00    +0.000 A 
ATOM      8  C   UNL     1       2.014   5.866  20.756  0.00  0.00    +0.000 A 
ATOM      9  C   UNL     1       2.319   4.656  20.088  0.00  0.00    +0.000 A 
BRANCH   9  10
ATOM     10  C   UNL     1       2.285   3.408  20.937  0.00  0.00    +0.000 C 
ATOM     11  F   UNL     1       1.319   2.498  20.669  0.00  0.00    +0.000 F 
ATOM     12  F   UNL     1       3.456   2.712  20.826  0.00  0.00    +0.000 F 
ATOM     13  F   UNL     1       2.169   3.701  22.263  0.00  0.00    +0.000 F 
ENDBRANCH   9  10
ENDBRANCH   2   4
BRANCH   2  14
ATOM     14  N   UNL     1       4.600   2.932  18.112  0.00  0.00    +0.000 N 
ATOM     15  H   UNL     1       4.883   1.956  17.994  0.00  0.00    +0.000 HD
BRANCH  14  16
ATOM     16  C   UNL     1       5.592   3.949  18.065  0.00  0.00    +0.000 A 
ATOM     17  C   UNL     1       5.837   4.640  19.264  0.00  0.00    +0.000 A 
ATOM     18  C   UNL     1       6.777   5.669  19.317  0.00  0.00    +0.000 A 
ATOM     19  C   UNL     1       7.479   6.027  18.173  0.00  0.00    +0.000 A 
ATOM     20  C   UNL     1       7.246   5.341  16.981  0.00  0.00    +0.000 A 
ATOM     21  C   UNL     1       6.324   4.287  16.915  0.00  0.00    +0.000 A 
BRANCH  21  22
ATOM     22  O   UNL     1       6.265   3.741  15.665  0.00  0.00    +0.000 OA
BRANCH  22  23
ATOM     23  C   UNL     1       5.762   4.507  14.591  0.00  0.00    +0.000 C 
ATOM     24  F   UNL     1       5.109   5.569  15.131  0.00  0.00    +0.000 F 
ATOM     25  F   UNL     1       6.783   5.024  13.859  0.00  0.00    +0.000 F 
ENDBRANCH  22  23
ENDBRANCH  21  22
ENDBRANCH  14  16
ENDBRANCH   2  14
TORSDOF 6
ENDMDL
MODEL 5
REMARK VINA RESULT:      -7.7      2.627      5.801
REMARK  Name = 
REMARK  6 active torsions:
REMARK  status: ('A' for Active; 'I' for Inactive)
REMARK    1  A    between atoms: S_2  and  N_4
REMARK    2  A    between atoms: S_2  and  C_15
REMARK    3  A    between atoms: N_4  and  C_5
REMARK    4  A    between atoms: C_10  and  O_11
REMARK    5  A    between atoms: O_11  and  C_12
REMARK    6  A    between atoms: C_20  and  C_21
REMARK                            x       y       z     vdW  Elec       q    Type
REMARK                         _______ _______ _______ _____ _____    ______ ____
ROOT
ATOM      1  O   UNL     1       3.752   7.452  17.720  0.00  0.00    +0.000 OA
ATOM      2  S   UNL     1       4.072   6.065  17.986  0.00  0.00    +0.000 S 
ATOM      3  O   UNL     1       4.630   5.688  19.262  0.00  0.00    +0.000 OA
ENDROOT
BRANCH   2   4
ATOM      4  C   UNL     1       5.204   5.490  16.731  0.00  0.00    +0.000 A 
ATOM      5  C   UNL     1       4.715   4.520  15.837  0.00  0.00    +0.000 A 
ATOM      6  C   UNL     1       5.519   4.027  14.809  0.00  0.00    +0.000 A 
ATOM      7  C   UNL     1       6.817   4.496  14.665  0.00  0.00    +0.000 A 
ATOM      8  C   UNL     1       7.304   5.467  15.538  0.00  0.00    +0.000 A 
ATOM      9  C   UNL     1       6.509   5.995  16.584  0.00  0.00    +0.000 A 
BRANCH   9  10
ATOM     10  C   UNL     1       7.162   7.057  17.437  0.00  0.00    +0.000 C 
ATOM     11  F   UNL     1       6.426   8.152  17.739  0.00  0.00    +0.000 F 
ATOM     12  F   UNL     1       7.536   6.546  18.648  0.00  0.00    +0.000 F 
ATOM     13  F   UNL     1       8.314   7.519  16.874  0.00  0.00    +0.000 F 
ENDBRANCH   9  10
ENDBRANCH   2   4
BRANCH   2  14
ATOM     14  N   UNL     1       2.678   5.164  17.737  0.00  0.00    +0.000 N 
ATOM     15  H   UNL     1       2.475   4.910  16.767  0.00  0.00    +0.000 HD
BRANCH  14  16
ATOM     16  C   UNL     1       2.144   4.367  18.786  0.00  0.00    +0.000 A 
ATOM     17  C   UNL     1       1.616   5.058  19.890  0.00  0.00    +0.000 A 
ATOM     18  C   UNL     1       1.088   4.368  20.980  0.00  0.00    +0.000 A 
ATOM     19  C   UNL     1       1.086   2.978  20.986  0.00  0.00    +0.000 A 
ATOM     20  C   UNL     1       1.602   2.285  19.891  0.00  0.00    +0.000 A 
ATOM     21  C   UNL     1       2.115   2.963  18.775  0.00  0.00    +0.000 A 
BRANCH  21  22
ATOM     22  O   UNL     1       2.547   2.100  17.810  0.00  0.00    +0.000 OA
BRANCH  22  23
ATOM     23  C   UNL     1       3.881   1.637  17.834  0.00  0.00    +0.000 C 
ATOM     24  F   UNL     1       4.613   2.569  18.499  0.00  0.00    +0.000 F 
ATOM     25  F   UNL     1       3.973   0.495  18.563  0.00  0.00    +0.000 F 
ENDBRANCH  22  23
ENDBRANCH  21  22
ENDBRANCH  14  16
ENDBRANCH   2  14
TORSDOF 6
ENDMDL
MODEL 6
REMARK VINA RESULT:      -7.7      2.160      3.038
REMARK  Name = 
REMARK  6 active torsions:
REMARK  status: ('A' for Active; 'I' for Inactive)
REMARK    1  A    between atoms: S_2  and  N_4
REMARK    2  A    between atoms: S_2  and  C_15
REMARK    3  A    between atoms: N_4  and  C_5
REMARK    4  A    between atoms: C_10  and  O_11
REMARK    5  A    between atoms: O_11  and  C_12
REMARK    6  A    between atoms: C_20  and  C_21
REMARK                            x       y       z     vdW  Elec       q    Type
REMARK                         _______ _______ _______ _____ _____    ______ ____
ROOT
ATOM      1  O   UNL     1       3.549   3.088  17.481  0.00  0.00    +0.000 OA
ATOM      2  S   UNL     1       4.266   4.167  18.128  0.00  0.00    +0.000 S 
ATOM      3  O   UNL     1       5.488   3.889  18.844  0.00  0.00    +0.000 OA
ENDROOT
BRANCH   2   4
ATOM      4  C   UNL     1       3.164   4.980  19.271  0.00  0.00    +0.000 A 
ATOM      5  C   UNL     1       2.955   6.357  19.076  0.00  0.00    +0.000 A 
ATOM      6  C   UNL     1       2.092   7.074  19.905  0.00  0.00    +0.000 A 
ATOM      7  C   UNL     1       1.431   6.423  20.937  0.00  0.00    +0.000 A 
ATOM      8  C   UNL     1       1.621   5.056  21.129  0.00  0.00    +0.000 A 
ATOM      9  C   UNL     1       2.482   4.299  20.298  0.00  0.00    +0.000 A 
BRANCH   9  10
ATOM     10  C   UNL     1       2.571   2.825  20.610  0.00  0.00    +0.000 C 
ATOM     11  F   UNL     1       3.805   2.303  20.805  0.00  0.00    +0.000 F 
ATOM     12  F   UNL     1       1.885   2.527  21.754  0.00  0.00    +0.000 F 
ATOM     13  F   UNL     1       1.991   2.066  19.638  0.00  0.00    +0.000 F 
ENDBRANCH   9  10
ENDBRANCH   2   4
BRANCH   2  14
ATOM     14  N   UNL     1       4.594   5.330  16.963  0.00  0.00    +0.000 N 
ATOM     15  H   UNL     1       4.478   6.303  17.255  0.00  0.00    +0.000 HD
BRANCH  14  16
ATOM     16  C   UNL     1       5.467   5.033  15.882  0.00  0.00    +0.000 A 
ATOM     17  C   UNL     1       4.865   4.556  14.705  0.00  0.00    +0.000 A 
ATOM     18  C   UNL     1       5.637   4.217  13.593  0.00  0.00    +0.000 A 
ATOM     19  C   UNL     1       7.020   4.341  13.645  0.00  0.00    +0.000 A 
ATOM     20  C   UNL     1       7.624   4.820  14.808  0.00  0.00    +0.000 A 
ATOM     21  C   UNL     1       6.862   5.190  15.926  0.00  0.00    +0.000 A 
BRANCH  21  22
ATOM     22  O   UNL     1       7.645   5.650  16.945  0.00  0.00    +0.000 OA
BRANCH  22  23
ATOM     23  C   UNL     1       7.366   6.906  17.527  0.00  0.00    +0.000 C 
ATOM     24  F   UNL     1       7.834   6.866  18.803  0.00  0.00    +0.000 F 
ATOM     25  F   UNL     1       8.065   7.886  16.900  0.00  0.00    +0.000 F 
ENDBRANCH  22  23
ENDBRANCH  21  22
ENDBRANCH  14  16
ENDBRANCH   2  14
TORSDOF 6
ENDMDL
MODEL 7
REMARK VINA RESULT:      -7.6      2.314      2.926
REMARK  Name = 
REMARK  6 active torsions:
REMARK  status: ('A' for Active; 'I' for Inactive)
REMARK    1  A    between atoms: S_2  and  N_4
REMARK    2  A    between atoms: S_2  and  C_15
REMARK    3  A    between atoms: N_4  and  C_5
REMARK    4  A    between atoms: C_10  and  O_11
REMARK    5  A    between atoms: O_11  and  C_12
REMARK    6  A    between atoms: C_20  and  C_21
REMARK                            x       y       z     vdW  Elec       q    Type
REMARK                         _______ _______ _______ _____ _____    ______ ____
ROOT
ATOM      1  O   UNL     1       4.023   2.321  18.032  0.00  0.00    +0.000 OA
ATOM      2  S   UNL     1       4.557   2.976  19.208  0.00  0.00    +0.000 S 
ATOM      3  O   UNL     1       4.845   2.204  20.392  0.00  0.00    +0.000 OA
ENDROOT
BRANCH   2   4
ATOM      4  C   UNL     1       3.438   4.279  19.693  0.00  0.00    +0.000 A 
ATOM      5  C   UNL     1       3.757   5.579  19.262  0.00  0.00    +0.000 A 
ATOM      6  C   UNL     1       2.930   6.659  19.572  0.00  0.00    +0.000 A 
ATOM      7  C   UNL     1       1.778   6.451  20.317  0.00  0.00    +0.000 A 
ATOM      8  C   UNL     1       1.447   5.164  20.737  0.00  0.00    +0.000 A 
ATOM      9  C   UNL     1       2.260   4.047  20.429  0.00  0.00    +0.000 A 
BRANCH   9  10
ATOM     10  C   UNL     1       1.765   2.711  20.930  0.00  0.00    +0.000 C 
ATOM     11  F   UNL     1       1.725   1.689  20.044  0.00  0.00    +0.000 F 
ATOM     12  F   UNL     1       2.550   2.254  21.952  0.00  0.00    +0.000 F 
ATOM     13  F   UNL     1       0.511   2.803  21.457  0.00  0.00    +0.000 F 
ENDBRANCH   9  10
ENDBRANCH   2   4
BRANCH   2  14
ATOM     14  N   UNL     1       5.959   3.778  18.751  0.00  0.00    +0.000 N 
ATOM     15  H   UNL     1       6.813   3.504  19.242  0.00  0.00    +0.000 HD
BRANCH  14  16
ATOM     16  C   UNL     1       6.062   4.358  17.457  0.00  0.00    +0.000 A 
ATOM     17  C   UNL     1       5.404   3.683  16.415  0.00  0.00    +0.000 A 
ATOM     18  C   UNL     1       5.461   4.159  15.105  0.00  0.00    +0.000 A 
ATOM     19  C   UNL     1       6.183   5.312  14.818  0.00  0.00    +0.000 A 
ATOM     20  C   UNL     1       6.832   5.991  15.849  0.00  0.00    +0.000 A 
ATOM     21  C   UNL     1       6.765   5.541  17.175  0.00  0.00    +0.000 A 
BRANCH  21  22
ATOM     22  O   UNL     1       7.450   6.359  18.026  0.00  0.00    +0.000 OA
BRANCH  22  23
ATOM     23  C   UNL     1       7.804   7.661  17.609  0.00  0.00    +0.000 C 
ATOM     24  F   UNL     1       6.666   8.404  17.615  0.00  0.00    +0.000 F 
ATOM     25  F   UNL     1       8.637   8.238  18.512  0.00  0.00    +0.000 F 
ENDBRANCH  22  23
ENDBRANCH  21  22
ENDBRANCH  14  16
ENDBRANCH   2  14
TORSDOF 6
ENDMDL
MODEL 8
REMARK VINA RESULT:      -7.6      0.981      1.318
REMARK  Name = 
REMARK  6 active torsions:
REMARK  status: ('A' for Active; 'I' for Inactive)
REMARK    1  A    between atoms: S_2  and  N_4
REMARK    2  A    between atoms: S_2  and  C_15
REMARK    3  A    between atoms: N_4  and  C_5
REMARK    4  A    between atoms: C_10  and  O_11
REMARK    5  A    between atoms: O_11  and  C_12
REMARK    6  A    between atoms: C_20  and  C_21
REMARK                            x       y       z     vdW  Elec       q    Type
REMARK                         _______ _______ _______ _____ _____    ______ ____
ROOT
ATOM      1  O   UNL     1       2.107   3.131  16.947  0.00  0.00    +0.000 OA
ATOM      2  S   UNL     1       3.206   3.581  17.776  0.00  0.00    +0.000 S 
ATOM      3  O   UNL     1       3.967   2.624  18.541  0.00  0.00    +0.000 OA
ENDROOT
BRANCH   2   4
ATOM      4  C   UNL     1       2.591   4.800  18.925  0.00  0.00    +0.000 A 
ATOM      5  C   UNL     1       2.711   6.148  18.541  0.00  0.00    +0.000 A 
ATOM      6  C   UNL     1       2.238   7.170  19.364  0.00  0.00    +0.000 A 
ATOM      7  C   UNL     1       1.644   6.857  20.578  0.00  0.00    +0.000 A 
ATOM      8  C   UNL     1       1.508   5.524  20.960  0.00  0.00    +0.000 A 
ATOM      9  C   UNL     1       1.968   4.464  20.142  0.00  0.00    +0.000 A 
BRANCH   9  10
ATOM     10  C   UNL     1       1.733   3.070  20.675  0.00  0.00    +0.000 C 
ATOM     11  F   UNL     1       0.951   2.947  21.773  0.00  0.00    +0.000 F 
ATOM     12  F   UNL     1       1.132   2.284  19.732  0.00  0.00    +0.000 F 
ATOM     13  F   UNL     1       2.904   2.439  20.972  0.00  0.00    +0.000 F 
ENDBRANCH   9  10
ENDBRANCH   2   4
BRANCH   2  14
ATOM     14  N   UNL     1       4.268   4.431  16.793  0.00  0.00    +0.000 N 
ATOM     15  H   UNL     1       3.867   4.841  15.947  0.00  0.00    +0.000 HD
BRANCH  14  16
ATOM     16  C   UNL     1       5.451   4.998  17.341  0.00  0.00    +0.000 A 
ATOM     17  C   UNL     1       5.614   4.882  18.732  0.00  0.00    +0.000 A 
ATOM     18  C   UNL     1       6.730   5.424  19.370  0.00  0.00    +0.000 A 
ATOM     19  C   UNL     1       7.695   6.095  18.627  0.00  0.00    +0.000 A 
ATOM     20  C   UNL     1       7.543   6.207  17.245  0.00  0.00    +0.000 A 
ATOM     21  C   UNL     1       6.440   5.647  16.584  0.00  0.00    +0.000 A 
BRANCH  21  22
ATOM     22  O   UNL     1       6.497   5.853  15.237  0.00  0.00    +0.000 OA
BRANCH  22  23
ATOM     23  C   UNL     1       6.878   4.794  14.384  0.00  0.00    +0.000 C 
ATOM     24  F   UNL     1       5.734   4.240  13.902  0.00  0.00    +0.000 F 
ATOM     25  F   UNL     1       7.550   5.272  13.305  0.00  0.00    +0.000 F 
ENDBRANCH  22  23
ENDBRANCH  21  22
ENDBRANCH  14  16
ENDBRANCH   2  14
TORSDOF 6
ENDMDL
MODEL 9
REMARK VINA RESULT:      -7.6      1.975      3.020
REMARK  Name = 
REMARK  6 active torsions:
REMARK  status: ('A' for Active; 'I' for Inactive)
REMARK    1  A    between atoms: S_2  and  N_4
REMARK    2  A    between atoms: S_2  and  C_15
REMARK    3  A    between atoms: N_4  and  C_5
REMARK    4  A    between atoms: C_10  and  O_11
REMARK    5  A    between atoms: O_11  and  C_12
REMARK    6  A    between atoms: C_20  and  C_21
REMARK                            x       y       z     vdW  Elec       q    Type
REMARK                         _______ _______ _______ _____ _____    ______ ____
ROOT
ATOM      1  O   UNL     1       2.637   3.504  16.729  0.00  0.00    +0.000 OA
ATOM      2  S   UNL     1       3.626   4.174  17.547  0.00  0.00    +0.000 S 
ATOM      3  O   UNL     1       4.680   3.410  18.170  0.00  0.00    +0.000 OA
ENDROOT
BRANCH   2   4
ATOM      4  C   UNL     1       2.785   5.061  18.847  0.00  0.00    +0.000 A 
ATOM      5  C   UNL     1       2.912   6.462  18.841  0.00  0.00    +0.000 A 
ATOM      6  C   UNL     1       2.272   7.242  19.803  0.00  0.00    +0.000 A 
ATOM      7  C   UNL     1       1.501   6.631  20.782  0.00  0.00    +0.000 A 
ATOM      8  C   UNL     1       1.358   5.245  20.788  0.00  0.00    +0.000 A 
ATOM      9  C   UNL     1       1.986   4.427  19.818  0.00  0.00    +0.000 A 
BRANCH   9  10
ATOM     10  C   UNL     1       1.724   2.945  19.936  0.00  0.00    +0.000 C 
ATOM     11  F   UNL     1       0.999   2.523  20.998  0.00  0.00    +0.000 F 
ATOM     12  F   UNL     1       1.041   2.484  18.845  0.00  0.00    +0.000 F 
ATOM     13  F   UNL     1       2.882   2.227  19.960  0.00  0.00    +0.000 F 
ENDBRANCH   9  10
ENDBRANCH   2   4
BRANCH   2  14
ATOM     14  N   UNL     1       4.332   5.374  16.610  0.00  0.00    +0.000 N 
ATOM     15  H   UNL     1       4.329   6.316  17.010  0.00  0.00    +0.000 HD
BRANCH  14  16
ATOM     16  C   UNL     1       5.315   5.039  15.640  0.00  0.00    +0.000 A 
ATOM     17  C   UNL     1       4.881   4.261  14.553  0.00  0.00    +0.000 A 
ATOM     18  C   UNL     1       5.773   3.862  13.558  0.00  0.00    +0.000 A 
ATOM     19  C   UNL     1       7.112   4.227  13.639  0.00  0.00    +0.000 A 
ATOM     20  C   UNL     1       7.548   5.006  14.711  0.00  0.00    +0.000 A 
ATOM     21  C   UNL     1       6.660   5.437  15.708  0.00  0.00    +0.000 A 
BRANCH  21  22
ATOM     22  O   UNL     1       7.286   6.202  16.650  0.00  0.00    +0.000 OA
BRANCH  22  23
ATOM     23  C   UNL     1       7.592   5.644  17.910  0.00  0.00    +0.000 C 
ATOM     24  F   UNL     1       6.537   5.903  18.727  0.00  0.00    +0.000 F 
ATOM     25  F   UNL     1       7.679   4.292  17.822  0.00  0.00    +0.000 F 
ENDBRANCH  22  23
ENDBRANCH  21  22
ENDBRANCH  14  16
ENDBRANCH   2  14
TORSDOF 6
ENDMDL
