MODEL 1
REMARK VINA RESULT:      -7.6      0.000      0.000
REMARK  Name = 
REMARK  13 active torsions:
REMARK  status: ('A' for Active; 'I' for Inactive)
REMARK    1  A    between atoms: C_1  and  C_2
REMARK    2  A    between atoms: C_2  and  N_3
REMARK    3  A    between atoms: C_4  and  C_5
REMARK    4  A    between atoms: C_5  and  O_6
REMARK    5  A    between atoms: O_6  and  C_7
REMARK    6  A    between atoms: C_10  and  C_11
REMARK    7  A    between atoms: C_16  and  S_17
REMARK    8  A    between atoms: S_17  and  C_18
REMARK    9  A    between atoms: C_18  and  C_19
REMARK   10  A    between atoms: N_21  and  N_22
REMARK   11  A    between atoms: C_23  and  C_25
REMARK   12  A    between atoms: C_28  and  O_29
REMARK   13  A    between atoms: O_29  and  C_30
REMARK                            x       y       z     vdW  Elec       q    Type
REMARK                         _______ _______ _______ _____ _____    ______ ____
ROOT
ATOM      1  S   UNL     1       3.570   2.153  19.582  0.00  0.00    +0.000 S 
ENDROOT
BRANCH   1   6
ATOM      2  N   UNL     1       4.015   4.198  17.768  0.00  0.00    +0.000 N 
ATOM      3  C   UNL     1       4.945   5.208  17.589  0.00  0.00    +0.000 A 
ATOM      4  N   UNL     1       5.799   5.160  18.597  0.00  0.00    +0.000 NA
ATOM      5  N   UNL     1       5.442   4.125  19.432  0.00  0.00    +0.000 NA
ATOM      6  C   UNL     1       4.377   3.549  18.926  0.00  0.00    +0.000 A 
BRANCH   2   8
ATOM      7  C   UNL     1       1.561   4.369  17.480  0.00  0.00    +0.000 C 
ATOM      8  C   UNL     1       2.891   3.908  16.903  0.00  0.00    +0.000 C 
ENDBRANCH   2   8
BRANCH   3   9
ATOM      9  C   UNL     1       5.055   6.115  16.394  0.00  0.00    +0.000 C 
BRANCH   9  10
ATOM     10  O   UNL     1       6.349   5.954  15.797  0.00  0.00    +0.000 OA
BRANCH  10  11
ATOM     11  C   UNL     1       6.430   5.125  14.701  0.00  0.00    +0.000 A 
ATOM     12  C   UNL     1       5.553   4.087  14.379  0.00  0.00    +0.000 A 
ATOM     13  C   UNL     1       5.730   3.338  13.203  0.00  0.00    +0.000 A 
ATOM     14  C   UNL     1       6.789   3.609  12.330  0.00  0.00    +0.000 A 
ATOM     15  C   UNL     1       6.970   2.832  11.057  0.00  0.00    +0.000 C 
ATOM     16  C   UNL     1       7.682   4.630  12.666  0.00  0.00    +0.000 A 
ATOM     17  C   UNL     1       7.503   5.377  13.839  0.00  0.00    +0.000 A 
ENDBRANCH  10  11
ENDBRANCH   9  10
ENDBRANCH   3   9
ENDBRANCH   1   6
BRANCH   1  18
ATOM     18  C   UNL     1       3.016   2.790  21.201  0.00  0.00    +0.000 C 
BRANCH  18  19
ATOM     19  C   UNL     1       2.076   3.982  21.048  0.00  0.00    +0.000 C 
ATOM     20  O   UNL     1       0.887   3.864  20.755  0.00  0.00    +0.000 OA
ATOM     21  N   UNL     1       2.679   5.230  21.159  0.00  0.00    +0.000 N 
ATOM     22  H   UNL     1       3.592   5.361  21.595  0.00  0.00    +0.000 HD
BRANCH  21  23
ATOM     23  N   UNL     1       1.879   6.384  21.015  0.00  0.00    +0.000 N 
ATOM     24  C   UNL     1       2.152   7.273  19.990  0.00  0.00    +0.000 C 
ATOM     25  O   UNL     1       3.040   7.110  19.156  0.00  0.00    +0.000 OA
ATOM     26  H   UNL     1       1.291   6.623  21.810  0.00  0.00    +0.000 HD
BRANCH  24  27
ATOM     27  C   UNL     1       1.309   8.499  19.914  0.00  0.00    +0.000 A 
ATOM     28  C   UNL     1       1.308   9.224  18.717  0.00  0.00    +0.000 A 
ATOM     29  C   UNL     1       0.519  10.374  18.588  0.00  0.00    +0.000 A 
ATOM     30  C   UNL     1      -0.303  10.792  19.635  0.00  0.00    +0.000 A 
ATOM     31  C   UNL     1      -0.317  10.062  20.826  0.00  0.00    +0.000 A 
ATOM     32  C   UNL     1       0.489   8.918  20.967  0.00  0.00    +0.000 A 
BRANCH  30  33
ATOM     33  O   UNL     1      -1.001  11.946  19.401  0.00  0.00    +0.000 OA
ATOM     34  C   UNL     1      -2.070  11.867  18.467  0.00  0.00    +0.000 C 
ENDBRANCH  30  33
ENDBRANCH  24  27
ENDBRANCH  21  23
ENDBRANCH  18  19
ENDBRANCH   1  18
TORSDOF 10
ENDMDL
MODEL 2
REMARK VINA RESULT:      -7.1      4.748      8.525
REMARK  Name = 
REMARK  13 active torsions:
REMARK  status: ('A' for Active; 'I' for Inactive)
REMARK    1  A    between atoms: C_1  and  C_2
REMARK    2  A    between atoms: C_2  and  N_3
REMARK    3  A    between atoms: C_4  and  C_5
REMARK    4  A    between atoms: C_5  and  O_6
REMARK    5  A    between atoms: O_6  and  C_7
REMARK    6  A    between atoms: C_10  and  C_11
REMARK    7  A    between atoms: C_16  and  S_17
REMARK    8  A    between atoms: S_17  and  C_18
REMARK    9  A    between atoms: C_18  and  C_19
REMARK   10  A    between atoms: N_21  and  N_22
REMARK   11  A    between atoms: C_23  and  C_25
REMARK   12  A    between atoms: C_28  and  O_29
REMARK   13  A    between atoms: O_29  and  C_30
REMARK                            x       y       z     vdW  Elec       q    Type
REMARK                         _______ _______ _______ _____ _____    ______ ____
ROOT
ATOM      1  S   UNL     1       5.067   4.212  18.648  0.00  0.00    +0.000 S 
ENDROOT
BRANCH   1   6
ATOM      2  N   UNL     1       3.049   6.105  18.523  0.00  0.00    +0.000 N 
ATOM      3  C   UNL     1       2.870   7.358  17.962  0.00  0.00    +0.000 A 
ATOM      4  N   UNL     1       4.003   7.708  17.376  0.00  0.00    +0.000 NA
ATOM      5  N   UNL     1       4.921   6.696  17.543  0.00  0.00    +0.000 NA
ATOM      6  C   UNL     1       4.341   5.736  18.224  0.00  0.00    +0.000 A 
BRANCH   2   8
ATOM      7  C   UNL     1       2.251   5.478  20.782  0.00  0.00    +0.000 C 
ATOM      8  C   UNL     1       2.065   5.358  19.278  0.00  0.00    +0.000 C 
ENDBRANCH   2   8
BRANCH   3   9
ATOM      9  C   UNL     1       1.581   8.131  17.903  0.00  0.00    +0.000 C 
BRANCH   9  10
ATOM     10  O   UNL     1       1.598   9.154  18.906  0.00  0.00    +0.000 OA
BRANCH  10  11
ATOM     11  C   UNL     1       0.477   9.948  19.006  0.00  0.00    +0.000 A 
ATOM     12  C   UNL     1      -0.557  10.043  18.072  0.00  0.00    +0.000 A 
ATOM     13  C   UNL     1      -1.669  10.868  18.316  0.00  0.00    +0.000 A 
ATOM     14  C   UNL     1      -1.765  11.616  19.494  0.00  0.00    +0.000 A 
ATOM     15  C   UNL     1      -2.962  12.478  19.775  0.00  0.00    +0.000 C 
ATOM     16  C   UNL     1      -0.717  11.542  20.416  0.00  0.00    +0.000 A 
ATOM     17  C   UNL     1       0.391  10.717  20.171  0.00  0.00    +0.000 A 
ENDBRANCH  10  11
ENDBRANCH   9  10
ENDBRANCH   3   9
ENDBRANCH   1   6
BRANCH   1  18
ATOM     18  C   UNL     1       6.779   4.457  18.062  0.00  0.00    +0.000 C 
BRANCH  18  19
ATOM     19  C   UNL     1       7.483   5.577  18.822  0.00  0.00    +0.000 C 
ATOM     20  O   UNL     1       7.638   5.562  20.043  0.00  0.00    +0.000 OA
ATOM     21  N   UNL     1       7.848   6.676  18.053  0.00  0.00    +0.000 N 
ATOM     22  H   UNL     1       7.921   6.635  17.037  0.00  0.00    +0.000 HD
BRANCH  21  23
ATOM     23  N   UNL     1       8.491   7.761  18.686  0.00  0.00    +0.000 N 
ATOM     24  C   UNL     1       8.355   9.032  18.155  0.00  0.00    +0.000 C 
ATOM     25  O   UNL     1       7.672   9.296  17.168  0.00  0.00    +0.000 OA
ATOM     26  H   UNL     1       9.212   7.522  19.364  0.00  0.00    +0.000 HD
BRANCH  24  27
ATOM     27  C   UNL     1       9.095  10.133  18.834  0.00  0.00    +0.000 A 
ATOM     28  C   UNL     1       9.742  11.082  18.034  0.00  0.00    +0.000 A 
ATOM     29  C   UNL     1      10.438  12.146  18.622  0.00  0.00    +0.000 A 
ATOM     30  C   UNL     1      10.465  12.296  20.009  0.00  0.00    +0.000 A 
ATOM     31  C   UNL     1       9.807  11.360  20.810  0.00  0.00    +0.000 A 
ATOM     32  C   UNL     1       9.125  10.279  20.224  0.00  0.00    +0.000 A 
BRANCH  30  33
ATOM     33  O   UNL     1      11.202  13.354  20.464  0.00  0.00    +0.000 OA
ATOM     34  C   UNL     1      10.477  14.502  20.889  0.00  0.00    +0.000 C 
ENDBRANCH  30  33
ENDBRANCH  24  27
ENDBRANCH  21  23
ENDBRANCH  18  19
ENDBRANCH   1  18
TORSDOF 10
ENDMDL
MODEL 3
REMARK VINA RESULT:      -6.8      4.782      8.800
REMARK  Name = 
REMARK  13 active torsions:
REMARK  status: ('A' for Active; 'I' for Inactive)
REMARK    1  A    between atoms: C_1  and  C_2
REMARK    2  A    between atoms: C_2  and  N_3
REMARK    3  A    between atoms: C_4  and  C_5
REMARK    4  A    between atoms: C_5  and  O_6
REMARK    5  A    between atoms: O_6  and  C_7
REMARK    6  A    between atoms: C_10  and  C_11
REMARK    7  A    between atoms: C_16  and  S_17
REMARK    8  A    between atoms: S_17  and  C_18
REMARK    9  A    between atoms: C_18  and  C_19
REMARK   10  A    between atoms: N_21  and  N_22
REMARK   11  A    between atoms: C_23  and  C_25
REMARK   12  A    between atoms: C_28  and  O_29
REMARK   13  A    between atoms: O_29  and  C_30
REMARK                            x       y       z     vdW  Elec       q    Type
REMARK                         _______ _______ _______ _____ _____    ______ ____
ROOT
ATOM      1  S   UNL     1       5.266   4.096  18.565  0.00  0.00    +0.000 S 
ENDROOT
BRANCH   1   6
ATOM      2  N   UNL     1       3.248   5.789  19.420  0.00  0.00    +0.000 N 
ATOM      3  C   UNL     1       2.728   7.015  19.042  0.00  0.00    +0.000 A 
ATOM      4  N   UNL     1       3.442   7.466  18.025  0.00  0.00    +0.000 NA
ATOM      5  N   UNL     1       4.423   6.546  17.729  0.00  0.00    +0.000 NA
ATOM      6  C   UNL     1       4.296   5.542  18.563  0.00  0.00    +0.000 A 
BRANCH   2   8
ATOM      7  C   UNL     1       1.590   4.088  20.120  0.00  0.00    +0.000 C 
ATOM      8  C   UNL     1       2.775   4.959  20.508  0.00  0.00    +0.000 C 
ENDBRANCH   2   8
BRANCH   3   9
ATOM      9  C   UNL     1       1.486   7.662  19.591  0.00  0.00    +0.000 C 
BRANCH   9  10
ATOM     10  O   UNL     1       1.466   9.044  19.211  0.00  0.00    +0.000 OA
BRANCH  10  11
ATOM     11  C   UNL     1       0.857   9.922  20.080  0.00  0.00    +0.000 A 
ATOM     12  C   UNL     1       0.725  11.302  19.908  0.00  0.00    +0.000 A 
ATOM     13  C   UNL     1       0.043  12.080  20.859  0.00  0.00    +0.000 A 
ATOM     14  C   UNL     1      -0.514  11.495  22.001  0.00  0.00    +0.000 A 
ATOM     15  C   UNL     1      -1.268  12.315  23.009  0.00  0.00    +0.000 C 
ATOM     16  C   UNL     1      -0.358  10.119  22.186  0.00  0.00    +0.000 A 
ATOM     17  C   UNL     1       0.321   9.344  21.235  0.00  0.00    +0.000 A 
ENDBRANCH  10  11
ENDBRANCH   9  10
ENDBRANCH   3   9
ENDBRANCH   1   6
BRANCH   1  18
ATOM     18  C   UNL     1       6.746   4.659  17.656  0.00  0.00    +0.000 C 
BRANCH  18  19
ATOM     19  C   UNL     1       7.519   5.719  18.433  0.00  0.00    +0.000 C 
ATOM     20  O   UNL     1       7.992   5.519  19.551  0.00  0.00    +0.000 OA
ATOM     21  N   UNL     1       7.564   6.975  17.837  0.00  0.00    +0.000 N 
ATOM     22  H   UNL     1       7.369   7.119  16.846  0.00  0.00    +0.000 HD
BRANCH  21  23
ATOM     23  N   UNL     1       8.248   8.016  18.501  0.00  0.00    +0.000 N 
ATOM     24  C   UNL     1       8.185   9.301  17.990  0.00  0.00    +0.000 C 
ATOM     25  O   UNL     1       7.535   9.615  16.996  0.00  0.00    +0.000 OA
ATOM     26  H   UNL     1       8.942   7.729  19.188  0.00  0.00    +0.000 HD
BRANCH  24  27
ATOM     27  C   UNL     1       8.966  10.351  18.703  0.00  0.00    +0.000 A 
ATOM     28  C   UNL     1       9.247  11.540  18.019  0.00  0.00    +0.000 A 
ATOM     29  C   UNL     1       9.963  12.565  18.649  0.00  0.00    +0.000 A 
ATOM     30  C   UNL     1      10.373  12.433  19.976  0.00  0.00    +0.000 A 
ATOM     31  C   UNL     1      10.081  11.255  20.667  0.00  0.00    +0.000 A 
ATOM     32  C   UNL     1       9.380  10.215  20.032  0.00  0.00    +0.000 A 
BRANCH  30  33
ATOM     33  O   UNL     1      11.092  13.488  20.470  0.00  0.00    +0.000 OA
ATOM     34  C   UNL     1      11.536  14.455  19.527  0.00  0.00    +0.000 C 
ENDBRANCH  30  33
ENDBRANCH  24  27
ENDBRANCH  21  23
ENDBRANCH  18  19
ENDBRANCH   1  18
TORSDOF 10
ENDMDL
MODEL 4
REMARK VINA RESULT:      -6.8      1.142      1.379
REMARK  Name = 
REMARK  13 active torsions:
REMARK  status: ('A' for Active; 'I' for Inactive)
REMARK    1  A    between atoms: C_1  and  C_2
REMARK    2  A    between atoms: C_2  and  N_3
REMARK    3  A    between atoms: C_4  and  C_5
REMARK    4  A    between atoms: C_5  and  O_6
REMARK    5  A    between atoms: O_6  and  C_7
REMARK    6  A    between atoms: C_10  and  C_11
REMARK    7  A    between atoms: C_16  and  S_17
REMARK    8  A    between atoms: S_17  and  C_18
REMARK    9  A    between atoms: C_18  and  C_19
REMARK   10  A    between atoms: N_21  and  N_22
REMARK   11  A    between atoms: C_23  and  C_25
REMARK   12  A    between atoms: C_28  and  O_29
REMARK   13  A    between atoms: O_29  and  C_30
REMARK                            x       y       z     vdW  Elec       q    Type
REMARK                         _______ _______ _______ _____ _____    ______ ____
ROOT
ATOM      1  S   UNL     1       4.715   2.430  20.152  0.00  0.00    +0.000 S 
ENDROOT
BRANCH   1   6
ATOM      2  N   UNL     1       4.629   4.133  17.969  0.00  0.00    +0.000 N 
ATOM      3  C   UNL     1       5.064   5.411  17.666  0.00  0.00    +0.000 A 
ATOM      4  N   UNL     1       5.629   5.919  18.749  0.00  0.00    +0.000 NA
ATOM      5  N   UNL     1       5.573   4.983  19.757  0.00  0.00    +0.000 NA
ATOM      6  C   UNL     1       4.980   3.914  19.282  0.00  0.00    +0.000 A 
BRANCH   2   8
ATOM      7  C   UNL     1       2.430   3.436  17.068  0.00  0.00    +0.000 C 
ATOM      8  C   UNL     1       3.937   3.230  17.073  0.00  0.00    +0.000 C 
ENDBRANCH   2   8
BRANCH   3   9
ATOM      9  C   UNL     1       5.030   6.065  16.311  0.00  0.00    +0.000 C 
BRANCH   9  10
ATOM     10  O   UNL     1       6.320   5.946  15.697  0.00  0.00    +0.000 OA
BRANCH  10  11
ATOM     11  C   UNL     1       6.418   5.105  14.612  0.00  0.00    +0.000 A 
ATOM     12  C   UNL     1       5.544   4.065  14.287  0.00  0.00    +0.000 A 
ATOM     13  C   UNL     1       5.739   3.302  13.122  0.00  0.00    +0.000 A 
ATOM     14  C   UNL     1       6.813   3.561  12.264  0.00  0.00    +0.000 A 
ATOM     15  C   UNL     1       7.013   2.770  11.003  0.00  0.00    +0.000 C 
ATOM     16  C   UNL     1       7.703   4.584  12.604  0.00  0.00    +0.000 A 
ATOM     17  C   UNL     1       7.506   5.345  13.765  0.00  0.00    +0.000 A 
ENDBRANCH  10  11
ENDBRANCH   9  10
ENDBRANCH   3   9
ENDBRANCH   1   6
BRANCH   1  18
ATOM     18  C   UNL     1       2.894   2.412  20.281  0.00  0.00    +0.000 C 
BRANCH  18  19
ATOM     19  C   UNL     1       2.364   3.666  20.968  0.00  0.00    +0.000 C 
ATOM     20  O   UNL     1       1.998   3.682  22.143  0.00  0.00    +0.000 OA
ATOM     21  N   UNL     1       2.218   4.776  20.144  0.00  0.00    +0.000 N 
ATOM     22  H   UNL     1       2.691   4.858  19.244  0.00  0.00    +0.000 HD
BRANCH  21  23
ATOM     23  N   UNL     1       1.717   5.973  20.702  0.00  0.00    +0.000 N 
ATOM     24  C   UNL     1       1.894   7.163  20.019  0.00  0.00    +0.000 C 
ATOM     25  O   UNL     1       2.437   7.253  18.921  0.00  0.00    +0.000 OA
ATOM     26  H   UNL     1       1.459   5.934  21.686  0.00  0.00    +0.000 HD
BRANCH  24  27
ATOM     27  C   UNL     1       1.390   8.402  20.677  0.00  0.00    +0.000 A 
ATOM     28  C   UNL     1       0.894   9.425  19.861  0.00  0.00    +0.000 A 
ATOM     29  C   UNL     1       0.393  10.603  20.430  0.00  0.00    +0.000 A 
ATOM     30  C   UNL     1       0.348  10.758  21.816  0.00  0.00    +0.000 A 
ATOM     31  C   UNL     1       0.827   9.733  22.634  0.00  0.00    +0.000 A 
ATOM     32  C   UNL     1       1.349   8.557  22.066  0.00  0.00    +0.000 A 
BRANCH  30  33
ATOM     33  O   UNL     1      -0.133  11.963  22.250  0.00  0.00    +0.000 OA
ATOM     34  C   UNL     1      -1.402  11.951  22.892  0.00  0.00    +0.000 C 
ENDBRANCH  30  33
ENDBRANCH  24  27
ENDBRANCH  21  23
ENDBRANCH  18  19
ENDBRANCH   1  18
TORSDOF 10
ENDMDL
MODEL 5
REMARK VINA RESULT:      -6.7      2.595      3.880
REMARK  Name = 
REMARK  13 active torsions:
REMARK  status: ('A' for Active; 'I' for Inactive)
REMARK    1  A    between atoms: C_1  and  C_2
REMARK    2  A    between atoms: C_2  and  N_3
REMARK    3  A    between atoms: C_4  and  C_5
REMARK    4  A    between atoms: C_5  and  O_6
REMARK    5  A    between atoms: O_6  and  C_7
REMARK    6  A    between atoms: C_10  and  C_11
REMARK    7  A    between atoms: C_16  and  S_17
REMARK    8  A    between atoms: S_17  and  C_18
REMARK    9  A    between atoms: C_18  and  C_19
REMARK   10  A    between atoms: N_21  and  N_22
REMARK   11  A    between atoms: C_23  and  C_25
REMARK   12  A    between atoms: C_28  and  O_29
REMARK   13  A    between atoms: O_29  and  C_30
REMARK                            x       y       z     vdW  Elec       q    Type
REMARK                         _______ _______ _______ _____ _____    ______ ____
ROOT
ATOM      1  S   UNL     1       1.307   3.838  20.573  0.00  0.00    +0.000 S 
ENDROOT
BRANCH   1   6
ATOM      2  N   UNL     1       3.291   3.353  18.702  0.00  0.00    +0.000 N 
ATOM      3  C   UNL     1       3.371   3.208  17.327  0.00  0.00    +0.000 A 
ATOM      4  N   UNL     1       2.147   3.298  16.834  0.00  0.00    +0.000 NA
ATOM      5  N   UNL     1       1.266   3.505  17.871  0.00  0.00    +0.000 NA
ATOM      6  C   UNL     1       1.957   3.544  18.985  0.00  0.00    +0.000 A 
BRANCH   2   8
ATOM      7  C   UNL     1       4.554   1.939  20.295  0.00  0.00    +0.000 C 
ATOM      8  C   UNL     1       4.398   3.299  19.633  0.00  0.00    +0.000 C 
ENDBRANCH   2   8
BRANCH   3   9
ATOM      9  C   UNL     1       4.634   3.107  16.515  0.00  0.00    +0.000 C 
BRANCH   9  10
ATOM     10  O   UNL     1       4.930   4.386  15.941  0.00  0.00    +0.000 OA
BRANCH  10  11
ATOM     11  C   UNL     1       5.798   5.196  16.638  0.00  0.00    +0.000 A 
ATOM     12  C   UNL     1       6.800   4.776  17.517  0.00  0.00    +0.000 A 
ATOM     13  C   UNL     1       7.647   5.710  18.137  0.00  0.00    +0.000 A 
ATOM     14  C   UNL     1       7.506   7.080  17.895  0.00  0.00    +0.000 A 
ATOM     15  C   UNL     1       8.424   8.084  18.532  0.00  0.00    +0.000 C 
ATOM     16  C   UNL     1       6.487   7.503  17.038  0.00  0.00    +0.000 A 
ATOM     17  C   UNL     1       5.643   6.569  16.418  0.00  0.00    +0.000 A 
ENDBRANCH  10  11
ENDBRANCH   9  10
ENDBRANCH   3   9
ENDBRANCH   1   6
BRANCH   1  18
ATOM     18  C   UNL     1       2.371   5.207  21.146  0.00  0.00    +0.000 C 
BRANCH  18  19
ATOM     19  C   UNL     1       1.961   6.539  20.526  0.00  0.00    +0.000 C 
ATOM     20  O   UNL     1       2.228   6.848  19.365  0.00  0.00    +0.000 OA
ATOM     21  N   UNL     1       1.350   7.434  21.397  0.00  0.00    +0.000 N 
ATOM     22  H   UNL     1       0.937   7.143  22.283  0.00  0.00    +0.000 HD
BRANCH  21  23
ATOM     23  N   UNL     1       0.954   8.696  20.903  0.00  0.00    +0.000 N 
ATOM     24  C   UNL     1       0.760   9.740  21.792  0.00  0.00    +0.000 C 
ATOM     25  O   UNL     1       0.944   9.655  23.003  0.00  0.00    +0.000 OA
ATOM     26  H   UNL     1       0.606   8.714  19.947  0.00  0.00    +0.000 HD
BRANCH  24  27
ATOM     27  C   UNL     1       0.294  11.036  21.222  0.00  0.00    +0.000 A 
ATOM     28  C   UNL     1       1.152  11.718  20.352  0.00  0.00    +0.000 A 
ATOM     29  C   UNL     1       0.755  12.932  19.776  0.00  0.00    +0.000 A 
ATOM     30  C   UNL     1      -0.511  13.458  20.032  0.00  0.00    +0.000 A 
ATOM     31  C   UNL     1      -1.376  12.772  20.887  0.00  0.00    +0.000 A 
ATOM     32  C   UNL     1      -0.974  11.564  21.483  0.00  0.00    +0.000 A 
BRANCH  30  33
ATOM     33  O   UNL     1      -0.771  14.663  19.438  0.00  0.00    +0.000 OA
ATOM     34  C   UNL     1       0.341  15.352  18.879  0.00  0.00    +0.000 C 
ENDBRANCH  30  33
ENDBRANCH  24  27
ENDBRANCH  21  23
ENDBRANCH  18  19
ENDBRANCH   1  18
TORSDOF 10
ENDMDL
MODEL 6
REMARK VINA RESULT:      -6.7      2.740      4.406
REMARK  Name = 
REMARK  13 active torsions:
REMARK  status: ('A' for Active; 'I' for Inactive)
REMARK    1  A    between atoms: C_1  and  C_2
REMARK    2  A    between atoms: C_2  and  N_3
REMARK    3  A    between atoms: C_4  and  C_5
REMARK    4  A    between atoms: C_5  and  O_6
REMARK    5  A    between atoms: O_6  and  C_7
REMARK    6  A    between atoms: C_10  and  C_11
REMARK    7  A    between atoms: C_16  and  S_17
REMARK    8  A    between atoms: S_17  and  C_18
REMARK    9  A    between atoms: C_18  and  C_19
REMARK   10  A    between atoms: N_21  and  N_22
REMARK   11  A    between atoms: C_23  and  C_25
REMARK   12  A    between atoms: C_28  and  O_29
REMARK   13  A    between atoms: O_29  and  C_30
REMARK                            x       y       z     vdW  Elec       q    Type
REMARK                         _______ _______ _______ _____ _____    ______ ____
ROOT
ATOM      1  S   UNL     1       1.654   5.102  20.478  0.00  0.00    +0.000 S 
ENDROOT
BRANCH   1   6
ATOM      2  N   UNL     1       3.272   3.817  18.633  0.00  0.00    +0.000 N 
ATOM      3  C   UNL     1       3.180   3.422  17.310  0.00  0.00    +0.000 A 
ATOM      4  N   UNL     1       1.970   3.730  16.874  0.00  0.00    +0.000 NA
ATOM      5  N   UNL     1       1.269   4.328  17.897  0.00  0.00    +0.000 NA
ATOM      6  C   UNL     1       2.057   4.384  18.944  0.00  0.00    +0.000 A 
BRANCH   2   8
ATOM      7  C   UNL     1       4.443   2.301  20.202  0.00  0.00    +0.000 C 
ATOM      8  C   UNL     1       4.420   3.649  19.499  0.00  0.00    +0.000 C 
ENDBRANCH   2   8
BRANCH   3   9
ATOM      9  C   UNL     1       4.297   2.866  16.468  0.00  0.00    +0.000 C 
BRANCH   9  10
ATOM     10  O   UNL     1       4.840   3.914  15.654  0.00  0.00    +0.000 OA
BRANCH  10  11
ATOM     11  C   UNL     1       5.592   4.873  16.294  0.00  0.00    +0.000 A 
ATOM     12  C   UNL     1       5.274   6.228  16.421  0.00  0.00    +0.000 A 
ATOM     13  C   UNL     1       6.116   7.097  17.136  0.00  0.00    +0.000 A 
ATOM     14  C   UNL     1       7.292   6.630  17.733  0.00  0.00    +0.000 A 
ATOM     15  C   UNL     1       8.183   7.546  18.523  0.00  0.00    +0.000 C 
ATOM     16  C   UNL     1       7.624   5.281  17.583  0.00  0.00    +0.000 A 
ATOM     17  C   UNL     1       6.782   4.415  16.870  0.00  0.00    +0.000 A 
ENDBRANCH  10  11
ENDBRANCH   9  10
ENDBRANCH   3   9
ENDBRANCH   1   6
BRANCH   1  18
ATOM     18  C   UNL     1       2.572   6.678  20.385  0.00  0.00    +0.000 C 
BRANCH  18  19
ATOM     19  C   UNL     1       1.635   7.868  20.207  0.00  0.00    +0.000 C 
ATOM     20  O   UNL     1       1.659   8.597  19.216  0.00  0.00    +0.000 OA
ATOM     21  N   UNL     1       0.813   8.144  21.295  0.00  0.00    +0.000 N 
ATOM     22  H   UNL     1       0.623   7.459  22.026  0.00  0.00    +0.000 HD
BRANCH  21  23
ATOM     23  N   UNL     1      -0.073   9.240  21.214  0.00  0.00    +0.000 N 
ATOM     24  C   UNL     1      -0.176  10.107  22.288  0.00  0.00    +0.000 C 
ATOM     25  O   UNL     1       0.487  10.009  23.318  0.00  0.00    +0.000 OA
ATOM     26  H   UNL     1      -0.761   9.205  20.465  0.00  0.00    +0.000 HD
BRANCH  24  27
ATOM     27  C   UNL     1      -1.162  11.217  22.169  0.00  0.00    +0.000 A 
ATOM     28  C   UNL     1      -1.950  11.520  23.286  0.00  0.00    +0.000 A 
ATOM     29  C   UNL     1      -2.880  12.566  23.231  0.00  0.00    +0.000 A 
ATOM     30  C   UNL     1      -3.009  13.342  22.080  0.00  0.00    +0.000 A 
ATOM     31  C   UNL     1      -2.213  13.054  20.969  0.00  0.00    +0.000 A 
ATOM     32  C   UNL     1      -1.292  11.992  21.012  0.00  0.00    +0.000 A 
BRANCH  30  33
ATOM     33  O   UNL     1      -3.972  14.312  22.138  0.00  0.00    +0.000 OA
ATOM     34  C   UNL     1      -4.340  14.921  20.906  0.00  0.00    +0.000 C 
ENDBRANCH  30  33
ENDBRANCH  24  27
ENDBRANCH  21  23
ENDBRANCH  18  19
ENDBRANCH   1  18
TORSDOF 10
ENDMDL
MODEL 7
REMARK VINA RESULT:      -6.7      4.409      5.789
REMARK  Name = 
REMARK  13 active torsions:
REMARK  status: ('A' for Active; 'I' for Inactive)
REMARK    1  A    between atoms: C_1  and  C_2
REMARK    2  A    between atoms: C_2  and  N_3
REMARK    3  A    between atoms: C_4  and  C_5
REMARK    4  A    between atoms: C_5  and  O_6
REMARK    5  A    between atoms: O_6  and  C_7
REMARK    6  A    between atoms: C_10  and  C_11
REMARK    7  A    between atoms: C_16  and  S_17
REMARK    8  A    between atoms: S_17  and  C_18
REMARK    9  A    between atoms: C_18  and  C_19
REMARK   10  A    between atoms: N_21  and  N_22
REMARK   11  A    between atoms: C_23  and  C_25
REMARK   12  A    between atoms: C_28  and  O_29
REMARK   13  A    between atoms: O_29  and  C_30
REMARK                            x       y       z     vdW  Elec       q    Type
REMARK                         _______ _______ _______ _____ _____    ______ ____
ROOT
ATOM      1  S   UNL     1       5.162   4.163  16.552  0.00  0.00    +0.000 S 
ENDROOT
BRANCH   1   6
ATOM      2  N   UNL     1       7.036   5.942  17.546  0.00  0.00    +0.000 N 
ATOM      3  C   UNL     1       7.276   7.304  17.474  0.00  0.00    +0.000 A 
ATOM      4  N   UNL     1       6.363   7.839  16.682  0.00  0.00    +0.000 NA
ATOM      5  N   UNL     1       5.523   6.842  16.237  0.00  0.00    +0.000 NA
ATOM      6  C   UNL     1       5.928   5.711  16.764  0.00  0.00    +0.000 A 
BRANCH   2   8
ATOM      7  C   UNL     1       7.905   5.299  19.774  0.00  0.00    +0.000 C 
ATOM      8  C   UNL     1       7.815   4.975  18.291  0.00  0.00    +0.000 C 
ENDBRANCH   2   8
BRANCH   3   9
ATOM      9  C   UNL     1       8.304   8.069  18.263  0.00  0.00    +0.000 C 
BRANCH   9  10
ATOM     10  O   UNL     1       8.057   9.474  18.122  0.00  0.00    +0.000 OA
BRANCH  10  11
ATOM     11  C   UNL     1       9.094  10.324  18.435  0.00  0.00    +0.000 A 
ATOM     12  C   UNL     1       9.911  11.004  17.528  0.00  0.00    +0.000 A 
ATOM     13  C   UNL     1      10.915  11.876  17.983  0.00  0.00    +0.000 A 
ATOM     14  C   UNL     1      11.125  12.080  19.350  0.00  0.00    +0.000 A 
ATOM     15  C   UNL     1      12.178  13.031  19.845  0.00  0.00    +0.000 C 
ATOM     16  C   UNL     1      10.327  11.379  20.257  0.00  0.00    +0.000 A 
ATOM     17  C   UNL     1       9.324  10.510  19.802  0.00  0.00    +0.000 A 
ENDBRANCH  10  11
ENDBRANCH   9  10
ENDBRANCH   3   9
ENDBRANCH   1   6
BRANCH   1  18
ATOM     18  C   UNL     1       4.491   3.864  18.224  0.00  0.00    +0.000 C 
BRANCH  18  19
ATOM     19  C   UNL     1       3.960   5.146  18.857  0.00  0.00    +0.000 C 
ATOM     20  O   UNL     1       4.497   5.689  19.822  0.00  0.00    +0.000 OA
ATOM     21  N   UNL     1       2.757   5.610  18.336  0.00  0.00    +0.000 N 
ATOM     22  H   UNL     1       2.402   5.313  17.427  0.00  0.00    +0.000 HD
BRANCH  21  23
ATOM     23  N   UNL     1       2.191   6.784  18.879  0.00  0.00    +0.000 N 
ATOM     24  C   UNL     1       2.256   7.963  18.157  0.00  0.00    +0.000 C 
ATOM     25  O   UNL     1       2.753   8.058  17.038  0.00  0.00    +0.000 OA
ATOM     26  H   UNL     1       1.971   6.756  19.872  0.00  0.00    +0.000 HD
BRANCH  24  27
ATOM     27  C   UNL     1       1.688   9.182  18.799  0.00  0.00    +0.000 A 
ATOM     28  C   UNL     1       1.015   9.031  20.017  0.00  0.00    +0.000 A 
ATOM     29  C   UNL     1       0.477  10.147  20.670  0.00  0.00    +0.000 A 
ATOM     30  C   UNL     1       0.635  11.426  20.136  0.00  0.00    +0.000 A 
ATOM     31  C   UNL     1       1.319  11.583  18.929  0.00  0.00    +0.000 A 
ATOM     32  C   UNL     1       1.844  10.463  18.260  0.00  0.00    +0.000 A 
BRANCH  30  33
ATOM     33  O   UNL     1       0.038  12.431  20.849  0.00  0.00    +0.000 OA
ATOM     34  C   UNL     1       0.641  13.716  20.767  0.00  0.00    +0.000 C 
ENDBRANCH  30  33
ENDBRANCH  24  27
ENDBRANCH  21  23
ENDBRANCH  18  19
ENDBRANCH   1  18
TORSDOF 10
ENDMDL
MODEL 8
REMARK VINA RESULT:      -6.7      4.148      5.460
REMARK  Name = 
REMARK  13 active torsions:
REMARK  status: ('A' for Active; 'I' for Inactive)
REMARK    1  A    between atoms: C_1  and  C_2
REMARK    2  A    between atoms: C_2  and  N_3
REMARK    3  A    between atoms: C_4  and  C_5
REMARK    4  A    between atoms: C_5  and  O_6
REMARK    5  A    between atoms: O_6  and  C_7
REMARK    6  A    between atoms: C_10  and  C_11
REMARK    7  A    between atoms: C_16  and  S_17
REMARK    8  A    between atoms: S_17  and  C_18
REMARK    9  A    between atoms: C_18  and  C_19
REMARK   10  A    between atoms: N_21  and  N_22
REMARK   11  A    between atoms: C_23  and  C_25
REMARK   12  A    between atoms: C_28  and  O_29
REMARK   13  A    between atoms: O_29  and  C_30
REMARK                            x       y       z     vdW  Elec       q    Type
REMARK                         _______ _______ _______ _____ _____    ______ ____
ROOT
ATOM      1  S   UNL     1       5.550   3.615  17.269  0.00  0.00    +0.000 S 
ENDROOT
BRANCH   1   6
ATOM      2  N   UNL     1       6.493   6.218  17.276  0.00  0.00    +0.000 N 
ATOM      3  C   UNL     1       7.436   6.951  17.977  0.00  0.00    +0.000 A 
ATOM      4  N   UNL     1       7.968   6.161  18.894  0.00  0.00    +0.000 NA
ATOM      5  N   UNL     1       7.387   4.916  18.798  0.00  0.00    +0.000 NA
ATOM      6  C   UNL     1       6.511   4.956  17.823  0.00  0.00    +0.000 A 
BRANCH   2   8
ATOM      7  C   UNL     1       5.507   5.705  15.063  0.00  0.00    +0.000 C 
ATOM      8  C   UNL     1       5.660   6.707  16.197  0.00  0.00    +0.000 C 
ENDBRANCH   2   8
BRANCH   3   9
ATOM      9  C   UNL     1       7.882   8.355  17.668  0.00  0.00    +0.000 C 
BRANCH   9  10
ATOM     10  O   UNL     1       8.650   8.858  18.769  0.00  0.00    +0.000 OA
BRANCH  10  11
ATOM     11  C   UNL     1       9.031  10.180  18.709  0.00  0.00    +0.000 A 
ATOM     12  C   UNL     1       8.525  11.151  17.841  0.00  0.00    +0.000 A 
ATOM     13  C   UNL     1       8.977  12.480  17.910  0.00  0.00    +0.000 A 
ATOM     14  C   UNL     1       9.944  12.863  18.845  0.00  0.00    +0.000 A 
ATOM     15  C   UNL     1      10.412  14.286  18.946  0.00  0.00    +0.000 C 
ATOM     16  C   UNL     1      10.470  11.886  19.696  0.00  0.00    +0.000 A 
ATOM     17  C   UNL     1      10.017  10.560  19.625  0.00  0.00    +0.000 A 
ENDBRANCH  10  11
ENDBRANCH   9  10
ENDBRANCH   3   9
ENDBRANCH   1   6
BRANCH   1  18
ATOM     18  C   UNL     1       4.222   3.586  18.521  0.00  0.00    +0.000 C 
BRANCH  18  19
ATOM     19  C   UNL     1       3.521   4.936  18.634  0.00  0.00    +0.000 C 
ATOM     20  O   UNL     1       2.898   5.448  17.705  0.00  0.00    +0.000 OA
ATOM     21  N   UNL     1       3.723   5.609  19.834  0.00  0.00    +0.000 N 
ATOM     22  H   UNL     1       4.051   5.140  20.678  0.00  0.00    +0.000 HD
BRANCH  21  23
ATOM     23  N   UNL     1       3.121   6.874  20.011  0.00  0.00    +0.000 N 
ATOM     24  C   UNL     1       1.868   6.950  20.595  0.00  0.00    +0.000 C 
ATOM     25  O   UNL     1       1.242   5.979  21.011  0.00  0.00    +0.000 OA
ATOM     26  H   UNL     1       3.534   7.643  19.490  0.00  0.00    +0.000 HD
BRANCH  24  27
ATOM     27  C   UNL     1       1.258   8.305  20.712  0.00  0.00    +0.000 A 
ATOM     28  C   UNL     1       1.053   9.038  19.538  0.00  0.00    +0.000 A 
ATOM     29  C   UNL     1       0.467  10.309  19.591  0.00  0.00    +0.000 A 
ATOM     30  C   UNL     1       0.047  10.846  20.809  0.00  0.00    +0.000 A 
ATOM     31  C   UNL     1       0.235  10.111  21.981  0.00  0.00    +0.000 A 
ATOM     32  C   UNL     1       0.841   8.843  21.934  0.00  0.00    +0.000 A 
BRANCH  30  33
ATOM     33  O   UNL     1      -0.481  12.107  20.736  0.00  0.00    +0.000 OA
ATOM     34  C   UNL     1      -0.407  12.899  21.915  0.00  0.00    +0.000 C 
ENDBRANCH  30  33
ENDBRANCH  24  27
ENDBRANCH  21  23
ENDBRANCH  18  19
ENDBRANCH   1  18
TORSDOF 10
ENDMDL
MODEL 9
REMARK VINA RESULT:      -6.7      4.033      5.343
REMARK  Name = 
REMARK  13 active torsions:
REMARK  status: ('A' for Active; 'I' for Inactive)
REMARK    1  A    between atoms: C_1  and  C_2
REMARK    2  A    between atoms: C_2  and  N_3
REMARK    3  A    between atoms: C_4  and  C_5
REMARK    4  A    between atoms: C_5  and  O_6
REMARK    5  A    between atoms: O_6  and  C_7
REMARK    6  A    between atoms: C_10  and  C_11
REMARK    7  A    between atoms: C_16  and  S_17
REMARK    8  A    between atoms: S_17  and  C_18
REMARK    9  A    between atoms: C_18  and  C_19
REMARK   10  A    between atoms: N_21  and  N_22
REMARK   11  A    between atoms: C_23  and  C_25
REMARK   12  A    between atoms: C_28  and  O_29
REMARK   13  A    between atoms: O_29  and  C_30
REMARK                            x       y       z     vdW  Elec       q    Type
REMARK                         _______ _______ _______ _____ _____    ______ ____
ROOT
ATOM      1  S   UNL     1       4.323   4.012  17.346  0.00  0.00    +0.000 S 
ENDROOT
BRANCH   1   6
ATOM      2  N   UNL     1       6.478   5.722  17.665  0.00  0.00    +0.000 N 
ATOM      3  C   UNL     1       6.786   7.033  17.343  0.00  0.00    +0.000 A 
ATOM      4  N   UNL     1       5.761   7.542  16.680  0.00  0.00    +0.000 NA
ATOM      5  N   UNL     1       4.783   6.580  16.568  0.00  0.00    +0.000 NA
ATOM      6  C   UNL     1       5.216   5.495  17.165  0.00  0.00    +0.000 A 
BRANCH   2   8
ATOM      7  C   UNL     1       7.936   5.385  19.638  0.00  0.00    +0.000 C 
ATOM      8  C   UNL     1       7.332   4.793  18.374  0.00  0.00    +0.000 C 
ENDBRANCH   2   8
BRANCH   3   9
ATOM      9  C   UNL     1       8.006   7.795  17.785  0.00  0.00    +0.000 C 
BRANCH   9  10
ATOM     10  O   UNL     1       7.716   9.199  17.769  0.00  0.00    +0.000 OA
BRANCH  10  11
ATOM     11  C   UNL     1       8.685  10.041  18.268  0.00  0.00    +0.000 A 
ATOM     12  C   UNL     1       9.355  11.044  17.563  0.00  0.00    +0.000 A 
ATOM     13  C   UNL     1      10.301  11.861  18.205  0.00  0.00    +0.000 A 
ATOM     14  C   UNL     1      10.598  11.689  19.561  0.00  0.00    +0.000 A 
ATOM     15  C   UNL     1      11.587  12.576  20.262  0.00  0.00    +0.000 C 
ATOM     16  C   UNL     1       9.949  10.667  20.259  0.00  0.00    +0.000 A 
ATOM     17  C   UNL     1       9.004   9.853  19.617  0.00  0.00    +0.000 A 
ENDBRANCH  10  11
ENDBRANCH   9  10
ENDBRANCH   3   9
ENDBRANCH   1   6
BRANCH   1  18
ATOM     18  C   UNL     1       3.927   4.049  19.128  0.00  0.00    +0.000 C 
BRANCH  18  19
ATOM     19  C   UNL     1       2.800   5.030  19.437  0.00  0.00    +0.000 C 
ATOM     20  O   UNL     1       1.638   4.851  19.074  0.00  0.00    +0.000 OA
ATOM     21  N   UNL     1       3.194   6.203  20.070  0.00  0.00    +0.000 N 
ATOM     22  H   UNL     1       4.086   6.292  20.557  0.00  0.00    +0.000 HD
BRANCH  21  23
ATOM     23  N   UNL     1       2.212   7.170  20.377  0.00  0.00    +0.000 N 
ATOM     24  C   UNL     1       1.996   8.218  19.499  0.00  0.00    +0.000 C 
ATOM     25  O   UNL     1       2.588   8.353  18.430  0.00  0.00    +0.000 OA
ATOM     26  H   UNL     1       1.875   7.177  21.337  0.00  0.00    +0.000 HD
BRANCH  24  27
ATOM     27  C   UNL     1       0.983   9.236  19.896  0.00  0.00    +0.000 A 
ATOM     28  C   UNL     1       0.372   9.986  18.884  0.00  0.00    +0.000 A 
ATOM     29  C   UNL     1      -0.599  10.944  19.203  0.00  0.00    +0.000 A 
ATOM     30  C   UNL     1      -0.997  11.138  20.526  0.00  0.00    +0.000 A 
ATOM     31  C   UNL     1      -0.401  10.380  21.536  0.00  0.00    +0.000 A 
ATOM     32  C   UNL     1       0.588   9.432  21.223  0.00  0.00    +0.000 A 
BRANCH  30  33
ATOM     33  O   UNL     1      -1.928  12.123  20.714  0.00  0.00    +0.000 OA
ATOM     34  C   UNL     1      -1.561  13.435  20.307  0.00  0.00    +0.000 C 
ENDBRANCH  30  33
ENDBRANCH  24  27
ENDBRANCH  21  23
ENDBRANCH  18  19
ENDBRANCH   1  18
TORSDOF 10
ENDMDL
