MODEL 1
REMARK VINA RESULT:      -8.1      0.000      0.000
REMARK  Name = 
REMARK  9 active torsions:
REMARK  status: ('A' for Active; 'I' for Inactive)
REMARK    1  A    between atoms: C_1  and  N_2
REMARK    2  A    between atoms: N_2  and  C_3
REMARK    3  A    between atoms: N_2  and  C_9
REMARK    4  A    between atoms: C_11  and  N_12
REMARK    5  A    between atoms: N_12  and  C_13
REMARK    6  A    between atoms: C_13  and  C_14
REMARK    7  A    between atoms: C_20  and  S_21
REMARK    8  A    between atoms: C_26  and  S_27
REMARK    9  A    between atoms: S_27  and  N_28
REMARK                            x       y       z     vdW  Elec       q    Type
REMARK                         _______ _______ _______ _____ _____    ______ ____
ROOT
ATOM      1  C   UNL     1       3.524   6.105  18.327  0.00  0.00    +0.000 A 
ATOM      2  C   UNL     1       4.676   6.912  18.073  0.00  0.00    +0.000 A 
ATOM      3  C   UNL     1       5.768   6.589  17.237  0.00  0.00    +0.000 A 
ATOM      4  C   UNL     1       5.698   5.353  16.612  0.00  0.00    +0.000 A 
ATOM      5  C   UNL     1       4.593   4.514  16.808  0.00  0.00    +0.000 A 
ATOM      6  C   UNL     1       3.518   4.874  17.641  0.00  0.00    +0.000 A 
ENDROOT
BRANCH   4   7
ATOM      7  S   UNL     1       7.038   4.588  15.662  0.00  0.00    +0.000 S 
ATOM      8  O   UNL     1       6.356   3.485  15.006  0.00  0.00    +0.000 OA
ATOM      9  O   UNL     1       7.530   5.669  14.812  0.00  0.00    +0.000 OA
ATOM     10  O   UNL     1       7.937   4.214  16.764  0.00  0.00    +0.000 OA
ENDBRANCH   4   7
BRANCH   6  11
ATOM     11  S   UNL     1       2.280   3.633  17.805  0.00  0.00    +0.000 S 
ATOM     12  O   UNL     1       2.522   3.061  19.124  0.00  0.00    +0.000 OA
ATOM     13  O   UNL     1       0.998   4.125  17.376  0.00  0.00    +0.000 OA
BRANCH  11  14
ATOM     14  N   UNL     1       2.686   2.399  16.768  0.00  0.00    +0.000 NA
ATOM     15  H   UNL     1       2.802   1.483  17.196  0.00  0.00    +0.000 HD
ATOM     16  H   UNL     1       2.131   2.400  15.911  0.00  0.00    +0.000 HD
ENDBRANCH  11  14
ENDBRANCH   6  11
BRANCH   1  18
ATOM     17  C   UNL     1       2.266   6.033  20.519  0.00  0.00    +0.000 C 
ATOM     18  N   UNL     1       2.552   6.646  19.219  0.00  0.00    +0.000 N 
BRANCH  18  19
ATOM     19  C   UNL     1       1.982   7.963  19.120  0.00  0.00    +0.000 A 
ATOM     20  C   UNL     1       1.942   8.687  17.911  0.00  0.00    +0.000 A 
ATOM     21  C   UNL     1       1.409   9.979  17.846  0.00  0.00    +0.000 A 
ATOM     22  C   UNL     1       0.861  10.561  18.982  0.00  0.00    +0.000 A 
ATOM     23  C   UNL     1       0.855   9.859  20.184  0.00  0.00    +0.000 A 
ATOM     24  C   UNL     1       1.426   8.586  20.254  0.00  0.00    +0.000 A 
ENDBRANCH  18  19
ENDBRANCH   1  18
BRANCH   3  25
ATOM     25  N   UNL     1       6.784   7.520  17.014  0.00  0.00    +0.000 N 
ATOM     26  H   UNL     1       7.033   7.603  16.011  0.00  0.00    +0.000 HD
BRANCH  25  27
ATOM     27  C   UNL     1       7.869   7.654  17.970  0.00  0.00    +0.000 C 
BRANCH  27  28
ATOM     28  C   UNL     1       8.277   9.082  18.217  0.00  0.00    +0.000 A 
ATOM     29  C   UNL     1       9.220   9.390  19.210  0.00  0.00    +0.000 A 
ATOM     30  C   UNL     1       9.657  10.703  19.387  0.00  0.00    +0.000 A 
ATOM     31  C   UNL     1       9.164  11.718  18.569  0.00  0.00    +0.000 A 
ATOM     32  C   UNL     1       8.240  11.421  17.569  0.00  0.00    +0.000 A 
ATOM     33  C   UNL     1       7.804  10.109  17.388  0.00  0.00    +0.000 A 
ENDBRANCH  27  28
ENDBRANCH  25  27
ENDBRANCH   3  25
TORSDOF 8
ENDMDL
MODEL 2
REMARK VINA RESULT:      -8.1      0.059      1.245
REMARK  Name = 
REMARK  9 active torsions:
REMARK  status: ('A' for Active; 'I' for Inactive)
REMARK    1  A    between atoms: C_1  and  N_2
REMARK    2  A    between atoms: N_2  and  C_3
REMARK    3  A    between atoms: N_2  and  C_9
REMARK    4  A    between atoms: C_11  and  N_12
REMARK    5  A    between atoms: N_12  and  C_13
REMARK    6  A    between atoms: C_13  and  C_14
REMARK    7  A    between atoms: C_20  and  S_21
REMARK    8  A    between atoms: C_26  and  S_27
REMARK    9  A    between atoms: S_27  and  N_28
REMARK                            x       y       z     vdW  Elec       q    Type
REMARK                         _______ _______ _______ _____ _____    ______ ____
ROOT
ATOM      1  C   UNL     1       3.487   6.088  18.366  0.00  0.00    +0.000 A 
ATOM      2  C   UNL     1       4.630   6.908  18.114  0.00  0.00    +0.000 A 
ATOM      3  C   UNL     1       5.729   6.594  17.282  0.00  0.00    +0.000 A 
ATOM      4  C   UNL     1       5.675   5.355  16.662  0.00  0.00    +0.000 A 
ATOM      5  C   UNL     1       4.579   4.504  16.857  0.00  0.00    +0.000 A 
ATOM      6  C   UNL     1       3.497   4.855  17.685  0.00  0.00    +0.000 A 
ENDROOT
BRANCH   4   7
ATOM      7  S   UNL     1       7.027   4.602  15.719  0.00  0.00    +0.000 S 
ATOM      8  O   UNL     1       6.353   3.507  15.041  0.00  0.00    +0.000 OA
ATOM      9  O   UNL     1       7.529   5.693  14.889  0.00  0.00    +0.000 OA
ATOM     10  O   UNL     1       7.912   4.213  16.828  0.00  0.00    +0.000 OA
ENDBRANCH   4   7
BRANCH   6  11
ATOM     11  S   UNL     1       2.272   3.600  17.849  0.00  0.00    +0.000 S 
ATOM     12  O   UNL     1       2.541   3.010  19.155  0.00  0.00    +0.000 OA
ATOM     13  O   UNL     1       0.980   4.087  17.450  0.00  0.00    +0.000 OA
BRANCH  11  14
ATOM     14  N   UNL     1       2.672   2.386  16.787  0.00  0.00    +0.000 NA
ATOM     15  H   UNL     1       3.502   1.847  17.025  0.00  0.00    +0.000 HD
ATOM     16  H   UNL     1       1.868   1.825  16.502  0.00  0.00    +0.000 HD
ENDBRANCH  11  14
ENDBRANCH   6  11
BRANCH   1  18
ATOM     17  C   UNL     1       2.185   5.981  20.531  0.00  0.00    +0.000 C 
ATOM     18  N   UNL     1       2.506   6.621  19.253  0.00  0.00    +0.000 N 
BRANCH  18  19
ATOM     19  C   UNL     1       1.958   7.950  19.177  0.00  0.00    +0.000 A 
ATOM     20  C   UNL     1       1.420   8.617  20.296  0.00  0.00    +0.000 A 
ATOM     21  C   UNL     1       0.865   9.897  20.190  0.00  0.00    +0.000 A 
ATOM     22  C   UNL     1       0.878  10.560  18.970  0.00  0.00    +0.000 A 
ATOM     23  C   UNL     1       1.433   9.942  17.853  0.00  0.00    +0.000 A 
ATOM     24  C   UNL     1       1.947   8.647  17.954  0.00  0.00    +0.000 A 
ENDBRANCH  18  19
ENDBRANCH   1  18
BRANCH   3  25
ATOM     25  N   UNL     1       6.735   7.535  17.059  0.00  0.00    +0.000 N 
ATOM     26  H   UNL     1       6.959   7.646  16.053  0.00  0.00    +0.000 HD
BRANCH  25  27
ATOM     27  C   UNL     1       7.842   7.649  17.991  0.00  0.00    +0.000 C 
BRANCH  27  28
ATOM     28  C   UNL     1       8.327   9.063  18.176  0.00  0.00    +0.000 A 
ATOM     29  C   UNL     1       7.824  10.098  17.373  0.00  0.00    +0.000 A 
ATOM     30  C   UNL     1       8.213  11.419  17.596  0.00  0.00    +0.000 A 
ATOM     31  C   UNL     1       9.101  11.719  18.628  0.00  0.00    +0.000 A 
ATOM     32  C   UNL     1       9.594  10.701  19.442  0.00  0.00    +0.000 A 
ATOM     33  C   UNL     1       9.203   9.382  19.223  0.00  0.00    +0.000 A 
ENDBRANCH  27  28
ENDBRANCH  25  27
ENDBRANCH   3  25
TORSDOF 8
ENDMDL
MODEL 3
REMARK VINA RESULT:      -8.0      0.118      1.183
REMARK  Name = 
REMARK  9 active torsions:
REMARK  status: ('A' for Active; 'I' for Inactive)
REMARK    1  A    between atoms: C_1  and  N_2
REMARK    2  A    between atoms: N_2  and  C_3
REMARK    3  A    between atoms: N_2  and  C_9
REMARK    4  A    between atoms: C_11  and  N_12
REMARK    5  A    between atoms: N_12  and  C_13
REMARK    6  A    between atoms: C_13  and  C_14
REMARK    7  A    between atoms: C_20  and  S_21
REMARK    8  A    between atoms: C_26  and  S_27
REMARK    9  A    between atoms: S_27  and  N_28
REMARK                            x       y       z     vdW  Elec       q    Type
REMARK                         _______ _______ _______ _____ _____    ______ ____
ROOT
ATOM      1  C   UNL     1       3.468   6.071  18.399  0.00  0.00    +0.000 A 
ATOM      2  C   UNL     1       4.599   6.898  18.117  0.00  0.00    +0.000 A 
ATOM      3  C   UNL     1       5.696   6.577  17.286  0.00  0.00    +0.000 A 
ATOM      4  C   UNL     1       5.653   5.322  16.697  0.00  0.00    +0.000 A 
ATOM      5  C   UNL     1       4.570   4.463  16.922  0.00  0.00    +0.000 A 
ATOM      6  C   UNL     1       3.489   4.821  17.749  0.00  0.00    +0.000 A 
ENDROOT
BRANCH   4   7
ATOM      7  S   UNL     1       7.008   4.562  15.764  0.00  0.00    +0.000 S 
ATOM      8  O   UNL     1       7.947   4.215  16.817  0.00  0.00    +0.000 OA
ATOM      9  O   UNL     1       6.370   3.460  15.049  0.00  0.00    +0.000 OA
ATOM     10  O   UNL     1       7.394   5.703  14.919  0.00  0.00    +0.000 OA
ENDBRANCH   4   7
BRANCH   6  11
ATOM     11  S   UNL     1       2.282   3.556  17.954  0.00  0.00    +0.000 S 
ATOM     12  O   UNL     1       2.563   3.007  19.275  0.00  0.00    +0.000 OA
ATOM     13  O   UNL     1       0.982   4.015  17.547  0.00  0.00    +0.000 OA
BRANCH  11  14
ATOM     14  N   UNL     1       2.693   2.318  16.924  0.00  0.00    +0.000 NA
ATOM     15  H   UNL     1       1.968   2.027  16.273  0.00  0.00    +0.000 HD
ATOM     16  H   UNL     1       3.617   2.439  16.505  0.00  0.00    +0.000 HD
ENDBRANCH  11  14
ENDBRANCH   6  11
BRANCH   1  18
ATOM     17  C   UNL     1       2.163   5.986  20.562  0.00  0.00    +0.000 C 
ATOM     18  N   UNL     1       2.488   6.614  19.279  0.00  0.00    +0.000 N 
BRANCH  18  19
ATOM     19  C   UNL     1       1.943   7.944  19.190  0.00  0.00    +0.000 A 
ATOM     20  C   UNL     1       1.395   8.618  20.300  0.00  0.00    +0.000 A 
ATOM     21  C   UNL     1       0.844   9.899  20.182  0.00  0.00    +0.000 A 
ATOM     22  C   UNL     1       0.869  10.555  18.958  0.00  0.00    +0.000 A 
ATOM     23  C   UNL     1       1.433   9.929  17.850  0.00  0.00    +0.000 A 
ATOM     24  C   UNL     1       1.944   8.633  17.963  0.00  0.00    +0.000 A 
ENDBRANCH  18  19
ENDBRANCH   1  18
BRANCH   3  25
ATOM     25  N   UNL     1       6.689   7.524  17.031  0.00  0.00    +0.000 N 
ATOM     26  H   UNL     1       6.854   7.664  16.017  0.00  0.00    +0.000 HD
BRANCH  25  27
ATOM     27  C   UNL     1       7.849   7.612  17.900  0.00  0.00    +0.000 C 
BRANCH  27  28
ATOM     28  C   UNL     1       8.266   9.027  18.203  0.00  0.00    +0.000 A 
ATOM     29  C   UNL     1       9.115   9.302  19.287  0.00  0.00    +0.000 A 
ATOM     30  C   UNL     1       9.564  10.602  19.520  0.00  0.00    +0.000 A 
ATOM     31  C   UNL     1       9.178  11.637  18.670  0.00  0.00    +0.000 A 
ATOM     32  C   UNL     1       8.350  11.372  17.581  0.00  0.00    +0.000 A 
ATOM     33  C   UNL     1       7.902  10.074  17.344  0.00  0.00    +0.000 A 
ENDBRANCH  27  28
ENDBRANCH  25  27
ENDBRANCH   3  25
TORSDOF 8
ENDMDL
MODEL 4
REMARK VINA RESULT:      -8.0      0.653      1.191
REMARK  Name = 
REMARK  9 active torsions:
REMARK  status: ('A' for Active; 'I' for Inactive)
REMARK    1  A    between atoms: C_1  and  N_2
REMARK    2  A    between atoms: N_2  and  C_3
REMARK    3  A    between atoms: N_2  and  C_9
REMARK    4  A    between atoms: C_11  and  N_12
REMARK    5  A    between atoms: N_12  and  C_13
REMARK    6  A    between atoms: C_13  and  C_14
REMARK    7  A    between atoms: C_20  and  S_21
REMARK    8  A    between atoms: C_26  and  S_27
REMARK    9  A    between atoms: S_27  and  N_28
REMARK                            x       y       z     vdW  Elec       q    Type
REMARK                         _______ _______ _______ _____ _____    ______ ____
ROOT
ATOM      1  C   UNL     1       3.503   6.019  18.288  0.00  0.00    +0.000 A 
ATOM      2  C   UNL     1       4.658   6.828  18.057  0.00  0.00    +0.000 A 
ATOM      3  C   UNL     1       5.749   6.524  17.212  0.00  0.00    +0.000 A 
ATOM      4  C   UNL     1       5.673   5.307  16.552  0.00  0.00    +0.000 A 
ATOM      5  C   UNL     1       4.564   4.468  16.723  0.00  0.00    +0.000 A 
ATOM      6  C   UNL     1       3.491   4.808  17.567  0.00  0.00    +0.000 A 
ENDROOT
BRANCH   4   7
ATOM      7  S   UNL     1       7.009   4.564  15.579  0.00  0.00    +0.000 S 
ATOM      8  O   UNL     1       6.346   3.422  14.972  0.00  0.00    +0.000 OA
ATOM      9  O   UNL     1       7.438   5.639  14.689  0.00  0.00    +0.000 OA
ATOM     10  O   UNL     1       7.953   4.247  16.662  0.00  0.00    +0.000 OA
ENDBRANCH   4   7
BRANCH   6  11
ATOM     11  S   UNL     1       2.247   3.569  17.696  0.00  0.00    +0.000 S 
ATOM     12  O   UNL     1       0.997   4.302  17.545  0.00  0.00    +0.000 OA
ATOM     13  O   UNL     1       2.589   2.413  16.911  0.00  0.00    +0.000 OA
BRANCH  11  14
ATOM     14  N   UNL     1       2.216   3.073  19.282  0.00  0.00    +0.000 NA
ATOM     15  H   UNL     1       3.078   2.660  19.632  0.00  0.00    +0.000 HD
ATOM     16  H   UNL     1       1.790   3.760  19.906  0.00  0.00    +0.000 HD
ENDBRANCH  11  14
ENDBRANCH   6  11
BRANCH   1  18
ATOM     17  C   UNL     1       2.252   5.896  20.482  0.00  0.00    +0.000 C 
ATOM     18  N   UNL     1       2.534   6.538  19.196  0.00  0.00    +0.000 N 
BRANCH  18  19
ATOM     19  C   UNL     1       1.963   7.858  19.130  0.00  0.00    +0.000 A 
ATOM     20  C   UNL     1       1.433   8.516  20.258  0.00  0.00    +0.000 A 
ATOM     21  C   UNL     1       0.856   9.787  20.162  0.00  0.00    +0.000 A 
ATOM     22  C   UNL     1       0.837  10.450  18.942  0.00  0.00    +0.000 A 
ATOM     23  C   UNL     1       1.383   9.841  17.816  0.00  0.00    +0.000 A 
ATOM     24  C   UNL     1       1.920   8.555  17.907  0.00  0.00    +0.000 A 
ENDBRANCH  18  19
ENDBRANCH   1  18
BRANCH   3  25
ATOM     25  N   UNL     1       6.769   7.456  17.015  0.00  0.00    +0.000 N 
ATOM     26  H   UNL     1       7.018   7.567  16.014  0.00  0.00    +0.000 HD
BRANCH  25  27
ATOM     27  C   UNL     1       7.855   7.557  17.974  0.00  0.00    +0.000 C 
BRANCH  27  28
ATOM     28  C   UNL     1       8.277   8.975  18.254  0.00  0.00    +0.000 A 
ATOM     29  C   UNL     1       9.128   9.263  19.333  0.00  0.00    +0.000 A 
ATOM     30  C   UNL     1       9.583  10.565  19.546  0.00  0.00    +0.000 A 
ATOM     31  C   UNL     1       9.199  11.588  18.681  0.00  0.00    +0.000 A 
ATOM     32  C   UNL     1       8.368  11.310  17.598  0.00  0.00    +0.000 A 
ATOM     33  C   UNL     1       7.915  10.010  17.380  0.00  0.00    +0.000 A 
ENDBRANCH  27  28
ENDBRANCH  25  27
ENDBRANCH   3  25
TORSDOF 8
ENDMDL
MODEL 5
REMARK VINA RESULT:      -7.9      0.658      1.428
REMARK  Name = 
REMARK  9 active torsions:
REMARK  status: ('A' for Active; 'I' for Inactive)
REMARK    1  A    between atoms: C_1  and  N_2
REMARK    2  A    between atoms: N_2  and  C_3
REMARK    3  A    between atoms: N_2  and  C_9
REMARK    4  A    between atoms: C_11  and  N_12
REMARK    5  A    between atoms: N_12  and  C_13
REMARK    6  A    between atoms: C_13  and  C_14
REMARK    7  A    between atoms: C_20  and  S_21
REMARK    8  A    between atoms: C_26  and  S_27
REMARK    9  A    between atoms: S_27  and  N_28
REMARK                            x       y       z     vdW  Elec       q    Type
REMARK                         _______ _______ _______ _____ _____    ______ ____
ROOT
ATOM      1  C   UNL     1       3.562   5.967  18.373  0.00  0.00    +0.000 A 
ATOM      2  C   UNL     1       4.711   6.787  18.150  0.00  0.00    +0.000 A 
ATOM      3  C   UNL     1       5.807   6.497  17.306  0.00  0.00    +0.000 A 
ATOM      4  C   UNL     1       5.742   5.283  16.639  0.00  0.00    +0.000 A 
ATOM      5  C   UNL     1       4.641   4.433  16.803  0.00  0.00    +0.000 A 
ATOM      6  C   UNL     1       3.562   4.760  17.646  0.00  0.00    +0.000 A 
ENDROOT
BRANCH   4   7
ATOM      7  S   UNL     1       7.088   4.556  15.666  0.00  0.00    +0.000 S 
ATOM      8  O   UNL     1       7.465   5.658  14.797  0.00  0.00    +0.000 OA
ATOM      9  O   UNL     1       8.061   4.133  16.669  0.00  0.00    +0.000 OA
ATOM     10  O   UNL     1       6.355   3.458  15.017  0.00  0.00    +0.000 OA
ENDBRANCH   4   7
BRANCH   6  11
ATOM     11  S   UNL     1       2.329   3.510  17.765  0.00  0.00    +0.000 S 
ATOM     12  O   UNL     1       2.597   2.636  16.629  0.00  0.00    +0.000 OA
ATOM     13  O   UNL     1       2.204   3.037  19.117  0.00  0.00    +0.000 OA
BRANCH  11  14
ATOM     14  N   UNL     1       0.877   4.218  17.373  0.00  0.00    +0.000 NA
ATOM     15  H   UNL     1       0.338   3.748  16.649  0.00  0.00    +0.000 HD
ATOM     16  H   UNL     1       0.335   4.495  18.193  0.00  0.00    +0.000 HD
ENDBRANCH  11  14
ENDBRANCH   6  11
BRANCH   1  18
ATOM     17  C   UNL     1       2.314   5.827  20.567  0.00  0.00    +0.000 C 
ATOM     18  N   UNL     1       2.587   6.474  19.281  0.00  0.00    +0.000 N 
BRANCH  18  19
ATOM     19  C   UNL     1       1.998   7.785  19.215  0.00  0.00    +0.000 A 
ATOM     20  C   UNL     1       1.918   8.524  18.017  0.00  0.00    +0.000 A 
ATOM     21  C   UNL     1       1.368   9.810  17.984  0.00  0.00    +0.000 A 
ATOM     22  C   UNL     1       0.842  10.370  19.141  0.00  0.00    +0.000 A 
ATOM     23  C   UNL     1       0.876   9.652  20.333  0.00  0.00    +0.000 A 
ATOM     24  C   UNL     1       1.464   8.386  20.371  0.00  0.00    +0.000 A 
ENDBRANCH  18  19
ENDBRANCH   1  18
BRANCH   3  25
ATOM     25  N   UNL     1       6.819   7.439  17.116  0.00  0.00    +0.000 N 
ATOM     26  H   UNL     1       7.127   7.498  16.128  0.00  0.00    +0.000 HD
BRANCH  25  27
ATOM     27  C   UNL     1       7.842   7.619  18.131  0.00  0.00    +0.000 C 
BRANCH  27  28
ATOM     28  C   UNL     1       8.334   9.038  18.241  0.00  0.00    +0.000 A 
ATOM     29  C   UNL     1       7.832  10.032  17.388  0.00  0.00    +0.000 A 
ATOM     30  C   UNL     1       8.229  11.361  17.541  0.00  0.00    +0.000 A 
ATOM     31  C   UNL     1       9.123  11.710  18.552  0.00  0.00    +0.000 A 
ATOM     32  C   UNL     1       9.614  10.733  19.416  0.00  0.00    +0.000 A 
ATOM     33  C   UNL     1       9.216   9.406  19.267  0.00  0.00    +0.000 A 
ENDBRANCH  27  28
ENDBRANCH  25  27
ENDBRANCH   3  25
TORSDOF 8
ENDMDL
MODEL 6
REMARK VINA RESULT:      -7.9      0.650      1.425
REMARK  Name = 
REMARK  9 active torsions:
REMARK  status: ('A' for Active; 'I' for Inactive)
REMARK    1  A    between atoms: C_1  and  N_2
REMARK    2  A    between atoms: N_2  and  C_3
REMARK    3  A    between atoms: N_2  and  C_9
REMARK    4  A    between atoms: C_11  and  N_12
REMARK    5  A    between atoms: N_12  and  C_13
REMARK    6  A    between atoms: C_13  and  C_14
REMARK    7  A    between atoms: C_20  and  S_21
REMARK    8  A    between atoms: C_26  and  S_27
REMARK    9  A    between atoms: S_27  and  N_28
REMARK                            x       y       z     vdW  Elec       q    Type
REMARK                         _______ _______ _______ _____ _____    ______ ____
ROOT
ATOM      1  C   UNL     1       3.600   6.036  18.327  0.00  0.00    +0.000 A 
ATOM      2  C   UNL     1       4.744   6.858  18.089  0.00  0.00    +0.000 A 
ATOM      3  C   UNL     1       5.838   6.562  17.244  0.00  0.00    +0.000 A 
ATOM      4  C   UNL     1       5.777   5.339  16.593  0.00  0.00    +0.000 A 
ATOM      5  C   UNL     1       4.680   4.487  16.772  0.00  0.00    +0.000 A 
ATOM      6  C   UNL     1       3.602   4.820  17.615  0.00  0.00    +0.000 A 
ENDROOT
BRANCH   4   7
ATOM      7  S   UNL     1       7.121   4.606  15.625  0.00  0.00    +0.000 S 
ATOM      8  O   UNL     1       7.527   5.715  14.777  0.00  0.00    +0.000 OA
ATOM      9  O   UNL     1       8.076   4.152  16.632  0.00  0.00    +0.000 OA
ATOM     10  O   UNL     1       6.379   3.530  14.950  0.00  0.00    +0.000 OA
ENDBRANCH   4   7
BRANCH   6  11
ATOM     11  S   UNL     1       2.375   3.565  17.755  0.00  0.00    +0.000 S 
ATOM     12  O   UNL     1       2.633   2.688  16.619  0.00  0.00    +0.000 OA
ATOM     13  O   UNL     1       2.270   3.098  19.110  0.00  0.00    +0.000 OA
BRANCH  11  14
ATOM     14  N   UNL     1       0.916   4.267  17.379  0.00  0.00    +0.000 NA
ATOM     15  H   UNL     1       0.793   4.535  16.405  0.00  0.00    +0.000 HD
ATOM     16  H   UNL     1       0.120   3.774  17.788  0.00  0.00    +0.000 HD
ENDBRANCH  11  14
ENDBRANCH   6  11
BRANCH   1  18
ATOM     17  C   UNL     1       2.374   5.930  20.536  0.00  0.00    +0.000 C 
ATOM     18  N   UNL     1       2.625   6.550  19.232  0.00  0.00    +0.000 N 
BRANCH  18  19
ATOM     19  C   UNL     1       2.017   7.851  19.141  0.00  0.00    +0.000 A 
ATOM     20  C   UNL     1       1.433   8.498  20.248  0.00  0.00    +0.000 A 
ATOM     21  C   UNL     1       0.821   9.750  20.127  0.00  0.00    +0.000 A 
ATOM     22  C   UNL     1       0.818  10.406  18.903  0.00  0.00    +0.000 A 
ATOM     23  C   UNL     1       1.416   9.808  17.798  0.00  0.00    +0.000 A 
ATOM     24  C   UNL     1       1.989   8.539  17.913  0.00  0.00    +0.000 A 
ENDBRANCH  18  19
ENDBRANCH   1  18
BRANCH   3  25
ATOM     25  N   UNL     1       6.845   7.506  17.039  0.00  0.00    +0.000 N 
ATOM     26  H   UNL     1       7.116   7.588  16.041  0.00  0.00    +0.000 HD
BRANCH  25  27
ATOM     27  C   UNL     1       7.906   7.660  18.019  0.00  0.00    +0.000 C 
BRANCH  27  28
ATOM     28  C   UNL     1       8.311   9.093  18.244  0.00  0.00    +0.000 A 
ATOM     29  C   UNL     1       9.251   9.418  19.235  0.00  0.00    +0.000 A 
ATOM     30  C   UNL     1       9.685  10.735  19.391  0.00  0.00    +0.000 A 
ATOM     31  C   UNL     1       9.191  11.736  18.556  0.00  0.00    +0.000 A 
ATOM     32  C   UNL     1       8.270  11.421  17.558  0.00  0.00    +0.000 A 
ATOM     33  C   UNL     1       7.838  10.106  17.398  0.00  0.00    +0.000 A 
ENDBRANCH  27  28
ENDBRANCH  25  27
ENDBRANCH   3  25
TORSDOF 8
ENDMDL
MODEL 7
REMARK VINA RESULT:      -7.4      0.910      1.029
REMARK  Name = 
REMARK  9 active torsions:
REMARK  status: ('A' for Active; 'I' for Inactive)
REMARK    1  A    between atoms: C_1  and  N_2
REMARK    2  A    between atoms: N_2  and  C_3
REMARK    3  A    between atoms: N_2  and  C_9
REMARK    4  A    between atoms: C_11  and  N_12
REMARK    5  A    between atoms: N_12  and  C_13
REMARK    6  A    between atoms: C_13  and  C_14
REMARK    7  A    between atoms: C_20  and  S_21
REMARK    8  A    between atoms: C_26  and  S_27
REMARK    9  A    between atoms: S_27  and  N_28
REMARK                            x       y       z     vdW  Elec       q    Type
REMARK                         _______ _______ _______ _____ _____    ______ ____
ROOT
ATOM      1  C   UNL     1       3.643   5.747  18.715  0.00  0.00    +0.000 A 
ATOM      2  C   UNL     1       4.893   6.440  18.743  0.00  0.00    +0.000 A 
ATOM      3  C   UNL     1       6.012   6.200  17.915  0.00  0.00    +0.000 A 
ATOM      4  C   UNL     1       5.864   5.178  16.989  0.00  0.00    +0.000 A 
ATOM      5  C   UNL     1       4.663   4.463  16.900  0.00  0.00    +0.000 A 
ATOM      6  C   UNL     1       3.564   4.736  17.736  0.00  0.00    +0.000 A 
ENDROOT
BRANCH   4   7
ATOM      7  S   UNL     1       7.191   4.512  15.951  0.00  0.00    +0.000 S 
ATOM      8  O   UNL     1       6.528   3.407  15.280  0.00  0.00    +0.000 OA
ATOM      9  O   UNL     1       7.598   5.647  15.127  0.00  0.00    +0.000 OA
ATOM     10  O   UNL     1       8.154   4.133  16.997  0.00  0.00    +0.000 OA
ENDBRANCH   4   7
BRANCH   6  11
ATOM     11  S   UNL     1       2.191   3.660  17.504  0.00  0.00    +0.000 S 
ATOM     12  O   UNL     1       1.053   4.560  17.363  0.00  0.00    +0.000 OA
ATOM     13  O   UNL     1       2.503   2.622  16.559  0.00  0.00    +0.000 OA
BRANCH  11  14
ATOM     14  N   UNL     1       1.911   2.907  18.960  0.00  0.00    +0.000 NA
ATOM     15  H   UNL     1       0.934   2.825  19.233  0.00  0.00    +0.000 HD
ATOM     16  H   UNL     1       2.458   2.053  19.079  0.00  0.00    +0.000 HD
ENDBRANCH  11  14
ENDBRANCH   6  11
BRANCH   1  18
ATOM     17  C   UNL     1       2.418   5.430  20.903  0.00  0.00    +0.000 C 
ATOM     18  N   UNL     1       2.662   6.166  19.661  0.00  0.00    +0.000 N 
BRANCH  18  19
ATOM     19  C   UNL     1       2.038   7.462  19.684  0.00  0.00    +0.000 A 
ATOM     20  C   UNL     1       1.958   8.290  18.545  0.00  0.00    +0.000 A 
ATOM     21  C   UNL     1       1.373   9.559  18.601  0.00  0.00    +0.000 A 
ATOM     22  C   UNL     1       0.811  10.013  19.787  0.00  0.00    +0.000 A 
ATOM     23  C   UNL     1       0.844   9.206  20.920  0.00  0.00    +0.000 A 
ATOM     24  C   UNL     1       1.467   7.957  20.872  0.00  0.00    +0.000 A 
ENDBRANCH  18  19
ENDBRANCH   1  18
BRANCH   3  25
ATOM     25  N   UNL     1       7.138   7.022  17.996  0.00  0.00    +0.000 N 
ATOM     26  H   UNL     1       7.553   7.034  18.946  0.00  0.00    +0.000 HD
BRANCH  25  27
ATOM     27  C   UNL     1       7.185   8.265  17.246  0.00  0.00    +0.000 C 
BRANCH  27  28
ATOM     28  C   UNL     1       8.000   9.339  17.916  0.00  0.00    +0.000 A 
ATOM     29  C   UNL     1       8.799   9.034  19.029  0.00  0.00    +0.000 A 
ATOM     30  C   UNL     1       9.615  10.011  19.601  0.00  0.00    +0.000 A 
ATOM     31  C   UNL     1       9.647  11.296  19.063  0.00  0.00    +0.000 A 
ATOM     32  C   UNL     1       8.870  11.604  17.948  0.00  0.00    +0.000 A 
ATOM     33  C   UNL     1       8.057  10.630  17.372  0.00  0.00    +0.000 A 
ENDBRANCH  27  28
ENDBRANCH  25  27
ENDBRANCH   3  25
TORSDOF 8
ENDMDL
MODEL 8
REMARK VINA RESULT:      -7.2      0.645      1.028
REMARK  Name = 
REMARK  9 active torsions:
REMARK  status: ('A' for Active; 'I' for Inactive)
REMARK    1  A    between atoms: C_1  and  N_2
REMARK    2  A    between atoms: N_2  and  C_3
REMARK    3  A    between atoms: N_2  and  C_9
REMARK    4  A    between atoms: C_11  and  N_12
REMARK    5  A    between atoms: N_12  and  C_13
REMARK    6  A    between atoms: C_13  and  C_14
REMARK    7  A    between atoms: C_20  and  S_21
REMARK    8  A    between atoms: C_26  and  S_27
REMARK    9  A    between atoms: S_27  and  N_28
REMARK                            x       y       z     vdW  Elec       q    Type
REMARK                         _______ _______ _______ _____ _____    ______ ____
ROOT
ATOM      1  C   UNL     1       3.592   5.839  18.798  0.00  0.00    +0.000 A 
ATOM      2  C   UNL     1       4.852   6.514  18.797  0.00  0.00    +0.000 A 
ATOM      3  C   UNL     1       5.961   6.233  17.968  0.00  0.00    +0.000 A 
ATOM      4  C   UNL     1       5.791   5.186  17.075  0.00  0.00    +0.000 A 
ATOM      5  C   UNL     1       4.579   4.487  17.015  0.00  0.00    +0.000 A 
ATOM      6  C   UNL     1       3.491   4.801  17.850  0.00  0.00    +0.000 A 
ENDROOT
BRANCH   4   7
ATOM      7  S   UNL     1       7.101   4.470  16.048  0.00  0.00    +0.000 S 
ATOM      8  O   UNL     1       8.115   4.137  17.035  0.00  0.00    +0.000 OA
ATOM      9  O   UNL     1       6.445   3.359  15.364  0.00  0.00    +0.000 OA
ATOM     10  O   UNL     1       7.403   5.628  15.193  0.00  0.00    +0.000 OA
ENDBRANCH   4   7
BRANCH   6  11
ATOM     11  S   UNL     1       2.100   3.739  17.661  0.00  0.00    +0.000 S 
ATOM     12  O   UNL     1       2.043   3.001  18.917  0.00  0.00    +0.000 OA
ATOM     13  O   UNL     1       0.980   4.451  17.107  0.00  0.00    +0.000 OA
BRANCH  11  14
ATOM     14  N   UNL     1       2.521   2.578  16.548  0.00  0.00    +0.000 NA
ATOM     15  H   UNL     1       2.166   2.721  15.605  0.00  0.00    +0.000 HD
ATOM     16  H   UNL     1       3.508   2.320  16.596  0.00  0.00    +0.000 HD
ENDBRANCH  11  14
ENDBRANCH   6  11
BRANCH   1  18
ATOM     17  C   UNL     1       2.391   5.618  21.012  0.00  0.00    +0.000 C 
ATOM     18  N   UNL     1       2.624   6.301  19.737  0.00  0.00    +0.000 N 
BRANCH  18  19
ATOM     19  C   UNL     1       2.005   7.600  19.715  0.00  0.00    +0.000 A 
ATOM     20  C   UNL     1       1.943   8.394  18.552  0.00  0.00    +0.000 A 
ATOM     21  C   UNL     1       1.363   9.667  18.563  0.00  0.00    +0.000 A 
ATOM     22  C   UNL     1       0.789  10.158  19.728  0.00  0.00    +0.000 A 
ATOM     23  C   UNL     1       0.804   9.385  20.885  0.00  0.00    +0.000 A 
ATOM     24  C   UNL     1       1.422   8.131  20.881  0.00  0.00    +0.000 A 
ENDBRANCH  18  19
ENDBRANCH   1  18
BRANCH   3  25
ATOM     25  N   UNL     1       7.099   7.040  18.017  0.00  0.00    +0.000 N 
ATOM     26  H   UNL     1       7.533   7.059  18.959  0.00  0.00    +0.000 HD
BRANCH  25  27
ATOM     27  C   UNL     1       7.149   8.272  17.250  0.00  0.00    +0.000 C 
BRANCH  27  28
ATOM     28  C   UNL     1       7.959   9.357  17.909  0.00  0.00    +0.000 A 
ATOM     29  C   UNL     1       8.802   9.056  18.990  0.00  0.00    +0.000 A 
ATOM     30  C   UNL     1       9.612  10.045  19.550  0.00  0.00    +0.000 A 
ATOM     31  C   UNL     1       9.595  11.338  19.031  0.00  0.00    +0.000 A 
ATOM     32  C   UNL     1       8.774  11.643  17.946  0.00  0.00    +0.000 A 
ATOM     33  C   UNL     1       7.967  10.656  17.383  0.00  0.00    +0.000 A 
ENDBRANCH  27  28
ENDBRANCH  25  27
ENDBRANCH   3  25
TORSDOF 8
ENDMDL
MODEL 9
REMARK VINA RESULT:      -7.1      3.559      7.152
REMARK  Name = 
REMARK  9 active torsions:
REMARK  status: ('A' for Active; 'I' for Inactive)
REMARK    1  A    between atoms: C_1  and  N_2
REMARK    2  A    between atoms: N_2  and  C_3
REMARK    3  A    between atoms: N_2  and  C_9
REMARK    4  A    between atoms: C_11  and  N_12
REMARK    5  A    between atoms: N_12  and  C_13
REMARK    6  A    between atoms: C_13  and  C_14
REMARK    7  A    between atoms: C_20  and  S_21
REMARK    8  A    between atoms: C_26  and  S_27
REMARK    9  A    between atoms: S_27  and  N_28
REMARK                            x       y       z     vdW  Elec       q    Type
REMARK                         _______ _______ _______ _____ _____    ______ ____
ROOT
ATOM      1  C   UNL     1       5.130   4.631  16.773  0.00  0.00    +0.000 A 
ATOM      2  C   UNL     1       3.904   3.903  16.875  0.00  0.00    +0.000 A 
ATOM      3  C   UNL     1       3.490   3.090  17.955  0.00  0.00    +0.000 A 
ATOM      4  C   UNL     1       4.383   2.999  19.011  0.00  0.00    +0.000 A 
ATOM      5  C   UNL     1       5.598   3.694  18.983  0.00  0.00    +0.000 A 
ATOM      6  C   UNL     1       5.974   4.502  17.894  0.00  0.00    +0.000 A 
ENDROOT
BRANCH   4   7
ATOM      7  S   UNL     1       4.216   1.872  20.421  0.00  0.00    +0.000 S 
ATOM      8  O   UNL     1       5.525   1.970  21.045  0.00  0.00    +0.000 OA
ATOM      9  O   UNL     1       3.080   2.405  21.167  0.00  0.00    +0.000 OA
ATOM     10  O   UNL     1       3.948   0.617  19.702  0.00  0.00    +0.000 OA
ENDBRANCH   4   7
BRANCH   6  11
ATOM     11  S   UNL     1       7.579   5.212  18.037  0.00  0.00    +0.000 S 
ATOM     12  O   UNL     1       8.484   4.107  17.743  0.00  0.00    +0.000 OA
ATOM     13  O   UNL     1       7.639   6.485  17.370  0.00  0.00    +0.000 OA
BRANCH  11  14
ATOM     14  N   UNL     1       7.840   5.508  19.651  0.00  0.00    +0.000 NA
ATOM     15  H   UNL     1       7.388   4.863  20.296  0.00  0.00    +0.000 HD
ATOM     16  H   UNL     1       8.817   5.709  19.866  0.00  0.00    +0.000 HD
ENDBRANCH  11  14
ENDBRANCH   6  11
BRANCH   1  18
ATOM     17  C   UNL     1       5.166   6.834  15.533  0.00  0.00    +0.000 C 
ATOM     18  N   UNL     1       5.328   5.378  15.576  0.00  0.00    +0.000 N 
BRANCH  18  19
ATOM     19  C   UNL     1       5.984   4.886  14.393  0.00  0.00    +0.000 A 
ATOM     20  C   UNL     1       7.263   5.324  13.994  0.00  0.00    +0.000 A 
ATOM     21  C   UNL     1       7.867   4.853  12.823  0.00  0.00    +0.000 A 
ATOM     22  C   UNL     1       7.226   3.896  12.047  0.00  0.00    +0.000 A 
ATOM     23  C   UNL     1       5.977   3.418  12.433  0.00  0.00    +0.000 A 
ATOM     24  C   UNL     1       5.358   3.922  13.580  0.00  0.00    +0.000 A 
ENDBRANCH  18  19
ENDBRANCH   1  18
BRANCH   3  25
ATOM     25  N   UNL     1       2.220   2.511  17.953  0.00  0.00    +0.000 N 
ATOM     26  H   UNL     1       2.087   1.847  17.169  0.00  0.00    +0.000 HD
BRANCH  25  27
ATOM     27  C   UNL     1       1.064   3.296  18.348  0.00  0.00    +0.000 C 
BRANCH  27  28
ATOM     28  C   UNL     1       1.417   4.660  18.878  0.00  0.00    +0.000 A 
ATOM     29  C   UNL     1       1.427   4.905  20.261  0.00  0.00    +0.000 A 
ATOM     30  C   UNL     1       1.831   6.146  20.755  0.00  0.00    +0.000 A 
ATOM     31  C   UNL     1       2.237   7.149  19.877  0.00  0.00    +0.000 A 
ATOM     32  C   UNL     1       2.248   6.910  18.504  0.00  0.00    +0.000 A 
ATOM     33  C   UNL     1       1.848   5.671  18.007  0.00  0.00    +0.000 A 
ENDBRANCH  27  28
ENDBRANCH  25  27
ENDBRANCH   3  25
TORSDOF 8
ENDMDL
