MODEL 1
REMARK VINA RESULT:      -8.1      0.000      0.000
REMARK  Name = 
REMARK  6 active torsions:
REMARK  status: ('A' for Active; 'I' for Inactive)
REMARK    1  A    between atoms: C_2  and  C_3
REMARK    2  A    between atoms: C_3  and  C_4
REMARK    3  A    between atoms: N_10  and  S_11
REMARK    4  A    between atoms: S_11  and  C_14
REMARK    5  A    between atoms: N_21  and  C_22
REMARK    6  A    between atoms: C_22  and  C_23
REMARK                            x       y       z     vdW  Elec       q    Type
REMARK                         _______ _______ _______ _____ _____    ______ ____
ROOT
ATOM      1  C   UNL     1       2.509   6.131  19.503  0.00  0.00    +0.000 C 
ATOM      2  C   UNL     1       1.773   5.410  18.366  0.00  0.00    +0.000 C 
ATOM      3  O   UNL     1       2.715   4.444  17.865  0.00  0.00    +0.000 OA
ATOM      4  C   UNL     1       3.993   4.590  18.555  0.00  0.00    +0.000 C 
ATOM      5  C   UNL     1       3.566   5.083  19.938  0.00  0.00    +0.000 C 
ATOM      6  C   UNL     1       4.913   5.680  17.961  0.00  0.00    +0.000 C 
ATOM      7  N   UNL     1       5.458   4.718  16.976  0.00  0.00    +0.000 NA
ATOM      8  C   UNL     1       5.179   3.651  18.060  0.00  0.00    +0.000 C 
ENDROOT
BRANCH   7   9
ATOM      9  S   UNL     1       6.913   5.220  16.248  0.00  0.00    +0.000 S 
ATOM     10  O   UNL     1       6.923   6.673  16.326  0.00  0.00    +0.000 OA
ATOM     11  O   UNL     1       7.979   4.432  16.769  0.00  0.00    +0.000 OA
BRANCH   9  12
ATOM     12  C   UNL     1       6.791   4.844  14.494  0.00  0.00    +0.000 A 
ATOM     13  C   UNL     1       7.742   5.304  13.563  0.00  0.00    +0.000 A 
ATOM     14  C   UNL     1       7.705   4.818  12.247  0.00  0.00    +0.000 A 
ATOM     15  C   UNL     1       6.750   3.872  11.871  0.00  0.00    +0.000 A 
ATOM     16  C   UNL     1       5.844   3.381  12.812  0.00  0.00    +0.000 A 
ATOM     17  C   UNL     1       5.871   3.864  14.118  0.00  0.00    +0.000 A 
ENDBRANCH   9  12
ENDBRANCH   7   9
BRANCH   1  18
ATOM     18  C   UNL     1       1.597   6.686  20.587  0.00  0.00    +0.000 C 
BRANCH  18  20
ATOM     19  O   UNL     1       1.444   8.899  21.533  0.00  0.00    +0.000 OA
ATOM     20  C   UNL     1       1.482   8.214  20.530  0.00  0.00    +0.000 C 
ATOM     21  N   UNL     1       1.391   8.753  19.275  0.00  0.00    +0.000 N 
ATOM     22  H   UNL     1       1.501   8.119  18.492  0.00  0.00    +0.000 HD
BRANCH  21  23
ATOM     23  C   UNL     1       1.288  10.170  19.007  0.00  0.00    +0.000 C 
BRANCH  23  24
ATOM     24  C   UNL     1      -0.148  10.586  18.826  0.00  0.00    +0.000 A 
ATOM     25  C   UNL     1      -0.941  10.005  17.829  0.00  0.00    +0.000 A 
ATOM     26  C   UNL     1      -2.260  10.416  17.702  0.00  0.00    +0.000 A 
ATOM     27  N   UNL     1      -2.828  11.363  18.478  0.00  0.00    +0.000 NA
ATOM     28  C   UNL     1      -2.045  11.923  19.423  0.00  0.00    +0.000 A 
ATOM     29  C   UNL     1      -0.719  11.577  19.633  0.00  0.00    +0.000 A 
ENDBRANCH  23  24
ENDBRANCH  21  23
ENDBRANCH  18  20
ENDBRANCH   1  18
TORSDOF 6
ENDMDL
MODEL 2
REMARK VINA RESULT:      -8.0      1.216      1.677
REMARK  Name = 
REMARK  6 active torsions:
REMARK  status: ('A' for Active; 'I' for Inactive)
REMARK    1  A    between atoms: C_2  and  C_3
REMARK    2  A    between atoms: C_3  and  C_4
REMARK    3  A    between atoms: N_10  and  S_11
REMARK    4  A    between atoms: S_11  and  C_14
REMARK    5  A    between atoms: N_21  and  C_22
REMARK    6  A    between atoms: C_22  and  C_23
REMARK                            x       y       z     vdW  Elec       q    Type
REMARK                         _______ _______ _______ _____ _____    ______ ____
ROOT
ATOM      1  C   UNL     1       2.624   7.191  18.717  0.00  0.00    +0.000 C 
ATOM      2  C   UNL     1       1.928   6.128  17.858  0.00  0.00    +0.000 C 
ATOM      3  O   UNL     1       2.863   5.035  17.787  0.00  0.00    +0.000 OA
ATOM      4  C   UNL     1       4.104   5.397  18.464  0.00  0.00    +0.000 C 
ATOM      5  C   UNL     1       3.618   6.349  19.557  0.00  0.00    +0.000 C 
ATOM      6  C   UNL     1       5.093   6.199  17.588  0.00  0.00    +0.000 C 
ATOM      7  N   UNL     1       5.659   4.945  17.037  0.00  0.00    +0.000 NA
ATOM      8  C   UNL     1       5.283   4.330  18.405  0.00  0.00    +0.000 C 
ENDROOT
BRANCH   7   9
ATOM      9  S   UNL     1       7.169   5.142  16.275  0.00  0.00    +0.000 S 
ATOM     10  O   UNL     1       7.480   6.562  16.357  0.00  0.00    +0.000 OA
ATOM     11  O   UNL     1       8.061   4.147  16.767  0.00  0.00    +0.000 OA
BRANCH   9  12
ATOM     12  C   UNL     1       6.930   4.813  14.523  0.00  0.00    +0.000 A 
ATOM     13  C   UNL     1       7.797   5.329  13.541  0.00  0.00    +0.000 A 
ATOM     14  C   UNL     1       7.679   4.881  12.217  0.00  0.00    +0.000 A 
ATOM     15  C   UNL     1       6.727   3.917  11.881  0.00  0.00    +0.000 A 
ATOM     16  C   UNL     1       5.907   3.371  12.869  0.00  0.00    +0.000 A 
ATOM     17  C   UNL     1       6.014   3.816  14.184  0.00  0.00    +0.000 A 
ENDBRANCH   9  12
ENDBRANCH   7   9
BRANCH   1  18
ATOM     18  C   UNL     1       1.672   8.103  19.479  0.00  0.00    +0.000 C 
BRANCH  18  20
ATOM     19  O   UNL     1       1.828   9.641  17.628  0.00  0.00    +0.000 OA
ATOM     20  C   UNL     1       1.276   9.343  18.669  0.00  0.00    +0.000 C 
ATOM     21  N   UNL     1       0.282  10.111  19.213  0.00  0.00    +0.000 N 
ATOM     22  H   UNL     1      -0.172   9.755  20.046  0.00  0.00    +0.000 HD
BRANCH  21  23
ATOM     23  C   UNL     1      -0.241  11.312  18.601  0.00  0.00    +0.000 C 
BRANCH  23  24
ATOM     24  C   UNL     1      -1.672  11.122  18.168  0.00  0.00    +0.000 A 
ATOM     25  C   UNL     1      -2.712  11.790  18.825  0.00  0.00    +0.000 A 
ATOM     26  C   UNL     1      -4.013  11.589  18.390  0.00  0.00    +0.000 A 
ATOM     27  N   UNL     1      -4.345  10.766  17.371  0.00  0.00    +0.000 NA
ATOM     28  C   UNL     1      -3.331  10.118  16.761  0.00  0.00    +0.000 A 
ATOM     29  C   UNL     1      -1.998  10.257  17.117  0.00  0.00    +0.000 A 
ENDBRANCH  23  24
ENDBRANCH  21  23
ENDBRANCH  18  20
ENDBRANCH   1  18
TORSDOF 6
ENDMDL
MODEL 3
REMARK VINA RESULT:      -8.0      1.097      1.566
REMARK  Name = 
REMARK  6 active torsions:
REMARK  status: ('A' for Active; 'I' for Inactive)
REMARK    1  A    between atoms: C_2  and  C_3
REMARK    2  A    between atoms: C_3  and  C_4
REMARK    3  A    between atoms: N_10  and  S_11
REMARK    4  A    between atoms: S_11  and  C_14
REMARK    5  A    between atoms: N_21  and  C_22
REMARK    6  A    between atoms: C_22  and  C_23
REMARK                            x       y       z     vdW  Elec       q    Type
REMARK                         _______ _______ _______ _____ _____    ______ ____
ROOT
ATOM      1  C   UNL     1       2.642   6.941  18.951  0.00  0.00    +0.000 C 
ATOM      2  C   UNL     1       1.960   5.939  18.010  0.00  0.00    +0.000 C 
ATOM      3  O   UNL     1       2.894   4.851  17.882  0.00  0.00    +0.000 OA
ATOM      4  C   UNL     1       4.124   5.164  18.603  0.00  0.00    +0.000 C 
ATOM      5  C   UNL     1       3.620   6.041  19.750  0.00  0.00    +0.000 C 
ATOM      6  C   UNL     1       5.129   6.021  17.801  0.00  0.00    +0.000 C 
ATOM      7  N   UNL     1       5.703   4.806  17.177  0.00  0.00    +0.000 NA
ATOM      8  C   UNL     1       5.302   4.100  18.494  0.00  0.00    +0.000 C 
ENDROOT
BRANCH   7   9
ATOM      9  S   UNL     1       7.227   5.050  16.457  0.00  0.00    +0.000 S 
ATOM     10  O   UNL     1       7.434   6.490  16.428  0.00  0.00    +0.000 OA
ATOM     11  O   UNL     1       8.165   4.167  17.064  0.00  0.00    +0.000 OA
BRANCH   9  12
ATOM     12  C   UNL     1       7.087   4.560  14.732  0.00  0.00    +0.000 A 
ATOM     13  C   UNL     1       6.087   3.675  14.285  0.00  0.00    +0.000 A 
ATOM     14  C   UNL     1       5.905   3.484  12.907  0.00  0.00    +0.000 A 
ATOM     15  C   UNL     1       6.691   4.183  11.988  0.00  0.00    +0.000 A 
ATOM     16  C   UNL     1       7.643   5.098  12.438  0.00  0.00    +0.000 A 
ATOM     17  C   UNL     1       7.834   5.287  13.804  0.00  0.00    +0.000 A 
ENDBRANCH   9  12
ENDBRANCH   7   9
BRANCH   1  18
ATOM     18  C   UNL     1       1.678   7.801  19.755  0.00  0.00    +0.000 C 
BRANCH  18  20
ATOM     19  O   UNL     1       2.054   9.574  18.164  0.00  0.00    +0.000 OA
ATOM     20  C   UNL     1       1.363   9.133  19.062  0.00  0.00    +0.000 C 
ATOM     21  N   UNL     1       0.273   9.806  19.542  0.00  0.00    +0.000 N 
ATOM     22  H   UNL     1      -0.287   9.335  20.243  0.00  0.00    +0.000 HD
BRANCH  21  23
ATOM     23  C   UNL     1      -0.195  11.070  19.018  0.00  0.00    +0.000 C 
BRANCH  23  24
ATOM     24  C   UNL     1      -1.563  10.929  18.402  0.00  0.00    +0.000 A 
ATOM     25  C   UNL     1      -1.802   9.980  17.401  0.00  0.00    +0.000 A 
ATOM     26  C   UNL     1      -3.078   9.883  16.866  0.00  0.00    +0.000 A 
ATOM     27  N   UNL     1      -4.110  10.667  17.241  0.00  0.00    +0.000 NA
ATOM     28  C   UNL     1      -3.857  11.587  18.196  0.00  0.00    +0.000 A 
ATOM     29  C   UNL     1      -2.620  11.758  18.796  0.00  0.00    +0.000 A 
ENDBRANCH  23  24
ENDBRANCH  21  23
ENDBRANCH  18  20
ENDBRANCH   1  18
TORSDOF 6
ENDMDL
MODEL 4
REMARK VINA RESULT:      -7.9      3.840     11.162
REMARK  Name = 
REMARK  6 active torsions:
REMARK  status: ('A' for Active; 'I' for Inactive)
REMARK    1  A    between atoms: C_2  and  C_3
REMARK    2  A    between atoms: C_3  and  C_4
REMARK    3  A    between atoms: N_10  and  S_11
REMARK    4  A    between atoms: S_11  and  C_14
REMARK    5  A    between atoms: N_21  and  C_22
REMARK    6  A    between atoms: C_22  and  C_23
REMARK                            x       y       z     vdW  Elec       q    Type
REMARK                         _______ _______ _______ _____ _____    ______ ____
ROOT
ATOM      1  C   UNL     1       1.157   9.553  18.546  0.00  0.00    +0.000 C 
ATOM      2  C   UNL     1      -0.222   9.700  17.891  0.00  0.00    +0.000 C 
ATOM      3  O   UNL     1      -0.756  10.930  18.416  0.00  0.00    +0.000 OA
ATOM      4  C   UNL     1       0.161  11.488  19.405  0.00  0.00    +0.000 C 
ATOM      5  C   UNL     1       1.523  11.019  18.894  0.00  0.00    +0.000 C 
ATOM      6  C   UNL     1      -0.005  10.901  20.824  0.00  0.00    +0.000 C 
ATOM      7  N   UNL     1      -1.071  11.883  21.132  0.00  0.00    +0.000 NA
ATOM      8  C   UNL     1      -0.318  12.810  20.150  0.00  0.00    +0.000 C 
ENDROOT
BRANCH   7   9
ATOM      9  S   UNL     1      -1.403  12.046  22.794  0.00  0.00    +0.000 S 
ATOM     10  O   UNL     1      -1.370  10.701  23.347  0.00  0.00    +0.000 OA
ATOM     11  O   UNL     1      -0.595  13.095  23.320  0.00  0.00    +0.000 OA
BRANCH   9  12
ATOM     12  C   UNL     1      -3.115  12.576  22.947  0.00  0.00    +0.000 A 
ATOM     13  C   UNL     1      -3.907  12.877  21.823  0.00  0.00    +0.000 A 
ATOM     14  C   UNL     1      -5.283  13.093  21.990  0.00  0.00    +0.000 A 
ATOM     15  C   UNL     1      -5.865  12.987  23.255  0.00  0.00    +0.000 A 
ATOM     16  C   UNL     1      -5.083  12.636  24.356  0.00  0.00    +0.000 A 
ATOM     17  C   UNL     1      -3.715  12.427  24.198  0.00  0.00    +0.000 A 
ENDBRANCH   9  12
ENDBRANCH   7   9
BRANCH   1  18
ATOM     18  C   UNL     1       2.162   8.765  17.719  0.00  0.00    +0.000 C 
BRANCH  18  20
ATOM     19  O   UNL     1       2.350   7.239  19.577  0.00  0.00    +0.000 OA
ATOM     20  C   UNL     1       2.599   7.467  18.410  0.00  0.00    +0.000 C 
ATOM     21  N   UNL     1       3.316   6.597  17.634  0.00  0.00    +0.000 N 
ATOM     22  H   UNL     1       3.419   6.832  16.653  0.00  0.00    +0.000 HD
BRANCH  21  23
ATOM     23  C   UNL     1       3.808   5.318  18.093  0.00  0.00    +0.000 C 
BRANCH  23  24
ATOM     24  C   UNL     1       5.177   5.029  17.532  0.00  0.00    +0.000 A 
ATOM     25  C   UNL     1       5.342   4.704  16.181  0.00  0.00    +0.000 A 
ATOM     26  C   UNL     1       6.621   4.450  15.708  0.00  0.00    +0.000 A 
ATOM     27  N   UNL     1       7.726   4.480  16.482  0.00  0.00    +0.000 NA
ATOM     28  C   UNL     1       7.546   4.780  17.785  0.00  0.00    +0.000 A 
ATOM     29  C   UNL     1       6.311   5.055  18.352  0.00  0.00    +0.000 A 
ENDBRANCH  23  24
ENDBRANCH  21  23
ENDBRANCH  18  20
ENDBRANCH   1  18
TORSDOF 6
ENDMDL
MODEL 5
REMARK VINA RESULT:      -7.7      0.717      1.198
REMARK  Name = 
REMARK  6 active torsions:
REMARK  status: ('A' for Active; 'I' for Inactive)
REMARK    1  A    between atoms: C_2  and  C_3
REMARK    2  A    between atoms: C_3  and  C_4
REMARK    3  A    between atoms: N_10  and  S_11
REMARK    4  A    between atoms: S_11  and  C_14
REMARK    5  A    between atoms: N_21  and  C_22
REMARK    6  A    between atoms: C_22  and  C_23
REMARK                            x       y       z     vdW  Elec       q    Type
REMARK                         _______ _______ _______ _____ _____    ______ ____
ROOT
ATOM      1  C   UNL     1       2.300   5.904  19.550  0.00  0.00    +0.000 C 
ATOM      2  C   UNL     1       1.782   4.663  18.811  0.00  0.00    +0.000 C 
ATOM      3  O   UNL     1       2.960   4.025  18.282  0.00  0.00    +0.000 OA
ATOM      4  C   UNL     1       4.138   4.836  18.572  0.00  0.00    +0.000 C 
ATOM      5  C   UNL     1       3.760   5.507  19.893  0.00  0.00    +0.000 C 
ATOM      6  C   UNL     1       4.392   5.972  17.556  0.00  0.00    +0.000 C 
ATOM      7  N   UNL     1       5.140   5.048  16.673  0.00  0.00    +0.000 NA
ATOM      8  C   UNL     1       5.521   4.317  17.981  0.00  0.00    +0.000 C 
ENDROOT
BRANCH   7   9
ATOM      9  S   UNL     1       6.102   5.831  15.506  0.00  0.00    +0.000 S 
ATOM     10  O   UNL     1       5.300   6.931  14.993  0.00  0.00    +0.000 OA
ATOM     11  O   UNL     1       7.402   6.037  16.052  0.00  0.00    +0.000 OA
BRANCH   9  12
ATOM     12  C   UNL     1       6.289   4.699  14.121  0.00  0.00    +0.000 A 
ATOM     13  C   UNL     1       5.263   3.817  13.733  0.00  0.00    +0.000 A 
ATOM     14  C   UNL     1       5.389   3.102  12.532  0.00  0.00    +0.000 A 
ATOM     15  C   UNL     1       6.509   3.281  11.720  0.00  0.00    +0.000 A 
ATOM     16  C   UNL     1       7.498   4.196  12.084  0.00  0.00    +0.000 A 
ATOM     17  C   UNL     1       7.382   4.904  13.278  0.00  0.00    +0.000 A 
ENDBRANCH   9  12
ENDBRANCH   7   9
BRANCH   1  18
ATOM     18  C   UNL     1       1.417   6.359  20.703  0.00  0.00    +0.000 C 
BRANCH  18  20
ATOM     19  O   UNL     1       1.416   8.458  21.891  0.00  0.00    +0.000 OA
ATOM     20  C   UNL     1       1.349   7.887  20.820  0.00  0.00    +0.000 C 
ATOM     21  N   UNL     1       1.176   8.563  19.643  0.00  0.00    +0.000 N 
ATOM     22  H   UNL     1       1.201   8.016  18.790  0.00  0.00    +0.000 HD
BRANCH  21  23
ATOM     23  C   UNL     1       1.100  10.003  19.538  0.00  0.00    +0.000 C 
BRANCH  23  24
ATOM     24  C   UNL     1      -0.236  10.438  18.995  0.00  0.00    +0.000 A 
ATOM     25  C   UNL     1      -0.737   9.892  17.807  0.00  0.00    +0.000 A 
ATOM     26  C   UNL     1      -1.974  10.319  17.347  0.00  0.00    +0.000 A 
ATOM     27  N   UNL     1      -2.725  11.251  17.971  0.00  0.00    +0.000 NA
ATOM     28  C   UNL     1      -2.219  11.778  19.106  0.00  0.00    +0.000 A 
ATOM     29  C   UNL     1      -0.997  11.413  19.649  0.00  0.00    +0.000 A 
ENDBRANCH  23  24
ENDBRANCH  21  23
ENDBRANCH  18  20
ENDBRANCH   1  18
TORSDOF 6
ENDMDL
MODEL 6
REMARK VINA RESULT:      -7.4      2.234      2.755
REMARK  Name = 
REMARK  6 active torsions:
REMARK  status: ('A' for Active; 'I' for Inactive)
REMARK    1  A    between atoms: C_2  and  C_3
REMARK    2  A    between atoms: C_3  and  C_4
REMARK    3  A    between atoms: N_10  and  S_11
REMARK    4  A    between atoms: S_11  and  C_14
REMARK    5  A    between atoms: N_21  and  C_22
REMARK    6  A    between atoms: C_22  and  C_23
REMARK                            x       y       z     vdW  Elec       q    Type
REMARK                         _______ _______ _______ _____ _____    ______ ____
ROOT
ATOM      1  C   UNL     1       2.611   7.105  18.853  0.00  0.00    +0.000 C 
ATOM      2  C   UNL     1       1.921   6.049  17.980  0.00  0.00    +0.000 C 
ATOM      3  O   UNL     1       2.867   4.967  17.888  0.00  0.00    +0.000 OA
ATOM      4  C   UNL     1       4.107   5.330  18.565  0.00  0.00    +0.000 C 
ATOM      5  C   UNL     1       3.617   6.259  19.675  0.00  0.00    +0.000 C 
ATOM      6  C   UNL     1       5.084   6.155  17.697  0.00  0.00    +0.000 C 
ATOM      7  N   UNL     1       5.660   4.916  17.124  0.00  0.00    +0.000 NA
ATOM      8  C   UNL     1       5.296   4.275  18.484  0.00  0.00    +0.000 C 
ENDROOT
BRANCH   7   9
ATOM      9  S   UNL     1       7.165   5.140  16.359  0.00  0.00    +0.000 S 
ATOM     10  O   UNL     1       7.465   6.560  16.466  0.00  0.00    +0.000 OA
ATOM     11  O   UNL     1       8.067   4.143  16.829  0.00  0.00    +0.000 OA
BRANCH   9  12
ATOM     12  C   UNL     1       6.921   4.841  14.603  0.00  0.00    +0.000 A 
ATOM     13  C   UNL     1       7.792   5.363  13.628  0.00  0.00    +0.000 A 
ATOM     14  C   UNL     1       7.667   4.937  12.297  0.00  0.00    +0.000 A 
ATOM     15  C   UNL     1       6.705   3.988  11.947  0.00  0.00    +0.000 A 
ATOM     16  C   UNL     1       5.881   3.435  12.928  0.00  0.00    +0.000 A 
ATOM     17  C   UNL     1       5.994   3.858  14.250  0.00  0.00    +0.000 A 
ENDBRANCH   9  12
ENDBRANCH   7   9
BRANCH   1  18
ATOM     18  C   UNL     1       1.654   7.995  19.633  0.00  0.00    +0.000 C 
BRANCH  18  20
ATOM     19  O   UNL     1       1.182   9.282  17.649  0.00  0.00    +0.000 OA
ATOM     20  C   UNL     1       1.274   9.265  18.860  0.00  0.00    +0.000 C 
ATOM     21  N   UNL     1       1.076  10.384  19.623  0.00  0.00    +0.000 N 
ATOM     22  H   UNL     1       1.103  10.266  20.630  0.00  0.00    +0.000 HD
BRANCH  21  23
ATOM     23  C   UNL     1       0.702  11.674  19.089  0.00  0.00    +0.000 C 
BRANCH  23  24
ATOM     24  C   UNL     1       1.791  12.691  19.309  0.00  0.00    +0.000 A 
ATOM     25  C   UNL     1       2.518  13.205  18.229  0.00  0.00    +0.000 A 
ATOM     26  C   UNL     1       3.509  14.143  18.479  0.00  0.00    +0.000 A 
ATOM     27  N   UNL     1       3.831  14.583  19.714  0.00  0.00    +0.000 NA
ATOM     28  C   UNL     1       3.130  14.064  20.744  0.00  0.00    +0.000 A 
ATOM     29  C   UNL     1       2.118  13.128  20.598  0.00  0.00    +0.000 A 
ENDBRANCH  23  24
ENDBRANCH  21  23
ENDBRANCH  18  20
ENDBRANCH   1  18
TORSDOF 6
ENDMDL
MODEL 7
REMARK VINA RESULT:      -7.4      4.351     11.011
REMARK  Name = 
REMARK  6 active torsions:
REMARK  status: ('A' for Active; 'I' for Inactive)
REMARK    1  A    between atoms: C_2  and  C_3
REMARK    2  A    between atoms: C_3  and  C_4
REMARK    3  A    between atoms: N_10  and  S_11
REMARK    4  A    between atoms: S_11  and  C_14
REMARK    5  A    between atoms: N_21  and  C_22
REMARK    6  A    between atoms: C_22  and  C_23
REMARK                            x       y       z     vdW  Elec       q    Type
REMARK                         _______ _______ _______ _____ _____    ______ ____
ROOT
ATOM      1  C   UNL     1       0.827   9.760  18.553  0.00  0.00    +0.000 C 
ATOM      2  C   UNL     1      -0.573   9.941  17.955  0.00  0.00    +0.000 C 
ATOM      3  O   UNL     1      -1.035  11.207  18.463  0.00  0.00    +0.000 OA
ATOM      4  C   UNL     1      -0.054  11.758  19.393  0.00  0.00    +0.000 C 
ATOM      5  C   UNL     1       1.265  11.220  18.837  0.00  0.00    +0.000 C 
ATOM      6  C   UNL     1      -0.178  11.221  20.836  0.00  0.00    +0.000 C 
ATOM      7  N   UNL     1      -1.191  12.252  21.159  0.00  0.00    +0.000 NA
ATOM      8  C   UNL     1      -0.448  13.120  20.116  0.00  0.00    +0.000 C 
ENDROOT
BRANCH   7   9
ATOM      9  S   UNL     1      -1.441  12.479  22.828  0.00  0.00    +0.000 S 
ATOM     10  O   UNL     1      -1.223  11.181  23.449  0.00  0.00    +0.000 OA
ATOM     11  O   UNL     1      -0.729  13.641  23.242  0.00  0.00    +0.000 OA
BRANCH   9  12
ATOM     12  C   UNL     1      -3.190  12.825  23.063  0.00  0.00    +0.000 A 
ATOM     13  C   UNL     1      -4.033  13.176  21.992  0.00  0.00    +0.000 A 
ATOM     14  C   UNL     1      -5.419  13.241  22.201  0.00  0.00    +0.000 A 
ATOM     15  C   UNL     1      -5.958  12.938  23.453  0.00  0.00    +0.000 A 
ATOM     16  C   UNL     1      -5.121  12.540  24.496  0.00  0.00    +0.000 A 
ATOM     17  C   UNL     1      -3.745  12.479  24.297  0.00  0.00    +0.000 A 
ENDBRANCH   9  12
ENDBRANCH   7   9
BRANCH   1  18
ATOM     18  C   UNL     1       1.764   8.908  17.708  0.00  0.00    +0.000 C 
BRANCH  18  20
ATOM     19  O   UNL     1       2.271   7.680  19.720  0.00  0.00    +0.000 OA
ATOM     20  C   UNL     1       2.453   7.809  18.526  0.00  0.00    +0.000 C 
ATOM     21  N   UNL     1       3.312   7.004  17.828  0.00  0.00    +0.000 N 
ATOM     22  H   UNL     1       3.353   7.135  16.824  0.00  0.00    +0.000 HD
BRANCH  21  23
ATOM     23  C   UNL     1       4.049   5.906  18.412  0.00  0.00    +0.000 C 
BRANCH  23  24
ATOM     24  C   UNL     1       3.315   4.603  18.234  0.00  0.00    +0.000 A 
ATOM     25  C   UNL     1       4.008   3.430  17.910  0.00  0.00    +0.000 A 
ATOM     26  C   UNL     1       3.291   2.252  17.760  0.00  0.00    +0.000 A 
ATOM     27  N   UNL     1       1.950   2.168  17.892  0.00  0.00    +0.000 NA
ATOM     28  C   UNL     1       1.297   3.311  18.188  0.00  0.00    +0.000 A 
ATOM     29  C   UNL     1       1.923   4.536  18.364  0.00  0.00    +0.000 A 
ENDBRANCH  23  24
ENDBRANCH  21  23
ENDBRANCH  18  20
ENDBRANCH   1  18
TORSDOF 6
ENDMDL
MODEL 8
REMARK VINA RESULT:      -7.4      4.349     10.944
REMARK  Name = 
REMARK  6 active torsions:
REMARK  status: ('A' for Active; 'I' for Inactive)
REMARK    1  A    between atoms: C_2  and  C_3
REMARK    2  A    between atoms: C_3  and  C_4
REMARK    3  A    between atoms: N_10  and  S_11
REMARK    4  A    between atoms: S_11  and  C_14
REMARK    5  A    between atoms: N_21  and  C_22
REMARK    6  A    between atoms: C_22  and  C_23
REMARK                            x       y       z     vdW  Elec       q    Type
REMARK                         _______ _______ _______ _____ _____    ______ ____
ROOT
ATOM      1  C   UNL     1       0.878   9.521  18.521  0.00  0.00    +0.000 C 
ATOM      2  C   UNL     1      -0.432   9.949  17.848  0.00  0.00    +0.000 C 
ATOM      3  O   UNL     1      -0.754  11.224  18.434  0.00  0.00    +0.000 OA
ATOM      4  C   UNL     1       0.216  11.552  19.474  0.00  0.00    +0.000 C 
ATOM      5  C   UNL     1       1.489  10.876  18.964  0.00  0.00    +0.000 C 
ATOM      6  C   UNL     1      -0.095  10.927  20.852  0.00  0.00    +0.000 C 
ATOM      7  N   UNL     1      -0.978  12.065  21.196  0.00  0.00    +0.000 NA
ATOM      8  C   UNL     1      -0.042  12.896  20.287  0.00  0.00    +0.000 C 
ENDROOT
BRANCH   7   9
ATOM      9  S   UNL     1      -1.328  12.194  22.858  0.00  0.00    +0.000 S 
ATOM     10  O   UNL     1      -1.028  10.892  23.435  0.00  0.00    +0.000 OA
ATOM     11  O   UNL     1      -0.740  13.391  23.356  0.00  0.00    +0.000 OA
BRANCH   9  12
ATOM     12  C   UNL     1      -3.110  12.379  23.016  0.00  0.00    +0.000 A 
ATOM     13  C   UNL     1      -3.748  12.426  24.270  0.00  0.00    +0.000 A 
ATOM     14  C   UNL     1      -5.107  12.768  24.336  0.00  0.00    +0.000 A 
ATOM     15  C   UNL     1      -5.813  13.081  23.174  0.00  0.00    +0.000 A 
ATOM     16  C   UNL     1      -5.161  13.084  21.940  0.00  0.00    +0.000 A 
ATOM     17  C   UNL     1      -3.814  12.739  21.866  0.00  0.00    +0.000 A 
ENDBRANCH   9  12
ENDBRANCH   7   9
BRANCH   1  18
ATOM     18  C   UNL     1       1.753   8.612  17.669  0.00  0.00    +0.000 C 
BRANCH  18  20
ATOM     19  O   UNL     1       2.355   7.463  19.702  0.00  0.00    +0.000 OA
ATOM     20  C   UNL     1       2.552   7.611  18.512  0.00  0.00    +0.000 C 
ATOM     21  N   UNL     1       3.525   6.918  17.843  0.00  0.00    +0.000 N 
ATOM     22  H   UNL     1       3.576   7.051  16.839  0.00  0.00    +0.000 HD
BRANCH  21  23
ATOM     23  C   UNL     1       4.378   5.923  18.453  0.00  0.00    +0.000 C 
BRANCH  23  24
ATOM     24  C   UNL     1       3.709   4.574  18.475  0.00  0.00    +0.000 A 
ATOM     25  C   UNL     1       3.830   3.734  19.589  0.00  0.00    +0.000 A 
ATOM     26  C   UNL     1       3.194   2.502  19.568  0.00  0.00    +0.000 A 
ATOM     27  N   UNL     1       2.470   2.050  18.522  0.00  0.00    +0.000 NA
ATOM     28  C   UNL     1       2.378   2.866  17.450  0.00  0.00    +0.000 A 
ATOM     29  C   UNL     1       2.972   4.116  17.378  0.00  0.00    +0.000 A 
ENDBRANCH  23  24
ENDBRANCH  21  23
ENDBRANCH  18  20
ENDBRANCH   1  18
TORSDOF 6
ENDMDL
MODEL 9
REMARK VINA RESULT:      -7.4      1.458      1.851
REMARK  Name = 
REMARK  6 active torsions:
REMARK  status: ('A' for Active; 'I' for Inactive)
REMARK    1  A    between atoms: C_2  and  C_3
REMARK    2  A    between atoms: C_3  and  C_4
REMARK    3  A    between atoms: N_10  and  S_11
REMARK    4  A    between atoms: S_11  and  C_14
REMARK    5  A    between atoms: N_21  and  C_22
REMARK    6  A    between atoms: C_22  and  C_23
REMARK                            x       y       z     vdW  Elec       q    Type
REMARK                         _______ _______ _______ _____ _____    ______ ____
ROOT
ATOM      1  C   UNL     1       2.628   6.883  19.052  0.00  0.00    +0.000 C 
ATOM      2  C   UNL     1       1.923   5.909  18.098  0.00  0.00    +0.000 C 
ATOM      3  O   UNL     1       2.864   4.839  17.895  0.00  0.00    +0.000 OA
ATOM      4  C   UNL     1       4.116   5.139  18.583  0.00  0.00    +0.000 C 
ATOM      5  C   UNL     1       3.645   5.965  19.779  0.00  0.00    +0.000 C 
ATOM      6  C   UNL     1       5.082   6.037  17.778  0.00  0.00    +0.000 C 
ATOM      7  N   UNL     1       5.646   4.855  17.087  0.00  0.00    +0.000 NA
ATOM      8  C   UNL     1       5.301   4.094  18.389  0.00  0.00    +0.000 C 
ENDROOT
BRANCH   7   9
ATOM      9  S   UNL     1       7.139   5.145  16.323  0.00  0.00    +0.000 S 
ATOM     10  O   UNL     1       7.377   6.576  16.432  0.00  0.00    +0.000 OA
ATOM     11  O   UNL     1       8.084   4.187  16.791  0.00  0.00    +0.000 OA
BRANCH   9  12
ATOM     12  C   UNL     1       6.909   4.839  14.566  0.00  0.00    +0.000 A 
ATOM     13  C   UNL     1       7.799   5.339  13.597  0.00  0.00    +0.000 A 
ATOM     14  C   UNL     1       7.681   4.906  12.267  0.00  0.00    +0.000 A 
ATOM     15  C   UNL     1       6.706   3.972  11.914  0.00  0.00    +0.000 A 
ATOM     16  C   UNL     1       5.862   3.441  12.889  0.00  0.00    +0.000 A 
ATOM     17  C   UNL     1       5.968   3.870  14.209  0.00  0.00    +0.000 A 
ENDBRANCH   9  12
ENDBRANCH   7   9
BRANCH   1  18
ATOM     18  C   UNL     1       1.685   7.700  19.923  0.00  0.00    +0.000 C 
BRANCH  18  20
ATOM     19  O   UNL     1       2.082   9.595  18.487  0.00  0.00    +0.000 OA
ATOM     20  C   UNL     1       1.362   9.069  19.312  0.00  0.00    +0.000 C 
ATOM     21  N   UNL     1       0.227   9.673  19.782  0.00  0.00    +0.000 N 
ATOM     22  H   UNL     1      -0.352   9.135  20.417  0.00  0.00    +0.000 HD
BRANCH  21  23
ATOM     23  C   UNL     1      -0.256  10.957  19.327  0.00  0.00    +0.000 C 
BRANCH  23  24
ATOM     24  C   UNL     1      -0.953  11.700  20.436  0.00  0.00    +0.000 A 
ATOM     25  C   UNL     1      -2.142  12.398  20.192  0.00  0.00    +0.000 A 
ATOM     26  C   UNL     1      -2.751  13.065  21.245  0.00  0.00    +0.000 A 
ATOM     27  N   UNL     1      -2.255  13.097  22.500  0.00  0.00    +0.000 NA
ATOM     28  C   UNL     1      -1.100  12.432  22.713  0.00  0.00    +0.000 A 
ATOM     29  C   UNL     1      -0.419  11.732  21.729  0.00  0.00    +0.000 A 
ENDBRANCH  23  24
ENDBRANCH  21  23
ENDBRANCH  18  20
ENDBRANCH   1  18
TORSDOF 6
ENDMDL
