MODEL 1
REMARK VINA RESULT:      -8.7      0.000      0.000
REMARK  Name = 
REMARK  6 active torsions:
REMARK  status: ('A' for Active; 'I' for Inactive)
REMARK    1  A    between atoms: C_2  and  C_3
REMARK    2  A    between atoms: C_4  and  C_5
REMARK    3  A    between atoms: N_13  and  C_14
REMARK    4  A    between atoms: C_17  and  C_18
REMARK    5  A    between atoms: C_18  and  N_19
REMARK    6  A    between atoms: C_22  and  C_23
REMARK                            x       y       z     vdW  Elec       q    Type
REMARK                         _______ _______ _______ _____ _____    ______ ____
ROOT
ATOM      1  C   UNL     1       0.228  11.200  19.656  0.00  0.00    +0.000 C 
ATOM      2  C   UNL     1      -0.660  12.120  18.829  0.00  0.00    +0.000 C 
ATOM      3  C   UNL     1      -1.236  13.069  19.870  0.00  0.00    +0.000 C 
ATOM      4  C   UNL     1      -1.438  12.212  21.130  0.00  0.00    +0.000 C 
ATOM      5  C   UNL     1      -0.636  10.917  20.883  0.00  0.00    +0.000 C 
ENDROOT
BRANCH   1   8
ATOM      6  O   UNL     1       2.456  10.855  17.908  0.00  0.00    +0.000 OA
ATOM      7  C   UNL     1       1.718   9.913  18.164  0.00  0.00    +0.000 C 
ATOM      8  N   UNL     1       0.588   9.992  18.945  0.00  0.00    +0.000 N 
ATOM      9  H   UNL     1       0.103   9.141  19.195  0.00  0.00    +0.000 HD
BRANCH   7  10
ATOM     10  C   UNL     1       1.968   8.533  17.671  0.00  0.00    +0.000 C 
ATOM     11  C   UNL     1       2.715   7.674  18.384  0.00  0.00    +0.000 C 
BRANCH  11  12
ATOM     12  C   UNL     1       2.938   6.271  17.993  0.00  0.00    +0.000 A 
ATOM     13  C   UNL     1       4.125   5.832  17.391  0.00  0.00    +0.000 A 
ATOM     14  C   UNL     1       4.270   4.499  17.012  0.00  0.00    +0.000 A 
ATOM     15  F   UNL     1       5.402   4.109  16.413  0.00  0.00    +0.000 F 
ATOM     16  C   UNL     1       3.264   3.573  17.238  0.00  0.00    +0.000 A 
ATOM     17  C   UNL     1       2.102   3.998  17.865  0.00  0.00    +0.000 A 
ATOM     18  F   UNL     1       1.121   3.118  18.096  0.00  0.00    +0.000 F 
ATOM     19  C   UNL     1       1.932   5.330  18.247  0.00  0.00    +0.000 A 
ENDBRANCH  11  12
ENDBRANCH   7  10
ENDBRANCH   1   8
BRANCH   4  20
ATOM     20  C   UNL     1      -0.983  12.926  22.416  0.00  0.00    +0.000 C 
BRANCH  20  21
ATOM     21  N   UNL     1      -2.069  13.334  23.340  0.00  0.00    +0.000 NA
ATOM     22  C   UNL     1      -2.853  14.442  22.775  0.00  0.00    +0.000 C 
ATOM     23  C   UNL     1      -4.172  14.734  23.505  0.00  0.00    +0.000 C 
ATOM     24  C   UNL     1      -5.045  13.483  23.695  0.00  0.00    +0.000 C 
ATOM     25  C   UNL     1      -4.165  12.452  24.423  0.00  0.00    +0.000 C 
ATOM     26  C   UNL     1      -2.891  12.145  23.636  0.00  0.00    +0.000 C 
BRANCH  24  27
ATOM     27  C   UNL     1      -5.737  12.929  22.446  0.00  0.00    +0.000 A 
ATOM     28  C   UNL     1      -7.043  12.403  22.457  0.00  0.00    +0.000 A 
ATOM     29  C   UNL     1      -7.648  11.916  21.293  0.00  0.00    +0.000 A 
ATOM     30  C   UNL     1      -6.939  11.912  20.102  0.00  0.00    +0.000 A 
ATOM     31  F   UNL     1      -7.520  11.437  18.992  0.00  0.00    +0.000 F 
ATOM     32  C   UNL     1      -5.637  12.385  20.070  0.00  0.00    +0.000 A 
ATOM     33  F   UNL     1      -4.940  12.360  18.924  0.00  0.00    +0.000 F 
ATOM     34  C   UNL     1      -5.035  12.887  21.225  0.00  0.00    +0.000 A 
ENDBRANCH  24  27
ENDBRANCH  20  21
ENDBRANCH   4  20
TORSDOF 6
ENDMDL
MODEL 2
REMARK VINA RESULT:      -8.6      1.363      1.422
REMARK  Name = 
REMARK  6 active torsions:
REMARK  status: ('A' for Active; 'I' for Inactive)
REMARK    1  A    between atoms: C_2  and  C_3
REMARK    2  A    between atoms: C_4  and  C_5
REMARK    3  A    between atoms: N_13  and  C_14
REMARK    4  A    between atoms: C_17  and  C_18
REMARK    5  A    between atoms: C_18  and  N_19
REMARK    6  A    between atoms: C_22  and  C_23
REMARK                            x       y       z     vdW  Elec       q    Type
REMARK                         _______ _______ _______ _____ _____    ______ ____
ROOT
ATOM      1  C   UNL     1       0.563  10.453  19.689  0.00  0.00    +0.000 C 
ATOM      2  C   UNL     1      -0.442  10.978  18.672  0.00  0.00    +0.000 C 
ATOM      3  C   UNL     1      -1.129  12.111  19.421  0.00  0.00    +0.000 C 
ATOM      4  C   UNL     1      -1.210  11.639  20.882  0.00  0.00    +0.000 C 
ATOM      5  C   UNL     1      -0.249  10.436  20.983  0.00  0.00    +0.000 C 
ENDROOT
BRANCH   1   8
ATOM      6  O   UNL     1       2.207   9.808  17.449  0.00  0.00    +0.000 OA
ATOM      7  C   UNL     1       1.904   8.947  18.263  0.00  0.00    +0.000 C 
ATOM      8  N   UNL     1       1.070   9.143  19.340  0.00  0.00    +0.000 N 
ATOM      9  H   UNL     1       0.967   8.405  20.023  0.00  0.00    +0.000 HD
BRANCH   7  10
ATOM     10  C   UNL     1       2.427   7.556  18.202  0.00  0.00    +0.000 C 
ATOM     11  C   UNL     1       2.388   6.759  19.282  0.00  0.00    +0.000 C 
BRANCH  11  12
ATOM     12  C   UNL     1       2.817   5.350  19.270  0.00  0.00    +0.000 A 
ATOM     13  C   UNL     1       3.474   4.768  18.177  0.00  0.00    +0.000 A 
ATOM     14  C   UNL     1       3.830   3.420  18.207  0.00  0.00    +0.000 A 
ATOM     15  F   UNL     1       4.431   2.880  17.140  0.00  0.00    +0.000 F 
ATOM     16  C   UNL     1       3.567   2.631  19.315  0.00  0.00    +0.000 A 
ATOM     17  C   UNL     1       2.949   3.214  20.411  0.00  0.00    +0.000 A 
ATOM     18  F   UNL     1       2.692   2.470  21.493  0.00  0.00    +0.000 F 
ATOM     19  C   UNL     1       2.578   4.560  20.401  0.00  0.00    +0.000 A 
ENDBRANCH  11  12
ENDBRANCH   7  10
ENDBRANCH   1   8
BRANCH   4  20
ATOM     20  C   UNL     1      -0.842  12.746  21.887  0.00  0.00    +0.000 C 
BRANCH  20  21
ATOM     21  N   UNL     1      -1.982  13.349  22.621  0.00  0.00    +0.000 NA
ATOM     22  C   UNL     1      -2.687  14.331  21.785  0.00  0.00    +0.000 C 
ATOM     23  C   UNL     1      -4.048  14.783  22.334  0.00  0.00    +0.000 C 
ATOM     24  C   UNL     1      -4.970  13.610  22.701  0.00  0.00    +0.000 C 
ATOM     25  C   UNL     1      -4.179  12.735  23.689  0.00  0.00    +0.000 C 
ATOM     26  C   UNL     1      -2.859  12.256  23.084  0.00  0.00    +0.000 C 
BRANCH  24  27
ATOM     27  C   UNL     1      -5.583  12.823  21.538  0.00  0.00    +0.000 A 
ATOM     28  C   UNL     1      -6.831  12.178  21.617  0.00  0.00    +0.000 A 
ATOM     29  C   UNL     1      -7.366  11.478  20.529  0.00  0.00    +0.000 A 
ATOM     30  C   UNL     1      -6.640  11.382  19.352  0.00  0.00    +0.000 A 
ATOM     31  F   UNL     1      -7.152  10.703  18.317  0.00  0.00    +0.000 F 
ATOM     32  C   UNL     1      -5.389  11.973  19.260  0.00  0.00    +0.000 A 
ATOM     33  F   UNL     1      -4.674  11.860  18.131  0.00  0.00    +0.000 F 
ATOM     34  C   UNL     1      -4.859  12.685  20.337  0.00  0.00    +0.000 A 
ENDBRANCH  24  27
ENDBRANCH  20  21
ENDBRANCH   4  20
TORSDOF 6
ENDMDL
MODEL 3
REMARK VINA RESULT:      -8.5      1.127      1.798
REMARK  Name = 
REMARK  6 active torsions:
REMARK  status: ('A' for Active; 'I' for Inactive)
REMARK    1  A    between atoms: C_2  and  C_3
REMARK    2  A    between atoms: C_4  and  C_5
REMARK    3  A    between atoms: N_13  and  C_14
REMARK    4  A    between atoms: C_17  and  C_18
REMARK    5  A    between atoms: C_18  and  N_19
REMARK    6  A    between atoms: C_22  and  C_23
REMARK                            x       y       z     vdW  Elec       q    Type
REMARK                         _______ _______ _______ _____ _____    ______ ____
ROOT
ATOM      1  C   UNL     1       0.445  10.506  19.809  0.00  0.00    +0.000 C 
ATOM      2  C   UNL     1      -0.781  10.965  19.030  0.00  0.00    +0.000 C 
ATOM      3  C   UNL     1      -1.420  11.983  19.963  0.00  0.00    +0.000 C 
ATOM      4  C   UNL     1      -1.176  11.441  21.381  0.00  0.00    +0.000 C 
ATOM      5  C   UNL     1      -0.102  10.344  21.227  0.00  0.00    +0.000 C 
ENDROOT
BRANCH   1   8
ATOM      6  O   UNL     1       2.170  10.240  17.553  0.00  0.00    +0.000 OA
ATOM      7  C   UNL     1       1.870   9.261  18.223  0.00  0.00    +0.000 C 
ATOM      8  N   UNL     1       1.002   9.275  19.290  0.00  0.00    +0.000 N 
ATOM      9  H   UNL     1       0.902   8.443  19.854  0.00  0.00    +0.000 HD
BRANCH   7  10
ATOM     10  C   UNL     1       2.437   7.909  17.977  0.00  0.00    +0.000 C 
ATOM     11  C   UNL     1       3.585   7.759  17.296  0.00  0.00    +0.000 C 
BRANCH  11  12
ATOM     12  C   UNL     1       4.241   6.457  17.083  0.00  0.00    +0.000 A 
ATOM     13  C   UNL     1       4.028   5.355  17.923  0.00  0.00    +0.000 A 
ATOM     14  C   UNL     1       4.700   4.155  17.693  0.00  0.00    +0.000 A 
ATOM     15  F   UNL     1       4.501   3.125  18.526  0.00  0.00    +0.000 F 
ATOM     16  C   UNL     1       5.572   4.012  16.627  0.00  0.00    +0.000 A 
ATOM     17  C   UNL     1       5.759   5.090  15.775  0.00  0.00    +0.000 A 
ATOM     18  F   UNL     1       6.593   4.969  14.736  0.00  0.00    +0.000 F 
ATOM     19  C   UNL     1       5.101   6.303  15.988  0.00  0.00    +0.000 A 
ENDBRANCH  11  12
ENDBRANCH   7  10
ENDBRANCH   1   8
BRANCH   4  20
ATOM     20  C   UNL     1      -0.734  12.535  22.370  0.00  0.00    +0.000 C 
BRANCH  20  21
ATOM     21  N   UNL     1      -1.809  13.101  23.221  0.00  0.00    +0.000 NA
ATOM     22  C   UNL     1      -2.476  14.225  22.548  0.00  0.00    +0.000 C 
ATOM     23  C   UNL     1      -3.787  14.681  23.205  0.00  0.00    +0.000 C 
ATOM     24  C   UNL     1      -4.771  13.526  23.453  0.00  0.00    +0.000 C 
ATOM     25  C   UNL     1      -4.006  12.483  24.286  0.00  0.00    +0.000 C 
ATOM     26  C   UNL     1      -2.740  12.011  23.572  0.00  0.00    +0.000 C 
BRANCH  24  27
ATOM     27  C   UNL     1      -5.469  12.939  22.222  0.00  0.00    +0.000 A 
ATOM     28  C   UNL     1      -6.778  12.423  22.252  0.00  0.00    +0.000 A 
ATOM     29  C   UNL     1      -7.389  11.905  21.105  0.00  0.00    +0.000 A 
ATOM     30  C   UNL     1      -6.683  11.860  19.912  0.00  0.00    +0.000 A 
ATOM     31  F   UNL     1      -7.269  11.355  18.819  0.00  0.00    +0.000 F 
ATOM     32  C   UNL     1      -5.377  12.322  19.864  0.00  0.00    +0.000 A 
ATOM     33  F   UNL     1      -4.682  12.257  18.719  0.00  0.00    +0.000 F 
ATOM     34  C   UNL     1      -4.769  12.855  21.003  0.00  0.00    +0.000 A 
ENDBRANCH  24  27
ENDBRANCH  20  21
ENDBRANCH   4  20
TORSDOF 6
ENDMDL
MODEL 4
REMARK VINA RESULT:      -8.5      1.649      2.219
REMARK  Name = 
REMARK  6 active torsions:
REMARK  status: ('A' for Active; 'I' for Inactive)
REMARK    1  A    between atoms: C_2  and  C_3
REMARK    2  A    between atoms: C_4  and  C_5
REMARK    3  A    between atoms: N_13  and  C_14
REMARK    4  A    between atoms: C_17  and  C_18
REMARK    5  A    between atoms: C_18  and  N_19
REMARK    6  A    between atoms: C_22  and  C_23
REMARK                            x       y       z     vdW  Elec       q    Type
REMARK                         _______ _______ _______ _____ _____    ______ ____
ROOT
ATOM      1  C   UNL     1       0.319  10.373  20.625  0.00  0.00    +0.000 C 
ATOM      2  C   UNL     1      -0.787  10.710  19.633  0.00  0.00    +0.000 C 
ATOM      3  C   UNL     1      -1.513  11.866  20.307  0.00  0.00    +0.000 C 
ATOM      4  C   UNL     1      -1.464  11.551  21.810  0.00  0.00    +0.000 C 
ATOM      5  C   UNL     1      -0.407  10.438  21.968  0.00  0.00    +0.000 C 
ENDROOT
BRANCH   1   8
ATOM      6  O   UNL     1       1.852   9.604  18.345  0.00  0.00    +0.000 OA
ATOM      7  C   UNL     1       1.676   8.819  19.267  0.00  0.00    +0.000 C 
ATOM      8  N   UNL     1       0.905   9.073  20.378  0.00  0.00    +0.000 N 
ATOM      9  H   UNL     1       0.909   8.410  21.141  0.00  0.00    +0.000 HD
BRANCH   7  10
ATOM     10  C   UNL     1       2.304   7.473  19.313  0.00  0.00    +0.000 C 
ATOM     11  C   UNL     1       1.916   6.564  20.222  0.00  0.00    +0.000 C 
BRANCH  11  12
ATOM     12  C   UNL     1       2.442   5.188  20.274  0.00  0.00    +0.000 A 
ATOM     13  C   UNL     1       1.887   4.195  21.093  0.00  0.00    +0.000 A 
ATOM     14  C   UNL     1       2.445   2.918  21.126  0.00  0.00    +0.000 A 
ATOM     15  F   UNL     1       1.915   1.994  21.938  0.00  0.00    +0.000 F 
ATOM     16  C   UNL     1       3.540   2.590  20.342  0.00  0.00    +0.000 A 
ATOM     17  C   UNL     1       4.068   3.562  19.505  0.00  0.00    +0.000 A 
ATOM     18  F   UNL     1       5.122   3.263  18.736  0.00  0.00    +0.000 F 
ATOM     19  C   UNL     1       3.530   4.849  19.460  0.00  0.00    +0.000 A 
ENDBRANCH  11  12
ENDBRANCH   7  10
ENDBRANCH   1   8
BRANCH   4  20
ATOM     20  C   UNL     1      -1.123  12.784  22.668  0.00  0.00    +0.000 C 
BRANCH  20  21
ATOM     21  N   UNL     1      -2.260  13.384  23.407  0.00  0.00    +0.000 NA
ATOM     22  C   UNL     1      -2.930  14.413  22.599  0.00  0.00    +0.000 C 
ATOM     23  C   UNL     1      -4.289  14.876  23.145  0.00  0.00    +0.000 C 
ATOM     24  C   UNL     1      -5.243  13.711  23.453  0.00  0.00    +0.000 C 
ATOM     25  C   UNL     1      -4.487  12.781  24.418  0.00  0.00    +0.000 C 
ATOM     26  C   UNL     1      -3.170  12.295  23.814  0.00  0.00    +0.000 C 
BRANCH  24  27
ATOM     27  C   UNL     1      -5.855  12.984  22.250  0.00  0.00    +0.000 A 
ATOM     28  C   UNL     1      -7.138  12.407  22.271  0.00  0.00    +0.000 A 
ATOM     29  C   UNL     1      -7.670  11.761  21.149  0.00  0.00    +0.000 A 
ATOM     30  C   UNL     1      -6.908  11.649  19.996  0.00  0.00    +0.000 A 
ATOM     31  F   UNL     1      -7.418  11.022  18.929  0.00  0.00    +0.000 F 
ATOM     32  C   UNL     1      -5.625  12.172  19.962  0.00  0.00    +0.000 A 
ATOM     33  F   UNL     1      -4.876  12.045  18.857  0.00  0.00    +0.000 F 
ATOM     34  C   UNL     1      -5.096  12.832  21.073  0.00  0.00    +0.000 A 
ENDBRANCH  24  27
ENDBRANCH  20  21
ENDBRANCH   4  20
TORSDOF 6
ENDMDL
MODEL 5
REMARK VINA RESULT:      -8.4      1.548      1.673
REMARK  Name = 
REMARK  6 active torsions:
REMARK  status: ('A' for Active; 'I' for Inactive)
REMARK    1  A    between atoms: C_2  and  C_3
REMARK    2  A    between atoms: C_4  and  C_5
REMARK    3  A    between atoms: N_13  and  C_14
REMARK    4  A    between atoms: C_17  and  C_18
REMARK    5  A    between atoms: C_18  and  N_19
REMARK    6  A    between atoms: C_22  and  C_23
REMARK                            x       y       z     vdW  Elec       q    Type
REMARK                         _______ _______ _______ _____ _____    ______ ____
ROOT
ATOM      1  C   UNL     1       0.135  11.191  21.084  0.00  0.00    +0.000 C 
ATOM      2  C   UNL     1      -0.255  12.054  19.891  0.00  0.00    +0.000 C 
ATOM      3  C   UNL     1      -1.028  13.198  20.531  0.00  0.00    +0.000 C 
ATOM      4  C   UNL     1      -1.790  12.562  21.706  0.00  0.00    +0.000 C 
ATOM      5  C   UNL     1      -1.145  11.177  21.918  0.00  0.00    +0.000 C 
ENDROOT
BRANCH   1   8
ATOM      6  O   UNL     1       1.655   9.355  22.652  0.00  0.00    +0.000 OA
ATOM      7  C   UNL     1       1.241   9.031  21.547  0.00  0.00    +0.000 C 
ATOM      8  N   UNL     1       0.552   9.861  20.692  0.00  0.00    +0.000 N 
ATOM      9  H   UNL     1       0.150   9.476  19.849  0.00  0.00    +0.000 HD
BRANCH   7  10
ATOM     10  C   UNL     1       1.413   7.665  20.987  0.00  0.00    +0.000 C 
ATOM     11  C   UNL     1       2.138   7.464  19.875  0.00  0.00    +0.000 C 
BRANCH  11  12
ATOM     12  C   UNL     1       2.412   6.130  19.312  0.00  0.00    +0.000 A 
ATOM     13  C   UNL     1       3.199   5.938  18.168  0.00  0.00    +0.000 A 
ATOM     14  C   UNL     1       3.399   4.655  17.659  0.00  0.00    +0.000 A 
ATOM     15  F   UNL     1       4.131   4.499  16.549  0.00  0.00    +0.000 F 
ATOM     16  C   UNL     1       2.850   3.543  18.277  0.00  0.00    +0.000 A 
ATOM     17  C   UNL     1       2.100   3.728  19.429  0.00  0.00    +0.000 A 
ATOM     18  F   UNL     1       1.567   2.665  20.042  0.00  0.00    +0.000 F 
ATOM     19  C   UNL     1       1.881   5.003  19.952  0.00  0.00    +0.000 A 
ENDBRANCH  11  12
ENDBRANCH   7  10
ENDBRANCH   1   8
BRANCH   4  20
ATOM     20  C   UNL     1      -1.734  13.417  22.985  0.00  0.00    +0.000 C 
BRANCH  20  21
ATOM     21  N   UNL     1      -3.048  13.816  23.547  0.00  0.00    +0.000 NA
ATOM     22  C   UNL     1      -3.776  14.689  22.615  0.00  0.00    +0.000 C 
ATOM     23  C   UNL     1      -5.255  14.908  22.962  0.00  0.00    +0.000 C 
ATOM     24  C   UNL     1      -6.020  13.595  23.198  0.00  0.00    +0.000 C 
ATOM     25  C   UNL     1      -5.246  12.839  24.292  0.00  0.00    +0.000 C 
ATOM     26  C   UNL     1      -3.795  12.588  23.883  0.00  0.00    +0.000 C 
BRANCH  24  27
ATOM     27  C   UNL     1      -6.328  12.744  21.961  0.00  0.00    +0.000 A 
ATOM     28  C   UNL     1      -7.431  11.874  21.880  0.00  0.00    +0.000 A 
ATOM     29  C   UNL     1      -7.688  11.121  20.729  0.00  0.00    +0.000 A 
ATOM     30  C   UNL     1      -6.820  11.198  19.651  0.00  0.00    +0.000 A 
ATOM     31  F   UNL     1      -7.065  10.468  18.555  0.00  0.00    +0.000 F 
ATOM     32  C   UNL     1      -5.703  12.015  19.719  0.00  0.00    +0.000 A 
ATOM     33  F   UNL     1      -4.847  12.073  18.688  0.00  0.00    +0.000 F 
ATOM     34  C   UNL     1      -5.451  12.781  20.860  0.00  0.00    +0.000 A 
ENDBRANCH  24  27
ENDBRANCH  20  21
ENDBRANCH   4  20
TORSDOF 6
ENDMDL
MODEL 6
REMARK VINA RESULT:      -8.4      3.592      6.134
REMARK  Name = 
REMARK  6 active torsions:
REMARK  status: ('A' for Active; 'I' for Inactive)
REMARK    1  A    between atoms: C_2  and  C_3
REMARK    2  A    between atoms: C_4  and  C_5
REMARK    3  A    between atoms: N_13  and  C_14
REMARK    4  A    between atoms: C_17  and  C_18
REMARK    5  A    between atoms: C_18  and  N_19
REMARK    6  A    between atoms: C_22  and  C_23
REMARK                            x       y       z     vdW  Elec       q    Type
REMARK                         _______ _______ _______ _____ _____    ______ ____
ROOT
ATOM      1  C   UNL     1       2.286   5.480  18.600  0.00  0.00    +0.000 C 
ATOM      2  C   UNL     1       2.221   4.437  19.709  0.00  0.00    +0.000 C 
ATOM      3  C   UNL     1       1.484   5.167  20.823  0.00  0.00    +0.000 C 
ATOM      4  C   UNL     1       1.958   6.626  20.733  0.00  0.00    +0.000 C 
ATOM      5  C   UNL     1       2.652   6.753  19.360  0.00  0.00    +0.000 C 
ENDROOT
BRANCH   1   8
ATOM      6  O   UNL     1       4.837   4.273  19.022  0.00  0.00    +0.000 OA
ATOM      7  C   UNL     1       4.445   4.514  17.888  0.00  0.00    +0.000 C 
ATOM      8  N   UNL     1       3.261   5.145  17.584  0.00  0.00    +0.000 N 
ATOM      9  H   UNL     1       2.967   5.200  16.618  0.00  0.00    +0.000 HD
BRANCH   7  10
ATOM     10  C   UNL     1       5.205   4.125  16.671  0.00  0.00    +0.000 C 
ATOM     11  C   UNL     1       5.065   4.811  15.525  0.00  0.00    +0.000 C 
BRANCH  11  12
ATOM     12  C   UNL     1       5.843   4.527  14.307  0.00  0.00    +0.000 A 
ATOM     13  C   UNL     1       5.462   3.554  13.373  0.00  0.00    +0.000 A 
ATOM     14  C   UNL     1       6.254   3.305  12.253  0.00  0.00    +0.000 A 
ATOM     15  F   UNL     1       5.883   2.350  11.390  0.00  0.00    +0.000 F 
ATOM     16  C   UNL     1       7.418   4.020  12.021  0.00  0.00    +0.000 A 
ATOM     17  C   UNL     1       7.778   5.008  12.926  0.00  0.00    +0.000 A 
ATOM     18  F   UNL     1       8.896   5.714  12.716  0.00  0.00    +0.000 F 
ATOM     19  C   UNL     1       7.004   5.271  14.057  0.00  0.00    +0.000 A 
ENDBRANCH  11  12
ENDBRANCH   7  10
ENDBRANCH   1   8
BRANCH   4  20
ATOM     20  C   UNL     1       0.808   7.638  20.884  0.00  0.00    +0.000 C 
BRANCH  20  21
ATOM     21  N   UNL     1       1.154   9.051  20.591  0.00  0.00    +0.000 NA
ATOM     22  C   UNL     1       1.190   9.294  19.141  0.00  0.00    +0.000 C 
ATOM     23  C   UNL     1       1.238  10.775  18.739  0.00  0.00    +0.000 C 
ATOM     24  C   UNL     1       0.143  11.618  19.411  0.00  0.00    +0.000 C 
ATOM     25  C   UNL     1       0.299  11.396  20.926  0.00  0.00    +0.000 C 
ATOM     26  C   UNL     1       0.186   9.916  21.292  0.00  0.00    +0.000 C 
BRANCH  24  27
ATOM     27  C   UNL     1      -1.290  11.418  18.905  0.00  0.00    +0.000 A 
ATOM     28  C   UNL     1      -2.399  12.091  19.449  0.00  0.00    +0.000 A 
ATOM     29  C   UNL     1      -3.693  11.893  18.953  0.00  0.00    +0.000 A 
ATOM     30  C   UNL     1      -3.902  10.986  17.925  0.00  0.00    +0.000 A 
ATOM     31  F   UNL     1      -5.143  10.793  17.460  0.00  0.00    +0.000 F 
ATOM     32  C   UNL     1      -2.833  10.279  17.398  0.00  0.00    +0.000 A 
ATOM     33  F   UNL     1      -3.034   9.383  16.421  0.00  0.00    +0.000 F 
ATOM     34  C   UNL     1      -1.538  10.485  17.880  0.00  0.00    +0.000 A 
ENDBRANCH  24  27
ENDBRANCH  20  21
ENDBRANCH   4  20
TORSDOF 6
ENDMDL
MODEL 7
REMARK VINA RESULT:      -8.3      6.164     10.013
REMARK  Name = 
REMARK  6 active torsions:
REMARK  status: ('A' for Active; 'I' for Inactive)
REMARK    1  A    between atoms: C_2  and  C_3
REMARK    2  A    between atoms: C_4  and  C_5
REMARK    3  A    between atoms: N_13  and  C_14
REMARK    4  A    between atoms: C_17  and  C_18
REMARK    5  A    between atoms: C_18  and  N_19
REMARK    6  A    between atoms: C_22  and  C_23
REMARK                            x       y       z     vdW  Elec       q    Type
REMARK                         _______ _______ _______ _____ _____    ______ ____
ROOT
ATOM      1  C   UNL     1       5.716   6.161  16.825  0.00  0.00    +0.000 C 
ATOM      2  C   UNL     1       6.365   5.402  15.675  0.00  0.00    +0.000 C 
ATOM      3  C   UNL     1       5.444   4.204  15.491  0.00  0.00    +0.000 C 
ATOM      4  C   UNL     1       4.976   3.834  16.908  0.00  0.00    +0.000 C 
ATOM      5  C   UNL     1       5.343   5.042  17.795  0.00  0.00    +0.000 C 
ENDROOT
BRANCH   1   8
ATOM      6  O   UNL     1       7.860   5.616  18.627  0.00  0.00    +0.000 OA
ATOM      7  C   UNL     1       7.651   6.758  18.240  0.00  0.00    +0.000 C 
ATOM      8  N   UNL     1       6.610   7.131  17.421  0.00  0.00    +0.000 N 
ATOM      9  H   UNL     1       6.582   8.075  17.060  0.00  0.00    +0.000 HD
BRANCH   7  10
ATOM     10  C   UNL     1       8.528   7.905  18.595  0.00  0.00    +0.000 C 
ATOM     11  C   UNL     1       8.248   9.144  18.160  0.00  0.00    +0.000 C 
BRANCH  11  12
ATOM     12  C   UNL     1       9.029  10.335  18.536  0.00  0.00    +0.000 A 
ATOM     13  C   UNL     1       9.488  10.558  19.842  0.00  0.00    +0.000 A 
ATOM     14  C   UNL     1      10.197  11.719  20.149  0.00  0.00    +0.000 A 
ATOM     15  F   UNL     1      10.600  11.923  21.410  0.00  0.00    +0.000 F 
ATOM     16  C   UNL     1      10.483  12.665  19.179  0.00  0.00    +0.000 A 
ATOM     17  C   UNL     1      10.060  12.430  17.879  0.00  0.00    +0.000 A 
ATOM     18  F   UNL     1      10.332  13.330  16.927  0.00  0.00    +0.000 F 
ATOM     19  C   UNL     1       9.344  11.278  17.549  0.00  0.00    +0.000 A 
ENDBRANCH  11  12
ENDBRANCH   7  10
ENDBRANCH   1   8
BRANCH   4  20
ATOM     20  C   UNL     1       3.471   3.516  16.974  0.00  0.00    +0.000 C 
BRANCH  20  21
ATOM     21  N   UNL     1       2.918   3.320  18.337  0.00  0.00    +0.000 NA
ATOM     22  C   UNL     1       3.758   3.981  19.346  0.00  0.00    +0.000 C 
ATOM     23  C   UNL     1       3.119   4.098  20.738  0.00  0.00    +0.000 C 
ATOM     24  C   UNL     1       1.711   4.714  20.705  0.00  0.00    +0.000 C 
ATOM     25  C   UNL     1       0.889   3.853  19.731  0.00  0.00    +0.000 C 
ATOM     26  C   UNL     1       1.526   3.811  18.342  0.00  0.00    +0.000 C 
BRANCH  24  27
ATOM     27  C   UNL     1       1.623   6.218  20.423  0.00  0.00    +0.000 A 
ATOM     28  C   UNL     1       0.950   7.121  21.265  0.00  0.00    +0.000 A 
ATOM     29  C   UNL     1       0.900   8.491  20.981  0.00  0.00    +0.000 A 
ATOM     30  C   UNL     1       1.494   8.974  19.826  0.00  0.00    +0.000 A 
ATOM     31  F   UNL     1       1.435  10.285  19.555  0.00  0.00    +0.000 F 
ATOM     32  C   UNL     1       2.128   8.101  18.957  0.00  0.00    +0.000 A 
ATOM     33  F   UNL     1       2.682   8.561  17.826  0.00  0.00    +0.000 F 
ATOM     34  C   UNL     1       2.194   6.736  19.244  0.00  0.00    +0.000 A 
ENDBRANCH  24  27
ENDBRANCH  20  21
ENDBRANCH   4  20
TORSDOF 6
ENDMDL
MODEL 8
REMARK VINA RESULT:      -8.3      1.600      2.165
REMARK  Name = 
REMARK  6 active torsions:
REMARK  status: ('A' for Active; 'I' for Inactive)
REMARK    1  A    between atoms: C_2  and  C_3
REMARK    2  A    between atoms: C_4  and  C_5
REMARK    3  A    between atoms: N_13  and  C_14
REMARK    4  A    between atoms: C_17  and  C_18
REMARK    5  A    between atoms: C_18  and  N_19
REMARK    6  A    between atoms: C_22  and  C_23
REMARK                            x       y       z     vdW  Elec       q    Type
REMARK                         _______ _______ _______ _____ _____    ______ ____
ROOT
ATOM      1  C   UNL     1       0.111  11.242  21.222  0.00  0.00    +0.000 C 
ATOM      2  C   UNL     1      -0.139  12.181  20.049  0.00  0.00    +0.000 C 
ATOM      3  C   UNL     1      -0.873  13.348  20.693  0.00  0.00    +0.000 C 
ATOM      4  C   UNL     1      -1.754  12.718  21.785  0.00  0.00    +0.000 C 
ATOM      5  C   UNL     1      -1.220  11.282  21.971  0.00  0.00    +0.000 C 
ENDROOT
BRANCH   1   8
ATOM      6  O   UNL     1       1.607   9.319  22.707  0.00  0.00    +0.000 OA
ATOM      7  C   UNL     1       1.144   9.032  21.611  0.00  0.00    +0.000 C 
ATOM      8  N   UNL     1       0.462   9.904  20.794  0.00  0.00    +0.000 N 
ATOM      9  H   UNL     1       0.017   9.550  19.958  0.00  0.00    +0.000 HD
BRANCH   7  10
ATOM     10  C   UNL     1       1.243   7.671  21.023  0.00  0.00    +0.000 C 
ATOM     11  C   UNL     1       2.151   7.397  20.071  0.00  0.00    +0.000 C 
BRANCH  11  12
ATOM     12  C   UNL     1       2.354   6.054  19.502  0.00  0.00    +0.000 A 
ATOM     13  C   UNL     1       1.856   4.892  20.107  0.00  0.00    +0.000 A 
ATOM     14  C   UNL     1       2.105   3.642  19.541  0.00  0.00    +0.000 A 
ATOM     15  F   UNL     1       1.643   2.544  20.152  0.00  0.00    +0.000 F 
ATOM     16  C   UNL     1       2.827   3.516  18.365  0.00  0.00    +0.000 A 
ATOM     17  C   UNL     1       3.291   4.667  17.747  0.00  0.00    +0.000 A 
ATOM     18  F   UNL     1       3.985   4.566  16.607  0.00  0.00    +0.000 F 
ATOM     19  C   UNL     1       3.059   5.928  18.298  0.00  0.00    +0.000 A 
ENDBRANCH  11  12
ENDBRANCH   7  10
ENDBRANCH   1   8
BRANCH   4  20
ATOM     20  C   UNL     1      -1.726  13.510  23.105  0.00  0.00    +0.000 C 
BRANCH  20  21
ATOM     21  N   UNL     1      -3.052  13.833  23.686  0.00  0.00    +0.000 NA
ATOM     22  C   UNL     1      -3.811  14.728  22.800  0.00  0.00    +0.000 C 
ATOM     23  C   UNL     1      -5.297  14.877  23.158  0.00  0.00    +0.000 C 
ATOM     24  C   UNL     1      -6.015  13.529  23.325  0.00  0.00    +0.000 C 
ATOM     25  C   UNL     1      -5.214  12.743  24.378  0.00  0.00    +0.000 C 
ATOM     26  C   UNL     1      -3.756  12.565  23.958  0.00  0.00    +0.000 C 
BRANCH  24  27
ATOM     27  C   UNL     1      -6.295  12.733  22.045  0.00  0.00    +0.000 A 
ATOM     28  C   UNL     1      -7.421  11.904  21.884  0.00  0.00    +0.000 A 
ATOM     29  C   UNL     1      -7.650  11.201  20.696  0.00  0.00    +0.000 A 
ATOM     30  C   UNL     1      -6.734  11.287  19.660  0.00  0.00    +0.000 A 
ATOM     31  F   UNL     1      -6.954  10.606  18.529  0.00  0.00    +0.000 F 
ATOM     32  C   UNL     1      -5.595  12.064  19.807  0.00  0.00    +0.000 A 
ATOM     33  F   UNL     1      -4.693  12.130  18.816  0.00  0.00    +0.000 F 
ATOM     34  C   UNL     1      -5.369  12.779  20.984  0.00  0.00    +0.000 A 
ENDBRANCH  24  27
ENDBRANCH  20  21
ENDBRANCH   4  20
TORSDOF 6
ENDMDL
MODEL 9
REMARK VINA RESULT:      -8.3      0.928      1.275
REMARK  Name = 
REMARK  6 active torsions:
REMARK  status: ('A' for Active; 'I' for Inactive)
REMARK    1  A    between atoms: C_2  and  C_3
REMARK    2  A    between atoms: C_4  and  C_5
REMARK    3  A    between atoms: N_13  and  C_14
REMARK    4  A    between atoms: C_17  and  C_18
REMARK    5  A    between atoms: C_18  and  N_19
REMARK    6  A    between atoms: C_22  and  C_23
REMARK                            x       y       z     vdW  Elec       q    Type
REMARK                         _______ _______ _______ _____ _____    ______ ____
ROOT
ATOM      1  C   UNL     1      -0.159  10.940  18.919  0.00  0.00    +0.000 C 
ATOM      2  C   UNL     1      -1.536  11.321  18.391  0.00  0.00    +0.000 C 
ATOM      3  C   UNL     1      -2.041  12.309  19.432  0.00  0.00    +0.000 C 
ATOM      4  C   UNL     1      -1.499  11.795  20.775  0.00  0.00    +0.000 C 
ATOM      5  C   UNL     1      -0.413  10.759  20.415  0.00  0.00    +0.000 C 
ENDROOT
BRANCH   1   8
ATOM      6  O   UNL     1       2.537  10.465  18.116  0.00  0.00    +0.000 OA
ATOM      7  C   UNL     1       1.692   9.588  17.998  0.00  0.00    +0.000 C 
ATOM      8  N   UNL     1       0.358   9.738  18.299  0.00  0.00    +0.000 N 
ATOM      9  H   UNL     1      -0.245   8.927  18.279  0.00  0.00    +0.000 HD
BRANCH   7  10
ATOM     10  C   UNL     1       2.012   8.215  17.525  0.00  0.00    +0.000 C 
ATOM     11  C   UNL     1       2.832   7.419  18.231  0.00  0.00    +0.000 C 
BRANCH  11  12
ATOM     12  C   UNL     1       3.129   6.025  17.861  0.00  0.00    +0.000 A 
ATOM     13  C   UNL     1       4.348   5.636  17.290  0.00  0.00    +0.000 A 
ATOM     14  C   UNL     1       4.564   4.306  16.930  0.00  0.00    +0.000 A 
ATOM     15  F   UNL     1       5.727   3.964  16.360  0.00  0.00    +0.000 F 
ATOM     16  C   UNL     1       3.598   3.337  17.143  0.00  0.00    +0.000 A 
ATOM     17  C   UNL     1       2.403   3.713  17.740  0.00  0.00    +0.000 A 
ATOM     18  F   UNL     1       1.460   2.790  17.960  0.00  0.00    +0.000 F 
ATOM     19  C   UNL     1       2.163   5.039  18.103  0.00  0.00    +0.000 A 
ENDBRANCH  11  12
ENDBRANCH   7  10
ENDBRANCH   1   8
BRANCH   4  20
ATOM     20  C   UNL     1      -0.939  12.921  21.663  0.00  0.00    +0.000 C 
BRANCH  20  21
ATOM     21  N   UNL     1      -1.907  13.535  22.606  0.00  0.00    +0.000 NA
ATOM     22  C   UNL     1      -2.521  14.735  22.021  0.00  0.00    +0.000 C 
ATOM     23  C   UNL     1      -3.745  15.266  22.782  0.00  0.00    +0.000 C 
ATOM     24  C   UNL     1      -4.802  14.183  23.053  0.00  0.00    +0.000 C 
ATOM     25  C   UNL     1      -4.073  13.048  23.794  0.00  0.00    +0.000 C 
ATOM     26  C   UNL     1      -2.899  12.508  22.979  0.00  0.00    +0.000 C 
BRANCH  24  27
ATOM     27  C   UNL     1      -5.624  13.705  21.852  0.00  0.00    +0.000 A 
ATOM     28  C   UNL     1      -5.676  14.399  20.629  0.00  0.00    +0.000 A 
ATOM     29  C   UNL     1      -6.429  13.926  19.548  0.00  0.00    +0.000 A 
ATOM     30  C   UNL     1      -7.175  12.766  19.688  0.00  0.00    +0.000 A 
ATOM     31  F   UNL     1      -7.901  12.322  18.653  0.00  0.00    +0.000 F 
ATOM     32  C   UNL     1      -7.176  12.085  20.895  0.00  0.00    +0.000 A 
ATOM     33  F   UNL     1      -7.916  10.976  21.041  0.00  0.00    +0.000 F 
ATOM     34  C   UNL     1      -6.414  12.544  21.970  0.00  0.00    +0.000 A 
ENDBRANCH  24  27
ENDBRANCH  20  21
ENDBRANCH   4  20
TORSDOF 6
ENDMDL
