MODEL 1
REMARK VINA RESULT:      -8.0      0.000      0.000
REMARK  Name = 
REMARK  10 active torsions:
REMARK  status: ('A' for Active; 'I' for Inactive)
REMARK    1  A    between atoms: C_1  and  C_2
REMARK    2  A    between atoms: C_11  and  C_12
REMARK    3  A    between atoms: C_12  and  N_13
REMARK    4  A    between atoms: N_13  and  C_14
REMARK    5  A    between atoms: N_13  and  S_18
REMARK    6  A    between atoms: C_14  and  C_15
REMARK    7  A    between atoms: C_15  and  C_16
REMARK    8  A    between atoms: C_15  and  C_17
REMARK    9  A    between atoms: S_18  and  C_21
REMARK   10  A    between atoms: C_21  and  C_22
REMARK                            x       y       z     vdW  Elec       q    Type
REMARK                         _______ _______ _______ _____ _____    ______ ____
ROOT
ATOM      1  C   UNL     1       3.237   6.638  17.478  0.00  0.00    +0.000 C 
ENDROOT
BRANCH   1  12
ATOM      2  C   UNL     1      -3.024  13.469  22.418  0.00  0.00    +0.000 C 
ATOM      3  C   UNL     1      -2.519  12.185  23.021  0.00  0.00    +0.000 C 
ATOM      4  O   UNL     1      -3.101  11.678  23.980  0.00  0.00    +0.000 OA
ATOM      5  N   UNL     1      -1.426  11.598  22.415  0.00  0.00    +0.000 N 
ATOM      6  C   UNL     1      -0.951  10.292  22.888  0.00  0.00    +0.000 C 
ATOM      7  C   UNL     1      -0.698   9.332  21.711  0.00  0.00    +0.000 C 
ATOM      8  N   UNL     1       0.185   9.997  20.732  0.00  0.00    +0.000 N 
ATOM      9  C   UNL     1       1.027   9.251  19.928  0.00  0.00    +0.000 A 
ATOM     10  C   UNL     1       1.679   8.116  20.408  0.00  0.00    +0.000 A 
ATOM     11  N   UNL     1       2.467   7.308  19.666  0.00  0.00    +0.000 NA
ATOM     12  C   UNL     1       2.636   7.679  18.378  0.00  0.00    +0.000 A 
ATOM     13  C   UNL     1       2.081   8.857  17.900  0.00  0.00    +0.000 A 
ATOM     14  N   UNL     1       1.278   9.651  18.658  0.00  0.00    +0.000 NA
ATOM     15  C   UNL     1      -0.378  11.238  20.186  0.00  0.00    +0.000 C 
ATOM     16  C   UNL     1      -0.600  12.211  21.357  0.00  0.00    +0.000 C 
ENDBRANCH   1  12
BRANCH   1  17
ATOM     17  N   UNL     1       4.457   5.867  17.899  0.00  0.00    +0.000 NA
BRANCH  17  18
ATOM     18  S   UNL     1       5.720   6.124  16.671  0.00  0.00    +0.000 S 
ATOM     19  O   UNL     1       5.065   6.749  15.537  0.00  0.00    +0.000 OA
ATOM     20  O   UNL     1       6.819   6.776  17.353  0.00  0.00    +0.000 OA
BRANCH  18  21
ATOM     21  C   UNL     1       6.202   4.440  16.217  0.00  0.00    +0.000 C 
BRANCH  21  22
ATOM     22  C   UNL     1       6.507   4.391  14.738  0.00  0.00    +0.000 A 
ATOM     23  C   UNL     1       7.550   5.160  14.193  0.00  0.00    +0.000 A 
ATOM     24  C   UNL     1       7.832   5.105  12.826  0.00  0.00    +0.000 A 
ATOM     25  C   UNL     1       7.075   4.289  11.990  0.00  0.00    +0.000 A 
ATOM     26  C   UNL     1       6.035   3.526  12.518  0.00  0.00    +0.000 A 
ATOM     27  C   UNL     1       5.753   3.576  13.885  0.00  0.00    +0.000 A 
ENDBRANCH  21  22
ENDBRANCH  18  21
ENDBRANCH  17  18
BRANCH  17  28
ATOM     28  C   UNL     1       4.220   4.363  18.011  0.00  0.00    +0.000 C 
BRANCH  28  29
ATOM     29  C   UNL     1       3.693   3.847  19.364  0.00  0.00    +0.000 C 
ATOM     30  C   UNL     1       2.173   3.631  19.292  0.00  0.00    +0.000 C 
ATOM     31  C   UNL     1       4.347   2.538  19.805  0.00  0.00    +0.000 C 
ENDBRANCH  28  29
ENDBRANCH  17  28
ENDBRANCH   1  17
TORSDOF 7
ENDMDL
MODEL 2
REMARK VINA RESULT:      -8.0      0.635      1.069
REMARK  Name = 
REMARK  10 active torsions:
REMARK  status: ('A' for Active; 'I' for Inactive)
REMARK    1  A    between atoms: C_1  and  C_2
REMARK    2  A    between atoms: C_11  and  C_12
REMARK    3  A    between atoms: C_12  and  N_13
REMARK    4  A    between atoms: N_13  and  C_14
REMARK    5  A    between atoms: N_13  and  S_18
REMARK    6  A    between atoms: C_14  and  C_15
REMARK    7  A    between atoms: C_15  and  C_16
REMARK    8  A    between atoms: C_15  and  C_17
REMARK    9  A    between atoms: S_18  and  C_21
REMARK   10  A    between atoms: C_21  and  C_22
REMARK                            x       y       z     vdW  Elec       q    Type
REMARK                         _______ _______ _______ _____ _____    ______ ____
ROOT
ATOM      1  C   UNL     1       3.230   5.783  17.801  0.00  0.00    +0.000 C 
ENDROOT
BRANCH   1  12
ATOM      2  C   UNL     1      -2.321  13.584  22.114  0.00  0.00    +0.000 C 
ATOM      3  C   UNL     1      -2.003  12.282  22.801  0.00  0.00    +0.000 C 
ATOM      4  O   UNL     1      -2.681  11.901  23.756  0.00  0.00    +0.000 OA
ATOM      5  N   UNL     1      -0.969  11.534  22.275  0.00  0.00    +0.000 N 
ATOM      6  C   UNL     1      -0.680  10.207  22.832  0.00  0.00    +0.000 C 
ATOM      7  C   UNL     1      -0.502   9.161  21.715  0.00  0.00    +0.000 C 
ATOM      8  N   UNL     1       0.495   9.659  20.746  0.00  0.00    +0.000 N 
ATOM      9  C   UNL     1       1.268   8.774  20.018  0.00  0.00    +0.000 A 
ATOM     10  C   UNL     1       1.755   7.596  20.583  0.00  0.00    +0.000 A 
ATOM     11  N   UNL     1       2.465   6.659  19.917  0.00  0.00    +0.000 NA
ATOM     12  C   UNL     1       2.729   6.936  18.621  0.00  0.00    +0.000 A 
ATOM     13  C   UNL     1       2.343   8.146  18.062  0.00  0.00    +0.000 A 
ATOM     14  N   UNL     1       1.617   9.071  18.743  0.00  0.00    +0.000 NA
ATOM     15  C   UNL     1       0.112  10.929  20.115  0.00  0.00    +0.000 C 
ATOM     16  C   UNL     1      -0.033  11.984  21.226  0.00  0.00    +0.000 C 
ENDBRANCH   1  12
BRANCH   1  17
ATOM     17  N   UNL     1       4.569   5.161  18.084  0.00  0.00    +0.000 NA
BRANCH  17  18
ATOM     18  S   UNL     1       5.646   5.530  16.716  0.00  0.00    +0.000 S 
ATOM     19  O   UNL     1       4.897   6.402  15.830  0.00  0.00    +0.000 OA
ATOM     20  O   UNL     1       6.904   5.955  17.296  0.00  0.00    +0.000 OA
BRANCH  18  21
ATOM     21  C   UNL     1       5.861   3.921  15.916  0.00  0.00    +0.000 C 
BRANCH  21  22
ATOM     22  C   UNL     1       6.352   4.131  14.502  0.00  0.00    +0.000 A 
ATOM     23  C   UNL     1       5.769   3.437  13.427  0.00  0.00    +0.000 A 
ATOM     24  C   UNL     1       6.222   3.641  12.122  0.00  0.00    +0.000 A 
ATOM     25  C   UNL     1       7.263   4.533  11.876  0.00  0.00    +0.000 A 
ATOM     26  C   UNL     1       7.851   5.223  12.934  0.00  0.00    +0.000 A 
ATOM     27  C   UNL     1       7.399   5.024  14.240  0.00  0.00    +0.000 A 
ENDBRANCH  21  22
ENDBRANCH  18  21
ENDBRANCH  17  18
BRANCH  17  28
ATOM     28  C   UNL     1       4.517   3.643  18.236  0.00  0.00    +0.000 C 
BRANCH  28  29
ATOM     29  C   UNL     1       3.712   3.097  19.430  0.00  0.00    +0.000 C 
ATOM     30  C   UNL     1       2.460   2.357  18.930  0.00  0.00    +0.000 C 
ATOM     31  C   UNL     1       4.516   2.144  20.314  0.00  0.00    +0.000 C 
ENDBRANCH  28  29
ENDBRANCH  17  28
ENDBRANCH   1  17
TORSDOF 7
ENDMDL
MODEL 3
REMARK VINA RESULT:      -7.8      1.833      2.578
REMARK  Name = 
REMARK  10 active torsions:
REMARK  status: ('A' for Active; 'I' for Inactive)
REMARK    1  A    between atoms: C_1  and  C_2
REMARK    2  A    between atoms: C_11  and  C_12
REMARK    3  A    between atoms: C_12  and  N_13
REMARK    4  A    between atoms: N_13  and  C_14
REMARK    5  A    between atoms: N_13  and  S_18
REMARK    6  A    between atoms: C_14  and  C_15
REMARK    7  A    between atoms: C_15  and  C_16
REMARK    8  A    between atoms: C_15  and  C_17
REMARK    9  A    between atoms: S_18  and  C_21
REMARK   10  A    between atoms: C_21  and  C_22
REMARK                            x       y       z     vdW  Elec       q    Type
REMARK                         _______ _______ _______ _____ _____    ______ ____
ROOT
ATOM      1  C   UNL     1       3.323   6.256  18.611  0.00  0.00    +0.000 C 
ENDROOT
BRANCH   1  12
ATOM      2  C   UNL     1      -1.637  13.970  23.727  0.00  0.00    +0.000 C 
ATOM      3  C   UNL     1      -1.145  14.067  22.307  0.00  0.00    +0.000 C 
ATOM      4  O   UNL     1      -0.961  15.167  21.787  0.00  0.00    +0.000 OA
ATOM      5  N   UNL     1      -0.868  12.879  21.660  0.00  0.00    +0.000 N 
ATOM      6  C   UNL     1      -0.285  12.908  20.312  0.00  0.00    +0.000 C 
ATOM      7  C   UNL     1       0.906  11.939  20.201  0.00  0.00    +0.000 C 
ATOM      8  N   UNL     1       0.482  10.603  20.665  0.00  0.00    +0.000 N 
ATOM      9  C   UNL     1       1.082   9.463  20.163  0.00  0.00    +0.000 A 
ATOM     10  C   UNL     1       1.454   9.365  18.822  0.00  0.00    +0.000 A 
ATOM     11  N   UNL     1       2.095   8.309  18.277  0.00  0.00    +0.000 NA
ATOM     12  C   UNL     1       2.347   7.280  19.116  0.00  0.00    +0.000 A 
ATOM     13  C   UNL     1       1.900   7.310  20.429  0.00  0.00    +0.000 A 
ATOM     14  N   UNL     1       1.269   8.387  20.965  0.00  0.00    +0.000 NA
ATOM     15  C   UNL     1       0.022  10.589  22.060  0.00  0.00    +0.000 C 
ATOM     16  C   UNL     1      -1.190  11.531  22.166  0.00  0.00    +0.000 C 
ENDBRANCH   1  12
BRANCH   1  17
ATOM     17  N   UNL     1       4.051   5.351  19.564  0.00  0.00    +0.000 NA
BRANCH  17  18
ATOM     18  S   UNL     1       5.681   5.061  18.909  0.00  0.00    +0.000 S 
ATOM     19  O   UNL     1       6.614   5.455  19.949  0.00  0.00    +0.000 OA
ATOM     20  O   UNL     1       5.672   3.711  18.384  0.00  0.00    +0.000 OA
BRANCH  18  21
ATOM     21  C   UNL     1       5.791   6.243  17.542  0.00  0.00    +0.000 C 
BRANCH  21  22
ATOM     22  C   UNL     1       5.978   5.487  16.246  0.00  0.00    +0.000 A 
ATOM     23  C   UNL     1       4.886   4.880  15.603  0.00  0.00    +0.000 A 
ATOM     24  C   UNL     1       5.064   4.190  14.402  0.00  0.00    +0.000 A 
ATOM     25  C   UNL     1       6.332   4.093  13.834  0.00  0.00    +0.000 A 
ATOM     26  C   UNL     1       7.423   4.687  14.466  0.00  0.00    +0.000 A 
ATOM     27  C   UNL     1       7.248   5.381  15.665  0.00  0.00    +0.000 A 
ENDBRANCH  21  22
ENDBRANCH  18  21
ENDBRANCH  17  18
BRANCH  17  28
ATOM     28  C   UNL     1       3.379   3.992  19.749  0.00  0.00    +0.000 C 
BRANCH  28  29
ATOM     29  C   UNL     1       2.101   3.737  18.928  0.00  0.00    +0.000 C 
ATOM     30  C   UNL     1       2.388   2.727  17.805  0.00  0.00    +0.000 C 
ATOM     31  C   UNL     1       0.940   3.208  19.769  0.00  0.00    +0.000 C 
ENDBRANCH  28  29
ENDBRANCH  17  28
ENDBRANCH   1  17
TORSDOF 7
ENDMDL
MODEL 4
REMARK VINA RESULT:      -7.7      1.661      2.126
REMARK  Name = 
REMARK  10 active torsions:
REMARK  status: ('A' for Active; 'I' for Inactive)
REMARK    1  A    between atoms: C_1  and  C_2
REMARK    2  A    between atoms: C_11  and  C_12
REMARK    3  A    between atoms: C_12  and  N_13
REMARK    4  A    between atoms: N_13  and  C_14
REMARK    5  A    between atoms: N_13  and  S_18
REMARK    6  A    between atoms: C_14  and  C_15
REMARK    7  A    between atoms: C_15  and  C_16
REMARK    8  A    between atoms: C_15  and  C_17
REMARK    9  A    between atoms: S_18  and  C_21
REMARK   10  A    between atoms: C_21  and  C_22
REMARK                            x       y       z     vdW  Elec       q    Type
REMARK                         _______ _______ _______ _____ _____    ______ ____
ROOT
ATOM      1  C   UNL     1       2.803   5.613  18.252  0.00  0.00    +0.000 C 
ENDROOT
BRANCH   1  12
ATOM      2  C   UNL     1      -1.473  14.951  20.442  0.00  0.00    +0.000 C 
ATOM      3  C   UNL     1      -1.417  13.792  21.402  0.00  0.00    +0.000 C 
ATOM      4  O   UNL     1      -2.191  13.740  22.359  0.00  0.00    +0.000 OA
ATOM      5  N   UNL     1      -0.509  12.791  21.121  0.00  0.00    +0.000 N 
ATOM      6  C   UNL     1      -0.480  11.584  21.957  0.00  0.00    +0.000 C 
ATOM      7  C   UNL     1      -0.442  10.310  21.094  0.00  0.00    +0.000 C 
ATOM      8  N   UNL     1       0.667  10.421  20.125  0.00  0.00    +0.000 N 
ATOM      9  C   UNL     1       1.304   9.287  19.654  0.00  0.00    +0.000 A 
ATOM     10  C   UNL     1       1.552   8.193  20.483  0.00  0.00    +0.000 A 
ATOM     11  N   UNL     1       2.114   7.034  20.079  0.00  0.00    +0.000 NA
ATOM     12  C   UNL     1       2.477   6.981  18.779  0.00  0.00    +0.000 A 
ATOM     13  C   UNL     1       2.333   8.089  17.956  0.00  0.00    +0.000 A 
ATOM     14  N   UNL     1       1.752   9.244  18.376  0.00  0.00    +0.000 NA
ATOM     15  C   UNL     1       0.539  11.571  19.221  0.00  0.00    +0.000 C 
ATOM     16  C   UNL     1       0.535  12.848  20.079  0.00  0.00    +0.000 C 
ENDBRANCH   1  12
BRANCH   1  17
ATOM     17  N   UNL     1       3.806   4.738  18.949  0.00  0.00    +0.000 NA
BRANCH  17  18
ATOM     18  S   UNL     1       5.002   4.204  17.743  0.00  0.00    +0.000 S 
ATOM     19  O   UNL     1       6.298   4.285  18.391  0.00  0.00    +0.000 OA
ATOM     20  O   UNL     1       4.508   2.951  17.212  0.00  0.00    +0.000 OA
BRANCH  18  21
ATOM     21  C   UNL     1       4.900   5.485  16.469  0.00  0.00    +0.000 C 
BRANCH  21  22
ATOM     22  C   UNL     1       5.595   4.998  15.218  0.00  0.00    +0.000 A 
ATOM     23  C   UNL     1       4.916   4.201  14.281  0.00  0.00    +0.000 A 
ATOM     24  C   UNL     1       5.562   3.760  13.124  0.00  0.00    +0.000 A 
ATOM     25  C   UNL     1       6.891   4.104  12.892  0.00  0.00    +0.000 A 
ATOM     26  C   UNL     1       7.576   4.890  13.817  0.00  0.00    +0.000 A 
ATOM     27  C   UNL     1       6.933   5.336  14.973  0.00  0.00    +0.000 A 
ENDBRANCH  21  22
ENDBRANCH  18  21
ENDBRANCH  17  18
BRANCH  17  28
ATOM     28  C   UNL     1       3.193   3.488  19.578  0.00  0.00    +0.000 C 
BRANCH  28  29
ATOM     29  C   UNL     1       1.662   3.479  19.742  0.00  0.00    +0.000 C 
ATOM     30  C   UNL     1       1.030   2.481  18.758  0.00  0.00    +0.000 C 
ATOM     31  C   UNL     1       1.209   3.116  21.156  0.00  0.00    +0.000 C 
ENDBRANCH  28  29
ENDBRANCH  17  28
ENDBRANCH   1  17
TORSDOF 7
ENDMDL
MODEL 5
REMARK VINA RESULT:      -7.7      2.543      4.425
REMARK  Name = 
REMARK  10 active torsions:
REMARK  status: ('A' for Active; 'I' for Inactive)
REMARK    1  A    between atoms: C_1  and  C_2
REMARK    2  A    between atoms: C_11  and  C_12
REMARK    3  A    between atoms: C_12  and  N_13
REMARK    4  A    between atoms: N_13  and  C_14
REMARK    5  A    between atoms: N_13  and  S_18
REMARK    6  A    between atoms: C_14  and  C_15
REMARK    7  A    between atoms: C_15  and  C_16
REMARK    8  A    between atoms: C_15  and  C_17
REMARK    9  A    between atoms: S_18  and  C_21
REMARK   10  A    between atoms: C_21  and  C_22
REMARK                            x       y       z     vdW  Elec       q    Type
REMARK                         _______ _______ _______ _____ _____    ______ ____
ROOT
ATOM      1  C   UNL     1       3.213   5.941  17.503  0.00  0.00    +0.000 C 
ENDROOT
BRANCH   1  12
ATOM      2  C   UNL     1      -2.051  13.730  22.182  0.00  0.00    +0.000 C 
ATOM      3  C   UNL     1      -1.787  12.385  22.804  0.00  0.00    +0.000 C 
ATOM      4  O   UNL     1      -2.483  11.984  23.738  0.00  0.00    +0.000 OA
ATOM      5  N   UNL     1      -0.780  11.624  22.244  0.00  0.00    +0.000 N 
ATOM      6  C   UNL     1      -0.545  10.260  22.736  0.00  0.00    +0.000 C 
ATOM      7  C   UNL     1      -0.403   9.265  21.569  0.00  0.00    +0.000 C 
ATOM      8  N   UNL     1       0.617   9.771  20.629  0.00  0.00    +0.000 N 
ATOM      9  C   UNL     1       1.359   8.894  19.860  0.00  0.00    +0.000 A 
ATOM     10  C   UNL     1       1.797   7.671  20.367  0.00  0.00    +0.000 A 
ATOM     11  N   UNL     1       2.473   6.741  19.657  0.00  0.00    +0.000 NA
ATOM     12  C   UNL     1       2.753   7.072  18.378  0.00  0.00    +0.000 A 
ATOM     13  C   UNL     1       2.417   8.322  17.877  0.00  0.00    +0.000 A 
ATOM     14  N   UNL     1       1.724   9.240  18.602  0.00  0.00    +0.000 NA
ATOM     15  C   UNL     1       0.286  11.084  20.060  0.00  0.00    +0.000 C 
ATOM     16  C   UNL     1       0.178  12.088  21.222  0.00  0.00    +0.000 C 
ENDBRANCH   1  12
BRANCH   1  17
ATOM     17  N   UNL     1       4.678   5.674  17.296  0.00  0.00    +0.000 NA
BRANCH  17  18
ATOM     18  S   UNL     1       4.969   3.944  17.595  0.00  0.00    +0.000 S 
ATOM     19  O   UNL     1       5.801   3.476  16.503  0.00  0.00    +0.000 OA
ATOM     20  O   UNL     1       5.411   3.841  18.971  0.00  0.00    +0.000 OA
BRANCH  18  21
ATOM     21  C   UNL     1       3.320   3.215  17.433  0.00  0.00    +0.000 C 
BRANCH  21  22
ATOM     22  C   UNL     1       2.680   3.123  18.798  0.00  0.00    +0.000 A 
ATOM     23  C   UNL     1       1.340   3.501  18.993  0.00  0.00    +0.000 A 
ATOM     24  C   UNL     1       0.753   3.407  20.257  0.00  0.00    +0.000 A 
ATOM     25  C   UNL     1       1.496   2.940  21.338  0.00  0.00    +0.000 A 
ATOM     26  C   UNL     1       2.826   2.567  21.158  0.00  0.00    +0.000 A 
ATOM     27  C   UNL     1       3.416   2.657  19.896  0.00  0.00    +0.000 A 
ENDBRANCH  21  22
ENDBRANCH  18  21
ENDBRANCH  17  18
BRANCH  17  28
ATOM     28  C   UNL     1       5.581   6.466  18.239  0.00  0.00    +0.000 C 
BRANCH  28  29
ATOM     29  C   UNL     1       7.083   6.488  17.898  0.00  0.00    +0.000 C 
ATOM     30  C   UNL     1       7.508   7.903  17.473  0.00  0.00    +0.000 C 
ATOM     31  C   UNL     1       7.972   6.045  19.059  0.00  0.00    +0.000 C 
ENDBRANCH  28  29
ENDBRANCH  17  28
ENDBRANCH   1  17
TORSDOF 7
ENDMDL
MODEL 6
REMARK VINA RESULT:      -7.6      2.740      4.892
REMARK  Name = 
REMARK  10 active torsions:
REMARK  status: ('A' for Active; 'I' for Inactive)
REMARK    1  A    between atoms: C_1  and  C_2
REMARK    2  A    between atoms: C_11  and  C_12
REMARK    3  A    between atoms: C_12  and  N_13
REMARK    4  A    between atoms: N_13  and  C_14
REMARK    5  A    between atoms: N_13  and  S_18
REMARK    6  A    between atoms: C_14  and  C_15
REMARK    7  A    between atoms: C_15  and  C_16
REMARK    8  A    between atoms: C_15  and  C_17
REMARK    9  A    between atoms: S_18  and  C_21
REMARK   10  A    between atoms: C_21  and  C_22
REMARK                            x       y       z     vdW  Elec       q    Type
REMARK                         _______ _______ _______ _____ _____    ______ ____
ROOT
ATOM      1  C   UNL     1       4.029   6.152  18.610  0.00  0.00    +0.000 C 
ENDROOT
BRANCH   1  12
ATOM      2  C   UNL     1      -2.130  14.187  21.397  0.00  0.00    +0.000 C 
ATOM      3  C   UNL     1      -1.294  14.147  20.146  0.00  0.00    +0.000 C 
ATOM      4  O   UNL     1      -0.992  15.191  19.567  0.00  0.00    +0.000 OA
ATOM      5  N   UNL     1      -0.852  12.908  19.728  0.00  0.00    +0.000 N 
ATOM      6  C   UNL     1       0.055  12.812  18.577  0.00  0.00    +0.000 C 
ATOM      7  C   UNL     1       1.243  11.881  18.881  0.00  0.00    +0.000 C 
ATOM      8  N   UNL     1       0.725  10.588  19.373  0.00  0.00    +0.000 N 
ATOM      9  C   UNL     1       1.442   9.423  19.171  0.00  0.00    +0.000 A 
ATOM     10  C   UNL     1       2.144   9.194  17.988  0.00  0.00    +0.000 A 
ATOM     11  N   UNL     1       2.911   8.110  17.746  0.00  0.00    +0.000 NA
ATOM     12  C   UNL     1       2.949   7.188  18.733  0.00  0.00    +0.000 A 
ATOM     13  C   UNL     1       2.182   7.343  19.879  0.00  0.00    +0.000 A 
ATOM     14  N   UNL     1       1.426   8.448  20.112  0.00  0.00    +0.000 NA
ATOM     15  C   UNL     1      -0.075  10.708  20.598  0.00  0.00    +0.000 C 
ATOM     16  C   UNL     1      -1.282  11.611  20.288  0.00  0.00    +0.000 C 
ENDBRANCH   1  12
BRANCH   1  17
ATOM     17  N   UNL     1       4.477   5.662  17.262  0.00  0.00    +0.000 NA
BRANCH  17  18
ATOM     18  S   UNL     1       4.725   3.903  17.370  0.00  0.00    +0.000 S 
ATOM     19  O   UNL     1       5.439   3.517  16.167  0.00  0.00    +0.000 OA
ATOM     20  O   UNL     1       5.282   3.654  18.683  0.00  0.00    +0.000 OA
BRANCH  18  21
ATOM     21  C   UNL     1       3.041   3.244  17.291  0.00  0.00    +0.000 C 
BRANCH  21  22
ATOM     22  C   UNL     1       2.462   3.193  18.686  0.00  0.00    +0.000 A 
ATOM     23  C   UNL     1       1.295   3.906  19.008  0.00  0.00    +0.000 A 
ATOM     24  C   UNL     1       0.760   3.849  20.297  0.00  0.00    +0.000 A 
ATOM     25  C   UNL     1       1.386   3.084  21.278  0.00  0.00    +0.000 A 
ATOM     26  C   UNL     1       2.547   2.376  20.972  0.00  0.00    +0.000 A 
ATOM     27  C   UNL     1       3.082   2.429  19.683  0.00  0.00    +0.000 A 
ENDBRANCH  21  22
ENDBRANCH  18  21
ENDBRANCH  17  18
BRANCH  17  28
ATOM     28  C   UNL     1       5.788   6.287  16.790  0.00  0.00    +0.000 C 
BRANCH  28  29
ATOM     29  C   UNL     1       6.726   6.829  17.884  0.00  0.00    +0.000 C 
ATOM     30  C   UNL     1       7.709   5.734  18.330  0.00  0.00    +0.000 C 
ATOM     31  C   UNL     1       7.532   8.049  17.438  0.00  0.00    +0.000 C 
ENDBRANCH  28  29
ENDBRANCH  17  28
ENDBRANCH   1  17
TORSDOF 7
ENDMDL
MODEL 7
REMARK VINA RESULT:      -7.6      1.639      2.239
REMARK  Name = 
REMARK  10 active torsions:
REMARK  status: ('A' for Active; 'I' for Inactive)
REMARK    1  A    between atoms: C_1  and  C_2
REMARK    2  A    between atoms: C_11  and  C_12
REMARK    3  A    between atoms: C_12  and  N_13
REMARK    4  A    between atoms: N_13  and  C_14
REMARK    5  A    between atoms: N_13  and  S_18
REMARK    6  A    between atoms: C_14  and  C_15
REMARK    7  A    between atoms: C_15  and  C_16
REMARK    8  A    between atoms: C_15  and  C_17
REMARK    9  A    between atoms: S_18  and  C_21
REMARK   10  A    between atoms: C_21  and  C_22
REMARK                            x       y       z     vdW  Elec       q    Type
REMARK                         _______ _______ _______ _____ _____    ______ ____
ROOT
ATOM      1  C   UNL     1       3.282   6.341  18.335  0.00  0.00    +0.000 C 
ENDROOT
BRANCH   1  12
ATOM      2  C   UNL     1      -1.466  14.019  23.700  0.00  0.00    +0.000 C 
ATOM      3  C   UNL     1      -0.979  14.145  22.280  0.00  0.00    +0.000 C 
ATOM      4  O   UNL     1      -0.772  15.256  21.791  0.00  0.00    +0.000 OA
ATOM      5  N   UNL     1      -0.734  12.971  21.597  0.00  0.00    +0.000 N 
ATOM      6  C   UNL     1      -0.158  13.025  20.248  0.00  0.00    +0.000 C 
ATOM      7  C   UNL     1       1.010  12.031  20.101  0.00  0.00    +0.000 C 
ATOM      8  N   UNL     1       0.556  10.693  20.530  0.00  0.00    +0.000 N 
ATOM      9  C   UNL     1       1.126   9.554  19.991  0.00  0.00    +0.000 A 
ATOM     10  C   UNL     1       1.489   9.486  18.646  0.00  0.00    +0.000 A 
ATOM     11  N   UNL     1       2.102   8.431  18.067  0.00  0.00    +0.000 NA
ATOM     12  C   UNL     1       2.334   7.373  18.875  0.00  0.00    +0.000 A 
ATOM     13  C   UNL     1       1.894   7.375  20.191  0.00  0.00    +0.000 A 
ATOM     14  N   UNL     1       1.291   8.452  20.762  0.00  0.00    +0.000 NA
ATOM     15  C   UNL     1       0.103  10.649  21.926  0.00  0.00    +0.000 C 
ATOM     16  C   UNL     1      -1.086  11.616  22.067  0.00  0.00    +0.000 C 
ENDBRANCH   1  12
BRANCH   1  17
ATOM     17  N   UNL     1       4.089   5.477  19.262  0.00  0.00    +0.000 NA
BRANCH  17  18
ATOM     18  S   UNL     1       5.774   5.480  18.688  0.00  0.00    +0.000 S 
ATOM     19  O   UNL     1       5.875   6.560  17.725  0.00  0.00    +0.000 OA
ATOM     20  O   UNL     1       6.604   5.454  19.875  0.00  0.00    +0.000 OA
BRANCH  18  21
ATOM     21  C   UNL     1       5.915   3.900  17.816  0.00  0.00    +0.000 C 
BRANCH  21  22
ATOM     22  C   UNL     1       6.124   4.162  16.343  0.00  0.00    +0.000 A 
ATOM     23  C   UNL     1       7.349   4.659  15.867  0.00  0.00    +0.000 A 
ATOM     24  C   UNL     1       7.539   4.892  14.503  0.00  0.00    +0.000 A 
ATOM     25  C   UNL     1       6.508   4.637  13.602  0.00  0.00    +0.000 A 
ATOM     26  C   UNL     1       5.287   4.149  14.063  0.00  0.00    +0.000 A 
ATOM     27  C   UNL     1       5.095   3.911  15.426  0.00  0.00    +0.000 A 
ENDBRANCH  21  22
ENDBRANCH  18  21
ENDBRANCH  17  18
BRANCH  17  28
ATOM     28  C   UNL     1       3.618   4.025  19.307  0.00  0.00    +0.000 C 
BRANCH  28  29
ATOM     29  C   UNL     1       2.277   3.713  18.616  0.00  0.00    +0.000 C 
ATOM     30  C   UNL     1       2.405   2.440  17.764  0.00  0.00    +0.000 C 
ATOM     31  C   UNL     1       1.122   3.522  19.599  0.00  0.00    +0.000 C 
ENDBRANCH  28  29
ENDBRANCH  17  28
ENDBRANCH   1  17
TORSDOF 7
ENDMDL
MODEL 8
REMARK VINA RESULT:      -7.6      1.819      4.687
REMARK  Name = 
REMARK  10 active torsions:
REMARK  status: ('A' for Active; 'I' for Inactive)
REMARK    1  A    between atoms: C_1  and  C_2
REMARK    2  A    between atoms: C_11  and  C_12
REMARK    3  A    between atoms: C_12  and  N_13
REMARK    4  A    between atoms: N_13  and  C_14
REMARK    5  A    between atoms: N_13  and  S_18
REMARK    6  A    between atoms: C_14  and  C_15
REMARK    7  A    between atoms: C_15  and  C_16
REMARK    8  A    between atoms: C_15  and  C_17
REMARK    9  A    between atoms: S_18  and  C_21
REMARK   10  A    between atoms: C_21  and  C_22
REMARK                            x       y       z     vdW  Elec       q    Type
REMARK                         _______ _______ _______ _____ _____    ______ ____
ROOT
ATOM      1  C   UNL     1       4.332   6.254  17.328  0.00  0.00    +0.000 C 
ENDROOT
BRANCH   1  12
ATOM      2  C   UNL     1      -1.710  12.693  23.012  0.00  0.00    +0.000 C 
ATOM      3  C   UNL     1      -1.177  13.013  21.640  0.00  0.00    +0.000 C 
ATOM      4  O   UNL     1      -1.104  14.182  21.259  0.00  0.00    +0.000 OA
ATOM      5  N   UNL     1      -0.736  11.950  20.878  0.00  0.00    +0.000 N 
ATOM      6  C   UNL     1      -0.107  12.205  19.576  0.00  0.00    +0.000 C 
ATOM      7  C   UNL     1       1.195  11.397  19.419  0.00  0.00    +0.000 C 
ATOM      8  N   UNL     1       0.915   9.976  19.706  0.00  0.00    +0.000 N 
ATOM      9  C   UNL     1       1.665   8.979  19.111  0.00  0.00    +0.000 A 
ATOM     10  C   UNL     1       2.100   9.084  17.790  0.00  0.00    +0.000 A 
ATOM     11  N   UNL     1       2.883   8.179  17.163  0.00  0.00    +0.000 NA
ATOM     12  C   UNL     1       3.222   7.094  17.893  0.00  0.00    +0.000 A 
ATOM     13  C   UNL     1       2.722   6.916  19.175  0.00  0.00    +0.000 A 
ATOM     14  N   UNL     1       1.946   7.844  19.795  0.00  0.00    +0.000 NA
ATOM     15  C   UNL     1       0.404   9.745  21.063  0.00  0.00    +0.000 C 
ATOM     16  C   UNL     1      -0.915  10.524  21.211  0.00  0.00    +0.000 C 
ENDBRANCH   1  12
BRANCH   1  17
ATOM     17  N   UNL     1       4.349   4.765  17.528  0.00  0.00    +0.000 NA
BRANCH  17  18
ATOM     18  S   UNL     1       5.416   4.409  18.908  0.00  0.00    +0.000 S 
ATOM     19  O   UNL     1       6.732   4.157  18.351  0.00  0.00    +0.000 OA
ATOM     20  O   UNL     1       5.201   5.471  19.869  0.00  0.00    +0.000 OA
BRANCH  18  21
ATOM     21  C   UNL     1       4.745   2.858  19.557  0.00  0.00    +0.000 C 
BRANCH  21  22
ATOM     22  C   UNL     1       3.238   2.954  19.613  0.00  0.00    +0.000 A 
ATOM     23  C   UNL     1       2.441   2.347  18.628  0.00  0.00    +0.000 A 
ATOM     24  C   UNL     1       1.048   2.433  18.690  0.00  0.00    +0.000 A 
ATOM     25  C   UNL     1       0.438   3.127  19.730  0.00  0.00    +0.000 A 
ATOM     26  C   UNL     1       1.218   3.737  20.710  0.00  0.00    +0.000 A 
ATOM     27  C   UNL     1       2.610   3.651  20.654  0.00  0.00    +0.000 A 
ENDBRANCH  21  22
ENDBRANCH  18  21
ENDBRANCH  17  18
BRANCH  17  28
ATOM     28  C   UNL     1       4.879   3.993  16.322  0.00  0.00    +0.000 C 
BRANCH  28  29
ATOM     29  C   UNL     1       5.488   4.830  15.181  0.00  0.00    +0.000 C 
ATOM     30  C   UNL     1       6.993   5.034  15.421  0.00  0.00    +0.000 C 
ATOM     31  C   UNL     1       5.300   4.197  13.803  0.00  0.00    +0.000 C 
ENDBRANCH  28  29
ENDBRANCH  17  28
ENDBRANCH   1  17
TORSDOF 7
ENDMDL
MODEL 9
REMARK VINA RESULT:      -7.6      1.458      1.955
REMARK  Name = 
REMARK  10 active torsions:
REMARK  status: ('A' for Active; 'I' for Inactive)
REMARK    1  A    between atoms: C_1  and  C_2
REMARK    2  A    between atoms: C_11  and  C_12
REMARK    3  A    between atoms: C_12  and  N_13
REMARK    4  A    between atoms: N_13  and  C_14
REMARK    5  A    between atoms: N_13  and  S_18
REMARK    6  A    between atoms: C_14  and  C_15
REMARK    7  A    between atoms: C_15  and  C_16
REMARK    8  A    between atoms: C_15  and  C_17
REMARK    9  A    between atoms: S_18  and  C_21
REMARK   10  A    between atoms: C_21  and  C_22
REMARK                            x       y       z     vdW  Elec       q    Type
REMARK                         _______ _______ _______ _____ _____    ______ ____
ROOT
ATOM      1  C   UNL     1       3.309   6.325  17.635  0.00  0.00    +0.000 C 
ENDROOT
BRANCH   1  12
ATOM      2  C   UNL     1      -1.002  14.037  23.310  0.00  0.00    +0.000 C 
ATOM      3  C   UNL     1      -0.625  14.156  21.857  0.00  0.00    +0.000 C 
ATOM      4  O   UNL     1      -0.452  15.264  21.349  0.00  0.00    +0.000 OA
ATOM      5  N   UNL     1      -0.434  12.978  21.163  0.00  0.00    +0.000 N 
ATOM      6  C   UNL     1       0.039  13.025  19.774  0.00  0.00    +0.000 C 
ATOM      7  C   UNL     1       1.190  12.028  19.544  0.00  0.00    +0.000 C 
ATOM      8  N   UNL     1       0.767  10.693  20.011  0.00  0.00    +0.000 N 
ATOM      9  C   UNL     1       1.292   9.550  19.436  0.00  0.00    +0.000 A 
ATOM     10  C   UNL     1       1.551   9.475  18.068  0.00  0.00    +0.000 A 
ATOM     11  N   UNL     1       2.116   8.416  17.449  0.00  0.00    +0.000 NA
ATOM     12  C   UNL     1       2.407   7.361  18.241  0.00  0.00    +0.000 A 
ATOM     13  C   UNL     1       2.068   7.370  19.587  0.00  0.00    +0.000 A 
ATOM     14  N   UNL     1       1.512   8.450  20.196  0.00  0.00    +0.000 NA
ATOM     15  C   UNL     1       0.420  10.656  21.438  0.00  0.00    +0.000 C 
ATOM     16  C   UNL     1      -0.752  11.627  21.664  0.00  0.00    +0.000 C 
ENDBRANCH   1  12
BRANCH   1  17
ATOM     17  N   UNL     1       4.693   6.099  18.174  0.00  0.00    +0.000 NA
BRANCH  17  18
ATOM     18  S   UNL     1       5.842   6.264  16.825  0.00  0.00    +0.000 S 
ATOM     19  O   UNL     1       5.102   6.864  15.730  0.00  0.00    +0.000 OA
ATOM     20  O   UNL     1       7.019   6.905  17.374  0.00  0.00    +0.000 OA
BRANCH  18  21
ATOM     21  C   UNL     1       6.230   4.547  16.402  0.00  0.00    +0.000 C 
BRANCH  21  22
ATOM     22  C   UNL     1       6.462   4.442  14.913  0.00  0.00    +0.000 A 
ATOM     23  C   UNL     1       7.564   5.072  14.310  0.00  0.00    +0.000 A 
ATOM     24  C   UNL     1       7.777   4.965  12.933  0.00  0.00    +0.000 A 
ATOM     25  C   UNL     1       6.891   4.235  12.145  0.00  0.00    +0.000 A 
ATOM     26  C   UNL     1       5.792   3.610  12.731  0.00  0.00    +0.000 A 
ATOM     27  C   UNL     1       5.578   3.712  14.107  0.00  0.00    +0.000 A 
ENDBRANCH  21  22
ENDBRANCH  18  21
ENDBRANCH  17  18
BRANCH  17  28
ATOM     28  C   UNL     1       4.892   4.713  18.785  0.00  0.00    +0.000 C 
BRANCH  28  29
ATOM     29  C   UNL     1       3.647   3.809  18.863  0.00  0.00    +0.000 C 
ATOM     30  C   UNL     1       4.048   2.338  18.665  0.00  0.00    +0.000 C 
ATOM     31  C   UNL     1       2.895   3.931  20.188  0.00  0.00    +0.000 C 
ENDBRANCH  28  29
ENDBRANCH  17  28
ENDBRANCH   1  17
TORSDOF 7
ENDMDL
