MODEL 1
REMARK VINA RESULT:      -8.2      0.000      0.000
REMARK  Name = 
REMARK  1 active torsions:
REMARK  status: ('A' for Active; 'I' for Inactive)
REMARK    1  A    between atoms: C_4  and  C_5
REMARK                            x       y       z     vdW  Elec       q    Type
REMARK                         _______ _______ _______ _____ _____    ______ ____
ROOT
ATOM      1  N   UNL     1       4.129   6.978  17.584  0.00  0.00    +0.000 NA
ATOM      2  C   UNL     1       4.331   5.789  17.134  0.00  0.00    +0.000 A 
ATOM      3  O   UNL     1       5.013   5.624  15.971  0.00  0.00    +0.000 OA
ATOM      4  C   UNL     1       5.241   4.350  15.541  0.00  0.00    +0.000 A 
ATOM      5  N   UNL     1       4.881   3.244  16.114  0.00  0.00    +0.000 NA
ATOM      6  C   UNL     1       4.182   3.417  17.257  0.00  0.00    +0.000 A 
ATOM      7  S   UNL     1       3.605   2.097  18.167  0.00  0.00    +0.000 S 
ATOM      8  C   UNL     1       2.932   3.133  19.338  0.00  0.00    +0.000 A 
ATOM      9  C   UNL     1       3.112   4.473  19.036  0.00  0.00    +0.000 A 
ATOM     10  C   UNL     1       3.862   4.623  17.828  0.00  0.00    +0.000 A 
ATOM     11  C   UNL     1       2.594   5.561  19.930  0.00  0.00    +0.000 C 
ATOM     12  C   UNL     1       1.557   5.027  20.932  0.00  0.00    +0.000 C 
ATOM     13  C   UNL     1       2.020   3.715  21.579  0.00  0.00    +0.000 C 
ATOM     14  C   UNL     1       2.200   2.606  20.531  0.00  0.00    +0.000 C 
ATOM     15  H   UNL     1       4.563   7.628  16.922  0.00  0.00    +0.000 HD
ENDROOT
BRANCH   4  16
ATOM     16  C   UNL     1       6.036   4.372  14.289  0.00  0.00    +0.000 A 
ATOM     17  C   UNL     1       5.610   3.588  13.209  0.00  0.00    +0.000 A 
ATOM     18  C   UNL     1       6.343   3.574  12.022  0.00  0.00    +0.000 A 
ATOM     19  C   UNL     1       7.495   4.351  11.904  0.00  0.00    +0.000 A 
ATOM     20  C   UNL     1       7.915   5.145  12.971  0.00  0.00    +0.000 A 
ATOM     21  C   UNL     1       7.189   5.158  14.163  0.00  0.00    +0.000 A 
ENDBRANCH   4  16
TORSDOF 1
ENDMDL
MODEL 2
REMARK VINA RESULT:      -8.1      0.064      1.083
REMARK  Name = 
REMARK  1 active torsions:
REMARK  status: ('A' for Active; 'I' for Inactive)
REMARK    1  A    between atoms: C_4  and  C_5
REMARK                            x       y       z     vdW  Elec       q    Type
REMARK                         _______ _______ _______ _____ _____    ______ ____
ROOT
ATOM      1  N   UNL     1       4.073   6.977  17.522  0.00  0.00    +0.000 NA
ATOM      2  C   UNL     1       4.302   5.784  17.094  0.00  0.00    +0.000 A 
ATOM      3  O   UNL     1       4.987   5.613  15.934  0.00  0.00    +0.000 OA
ATOM      4  C   UNL     1       5.244   4.336  15.528  0.00  0.00    +0.000 A 
ATOM      5  N   UNL     1       4.908   3.233  16.122  0.00  0.00    +0.000 NA
ATOM      6  C   UNL     1       4.207   3.412  17.262  0.00  0.00    +0.000 A 
ATOM      7  S   UNL     1       3.660   2.097  18.197  0.00  0.00    +0.000 S 
ATOM      8  C   UNL     1       2.964   3.139  19.349  0.00  0.00    +0.000 A 
ATOM      9  C   UNL     1       3.114   4.477  19.022  0.00  0.00    +0.000 A 
ATOM     10  C   UNL     1       3.860   4.621  17.811  0.00  0.00    +0.000 A 
ATOM     11  C   UNL     1       2.572   5.570  19.896  0.00  0.00    +0.000 C 
ATOM     12  C   UNL     1       1.547   5.032  20.908  0.00  0.00    +0.000 C 
ATOM     13  C   UNL     1       2.040   3.743  21.580  0.00  0.00    +0.000 C 
ATOM     14  C   UNL     1       2.245   2.618  20.553  0.00  0.00    +0.000 C 
ATOM     15  H   UNL     1       4.492   7.624  16.847  0.00  0.00    +0.000 HD
ENDROOT
BRANCH   4  16
ATOM     16  C   UNL     1       6.037   4.353  14.275  0.00  0.00    +0.000 A 
ATOM     17  C   UNL     1       7.162   5.186  14.203  0.00  0.00    +0.000 A 
ATOM     18  C   UNL     1       7.922   5.235  13.034  0.00  0.00    +0.000 A 
ATOM     19  C   UNL     1       7.569   4.448  11.939  0.00  0.00    +0.000 A 
ATOM     20  C   UNL     1       6.460   3.606  12.010  0.00  0.00    +0.000 A 
ATOM     21  C   UNL     1       5.692   3.556  13.175  0.00  0.00    +0.000 A 
ENDBRANCH   4  16
TORSDOF 1
ENDMDL
MODEL 3
REMARK VINA RESULT:      -7.7      1.538      2.347
REMARK  Name = 
REMARK  1 active torsions:
REMARK  status: ('A' for Active; 'I' for Inactive)
REMARK    1  A    between atoms: C_4  and  C_5
REMARK                            x       y       z     vdW  Elec       q    Type
REMARK                         _______ _______ _______ _____ _____    ______ ____
ROOT
ATOM      1  N   UNL     1       4.121   2.315  17.736  0.00  0.00    +0.000 NA
ATOM      2  C   UNL     1       4.386   3.454  17.197  0.00  0.00    +0.000 A 
ATOM      3  O   UNL     1       5.119   3.495  16.054  0.00  0.00    +0.000 OA
ATOM      4  C   UNL     1       5.351   4.714  15.489  0.00  0.00    +0.000 A 
ATOM      5  N   UNL     1       4.953   5.873  15.913  0.00  0.00    +0.000 NA
ATOM      6  C   UNL     1       4.245   5.826  17.063  0.00  0.00    +0.000 A 
ATOM      7  S   UNL     1       3.631   7.234  17.799  0.00  0.00    +0.000 S 
ATOM      8  C   UNL     1       2.923   6.330  19.056  0.00  0.00    +0.000 A 
ATOM      9  C   UNL     1       3.168   4.971  18.943  0.00  0.00    +0.000 A 
ATOM     10  C   UNL     1       3.924   4.690  17.763  0.00  0.00    +0.000 A 
ATOM     11  C   UNL     1       2.641   3.987  19.946  0.00  0.00    +0.000 C 
ATOM     12  C   UNL     1       2.181   4.683  21.237  0.00  0.00    +0.000 C 
ATOM     13  C   UNL     1       1.343   5.933  20.937  0.00  0.00    +0.000 C 
ATOM     14  C   UNL     1       2.156   6.981  20.163  0.00  0.00    +0.000 C 
ATOM     15  H   UNL     1       4.549   1.595  17.145  0.00  0.00    +0.000 HD
ENDROOT
BRANCH   4  16
ATOM     16  C   UNL     1       6.122   4.552  14.232  0.00  0.00    +0.000 A 
ATOM     17  C   UNL     1       5.668   3.630  13.279  0.00  0.00    +0.000 A 
ATOM     18  C   UNL     1       6.378   3.443  12.093  0.00  0.00    +0.000 A 
ATOM     19  C   UNL     1       7.534   4.181  11.848  0.00  0.00    +0.000 A 
ATOM     20  C   UNL     1       7.982   5.111  12.786  0.00  0.00    +0.000 A 
ATOM     21  C   UNL     1       7.280   5.299  13.977  0.00  0.00    +0.000 A 
ENDBRANCH   4  16
TORSDOF 1
ENDMDL
MODEL 4
REMARK VINA RESULT:      -7.7      3.919      8.009
REMARK  Name = 
REMARK  1 active torsions:
REMARK  status: ('A' for Active; 'I' for Inactive)
REMARK    1  A    between atoms: C_4  and  C_5
REMARK                            x       y       z     vdW  Elec       q    Type
REMARK                         _______ _______ _______ _____ _____    ______ ____
ROOT
ATOM      1  N   UNL     1       2.813   8.149  17.587  0.00  0.00    +0.000 NA
ATOM      2  C   UNL     1       2.345   7.787  18.731  0.00  0.00    +0.000 A 
ATOM      3  O   UNL     1       1.703   8.699  19.507  0.00  0.00    +0.000 OA
ATOM      4  C   UNL     1       1.188   8.275  20.696  0.00  0.00    +0.000 A 
ATOM      5  N   UNL     1       1.234   7.080  21.198  0.00  0.00    +0.000 NA
ATOM      6  C   UNL     1       1.895   6.185  20.432  0.00  0.00    +0.000 A 
ATOM      7  S   UNL     1       2.080   4.559  20.906  0.00  0.00    +0.000 S 
ATOM      8  C   UNL     1       2.929   4.186  19.479  0.00  0.00    +0.000 A 
ATOM      9  C   UNL     1       3.101   5.285  18.654  0.00  0.00    +0.000 A 
ATOM     10  C   UNL     1       2.474   6.441  19.215  0.00  0.00    +0.000 A 
ATOM     11  C   UNL     1       3.827   5.186  17.345  0.00  0.00    +0.000 C 
ATOM     12  C   UNL     1       4.648   3.889  17.248  0.00  0.00    +0.000 C 
ATOM     13  C   UNL     1       3.842   2.674  17.725  0.00  0.00    +0.000 C 
ATOM     14  C   UNL     1       3.446   2.809  19.204  0.00  0.00    +0.000 C 
ATOM     15  H   UNL     1       2.587   9.141  17.471  0.00  0.00    +0.000 HD
ENDROOT
BRANCH   4  16
ATOM     16  C   UNL     1       0.488   9.393  21.373  0.00  0.00    +0.000 A 
ATOM     17  C   UNL     1       0.568  10.674  20.812  0.00  0.00    +0.000 A 
ATOM     18  C   UNL     1      -0.067  11.750  21.432  0.00  0.00    +0.000 A 
ATOM     19  C   UNL     1      -0.791  11.551  22.606  0.00  0.00    +0.000 A 
ATOM     20  C   UNL     1      -0.887  10.276  23.162  0.00  0.00    +0.000 A 
ATOM     21  C   UNL     1      -0.249   9.195  22.549  0.00  0.00    +0.000 A 
ENDBRANCH   4  16
TORSDOF 1
ENDMDL
MODEL 5
REMARK VINA RESULT:      -7.7      3.429      4.825
REMARK  Name = 
REMARK  1 active torsions:
REMARK  status: ('A' for Active; 'I' for Inactive)
REMARK    1  A    between atoms: C_4  and  C_5
REMARK                            x       y       z     vdW  Elec       q    Type
REMARK                         _______ _______ _______ _____ _____    ______ ____
ROOT
ATOM      1  N   UNL     1       2.363   5.565  20.803  0.00  0.00    +0.000 NA
ATOM      2  C   UNL     1       2.664   6.207  19.728  0.00  0.00    +0.000 A 
ATOM      3  O   UNL     1       3.472   5.622  18.807  0.00  0.00    +0.000 OA
ATOM      4  C   UNL     1       3.742   6.315  17.664  0.00  0.00    +0.000 A 
ATOM      5  N   UNL     1       3.316   7.495  17.333  0.00  0.00    +0.000 NA
ATOM      6  C   UNL     1       2.533   8.080  18.265  0.00  0.00    +0.000 A 
ATOM      7  S   UNL     1       1.872   9.633  18.038  0.00  0.00    +0.000 S 
ATOM      8  C   UNL     1       1.080   9.573  19.544  0.00  0.00    +0.000 A 
ATOM      9  C   UNL     1       1.331   8.399  20.235  0.00  0.00    +0.000 A 
ATOM     10  C   UNL     1       2.165   7.528  19.467  0.00  0.00    +0.000 A 
ATOM     11  C   UNL     1       0.738   8.136  21.588  0.00  0.00    +0.000 C 
ATOM     12  C   UNL     1       0.193   9.423  22.229  0.00  0.00    +0.000 C 
ATOM     13  C   UNL     1      -0.623  10.251  21.227  0.00  0.00    +0.000 C 
ATOM     14  C   UNL     1       0.241  10.707  20.041  0.00  0.00    +0.000 C 
ATOM     15  H   UNL     1       2.829   4.654  20.749  0.00  0.00    +0.000 HD
ENDROOT
BRANCH   4  16
ATOM     16  C   UNL     1       4.595   5.500  16.766  0.00  0.00    +0.000 A 
ATOM     17  C   UNL     1       5.231   6.130  15.688  0.00  0.00    +0.000 A 
ATOM     18  C   UNL     1       6.029   5.389  14.816  0.00  0.00    +0.000 A 
ATOM     19  C   UNL     1       6.203   4.022  15.021  0.00  0.00    +0.000 A 
ATOM     20  C   UNL     1       5.584   3.392  16.100  0.00  0.00    +0.000 A 
ATOM     21  C   UNL     1       4.780   4.127  16.974  0.00  0.00    +0.000 A 
ENDBRANCH   4  16
TORSDOF 1
ENDMDL
MODEL 6
REMARK VINA RESULT:      -7.7      1.517      2.564
REMARK  Name = 
REMARK  1 active torsions:
REMARK  status: ('A' for Active; 'I' for Inactive)
REMARK    1  A    between atoms: C_4  and  C_5
REMARK                            x       y       z     vdW  Elec       q    Type
REMARK                         _______ _______ _______ _____ _____    ______ ____
ROOT
ATOM      1  N   UNL     1       4.086   2.214  17.710  0.00  0.00    +0.000 NA
ATOM      2  C   UNL     1       4.357   3.356  17.179  0.00  0.00    +0.000 A 
ATOM      3  O   UNL     1       5.084   3.401  16.033  0.00  0.00    +0.000 OA
ATOM      4  C   UNL     1       5.324   4.623  15.477  0.00  0.00    +0.000 A 
ATOM      5  N   UNL     1       4.938   5.782  15.915  0.00  0.00    +0.000 NA
ATOM      6  C   UNL     1       4.236   5.730  17.068  0.00  0.00    +0.000 A 
ATOM      7  S   UNL     1       3.639   7.137  17.821  0.00  0.00    +0.000 S 
ATOM      8  C   UNL     1       2.930   6.227  19.073  0.00  0.00    +0.000 A 
ATOM      9  C   UNL     1       3.162   4.867  18.946  0.00  0.00    +0.000 A 
ATOM     10  C   UNL     1       3.909   4.591  17.759  0.00  0.00    +0.000 A 
ATOM     11  C   UNL     1       2.632   3.878  19.943  0.00  0.00    +0.000 C 
ATOM     12  C   UNL     1       2.186   4.566  21.244  0.00  0.00    +0.000 C 
ATOM     13  C   UNL     1       1.356   5.826  20.959  0.00  0.00    +0.000 C 
ATOM     14  C   UNL     1       2.174   6.875  20.190  0.00  0.00    +0.000 C 
ATOM     15  H   UNL     1       4.504   1.497  17.110  0.00  0.00    +0.000 HD
ENDROOT
BRANCH   4  16
ATOM     16  C   UNL     1       6.086   4.467  14.215  0.00  0.00    +0.000 A 
ATOM     17  C   UNL     1       7.251   5.224  14.035  0.00  0.00    +0.000 A 
ATOM     18  C   UNL     1       7.983   5.111  12.853  0.00  0.00    +0.000 A 
ATOM     19  C   UNL     1       7.563   4.236  11.853  0.00  0.00    +0.000 A 
ATOM     20  C   UNL     1       6.412   3.469  12.032  0.00  0.00    +0.000 A 
ATOM     21  C   UNL     1       5.672   3.581  13.211  0.00  0.00    +0.000 A 
ENDBRANCH   4  16
TORSDOF 1
ENDMDL
MODEL 7
REMARK VINA RESULT:      -7.7      3.917      7.988
REMARK  Name = 
REMARK  1 active torsions:
REMARK  status: ('A' for Active; 'I' for Inactive)
REMARK    1  A    between atoms: C_4  and  C_5
REMARK                            x       y       z     vdW  Elec       q    Type
REMARK                         _______ _______ _______ _____ _____    ______ ____
ROOT
ATOM      1  N   UNL     1       2.836   8.101  17.610  0.00  0.00    +0.000 NA
ATOM      2  C   UNL     1       2.357   7.756  18.755  0.00  0.00    +0.000 A 
ATOM      3  O   UNL     1       1.726   8.684  19.519  0.00  0.00    +0.000 OA
ATOM      4  C   UNL     1       1.199   8.278  20.710  0.00  0.00    +0.000 A 
ATOM      5  N   UNL     1       1.224   7.087  21.222  0.00  0.00    +0.000 NA
ATOM      6  C   UNL     1       1.874   6.175  20.467  0.00  0.00    +0.000 A 
ATOM      7  S   UNL     1       2.031   4.550  20.955  0.00  0.00    +0.000 S 
ATOM      8  C   UNL     1       2.880   4.152  19.535  0.00  0.00    +0.000 A 
ATOM      9  C   UNL     1       3.074   5.242  18.702  0.00  0.00    +0.000 A 
ATOM     10  C   UNL     1       2.463   6.412  19.250  0.00  0.00    +0.000 A 
ATOM     11  C   UNL     1       3.804   5.120  17.397  0.00  0.00    +0.000 C 
ATOM     12  C   UNL     1       4.605   3.810  17.314  0.00  0.00    +0.000 C 
ATOM     13  C   UNL     1       3.777   2.611  17.798  0.00  0.00    +0.000 C 
ATOM     14  C   UNL     1       3.377   2.765  19.273  0.00  0.00    +0.000 C 
ATOM     15  H   UNL     1       2.626   9.096  17.484  0.00  0.00    +0.000 HD
ENDROOT
BRANCH   4  16
ATOM     16  C   UNL     1       0.514   9.413  21.375  0.00  0.00    +0.000 A 
ATOM     17  C   UNL     1      -0.222   9.163  22.541  0.00  0.00    +0.000 A 
ATOM     18  C   UNL     1      -0.891  10.206  23.183  0.00  0.00    +0.000 A 
ATOM     19  C   UNL     1      -0.819  11.500  22.671  0.00  0.00    +0.000 A 
ATOM     20  C   UNL     1      -0.077  11.757  21.519  0.00  0.00    +0.000 A 
ATOM     21  C   UNL     1       0.590  10.717  20.869  0.00  0.00    +0.000 A 
ENDBRANCH   4  16
TORSDOF 1
ENDMDL
MODEL 8
REMARK VINA RESULT:      -7.7      3.529      4.894
REMARK  Name = 
REMARK  1 active torsions:
REMARK  status: ('A' for Active; 'I' for Inactive)
REMARK    1  A    between atoms: C_4  and  C_5
REMARK                            x       y       z     vdW  Elec       q    Type
REMARK                         _______ _______ _______ _____ _____    ______ ____
ROOT
ATOM      1  N   UNL     1       2.362   5.748  20.876  0.00  0.00    +0.000 NA
ATOM      2  C   UNL     1       2.637   6.370  19.782  0.00  0.00    +0.000 A 
ATOM      3  O   UNL     1       3.430   5.770  18.857  0.00  0.00    +0.000 OA
ATOM      4  C   UNL     1       3.673   6.440  17.694  0.00  0.00    +0.000 A 
ATOM      5  N   UNL     1       3.234   7.611  17.348  0.00  0.00    +0.000 NA
ATOM      6  C   UNL     1       2.466   8.211  18.283  0.00  0.00    +0.000 A 
ATOM      7  S   UNL     1       1.791   9.756  18.038  0.00  0.00    +0.000 S 
ATOM      8  C   UNL     1       1.030   9.722  19.560  0.00  0.00    +0.000 A 
ATOM      9  C   UNL     1       1.302   8.564  20.270  0.00  0.00    +0.000 A 
ATOM     10  C   UNL     1       2.125   7.682  19.503  0.00  0.00    +0.000 A 
ATOM     11  C   UNL     1       0.738   8.326  21.640  0.00  0.00    +0.000 C 
ATOM     12  C   UNL     1       0.198   9.623  22.266  0.00  0.00    +0.000 C 
ATOM     13  C   UNL     1      -0.643  10.425  21.263  0.00  0.00    +0.000 C 
ATOM     14  C   UNL     1       0.195  10.861  20.051  0.00  0.00    +0.000 C 
ATOM     15  H   UNL     1       2.832   4.839  20.831  0.00  0.00    +0.000 HD
ENDROOT
BRANCH   4  16
ATOM     16  C   UNL     1       4.512   5.611  16.796  0.00  0.00    +0.000 A 
ATOM     17  C   UNL     1       4.521   4.222  16.977  0.00  0.00    +0.000 A 
ATOM     18  C   UNL     1       5.311   3.414  16.159  0.00  0.00    +0.000 A 
ATOM     19  C   UNL     1       6.086   3.988  15.152  0.00  0.00    +0.000 A 
ATOM     20  C   UNL     1       6.070   5.368  14.957  0.00  0.00    +0.000 A 
ATOM     21  C   UNL     1       5.285   6.183  15.777  0.00  0.00    +0.000 A 
ENDBRANCH   4  16
TORSDOF 1
ENDMDL
MODEL 9
REMARK VINA RESULT:      -7.6      4.173      5.758
REMARK  Name = 
REMARK  1 active torsions:
REMARK  status: ('A' for Active; 'I' for Inactive)
REMARK    1  A    between atoms: C_4  and  C_5
REMARK                            x       y       z     vdW  Elec       q    Type
REMARK                         _______ _______ _______ _____ _____    ______ ____
ROOT
ATOM      1  N   UNL     1       1.875  10.375  17.455  0.00  0.00    +0.000 NA
ATOM      2  C   UNL     1       2.009   9.271  18.104  0.00  0.00    +0.000 A 
ATOM      3  O   UNL     1       2.717   8.254  17.549  0.00  0.00    +0.000 OA
ATOM      4  C   UNL     1       2.869   7.111  18.277  0.00  0.00    +0.000 A 
ATOM      5  N   UNL     1       2.413   6.862  19.465  0.00  0.00    +0.000 NA
ATOM      6  C   UNL     1       1.690   7.869  20.001  0.00  0.00    +0.000 A 
ATOM      7  S   UNL     1       0.991   7.750  21.550  0.00  0.00    +0.000 S 
ATOM      8  C   UNL     1       0.352   9.324  21.439  0.00  0.00    +0.000 A 
ATOM      9  C   UNL     1       0.637   9.935  20.229  0.00  0.00    +0.000 A 
ATOM     10  C   UNL     1       1.436   9.080  19.407  0.00  0.00    +0.000 A 
ATOM     11  C   UNL     1       0.166  11.324  19.914  0.00  0.00    +0.000 C 
ATOM     12  C   UNL     1      -0.940  11.782  20.879  0.00  0.00    +0.000 C 
ATOM     13  C   UNL     1      -0.592  11.445  22.336  0.00  0.00    +0.000 C 
ATOM     14  C   UNL     1      -0.454   9.929  22.544  0.00  0.00    +0.000 C 
ATOM     15  H   UNL     1       2.376  10.265  16.568  0.00  0.00    +0.000 HD
ENDROOT
BRANCH   4  16
ATOM     16  C   UNL     1       3.706   6.141  17.530  0.00  0.00    +0.000 A 
ATOM     17  C   UNL     1       4.727   6.629  16.705  0.00  0.00    +0.000 A 
ATOM     18  C   UNL     1       5.523   5.744  15.977  0.00  0.00    +0.000 A 
ATOM     19  C   UNL     1       5.310   4.370  16.077  0.00  0.00    +0.000 A 
ATOM     20  C   UNL     1       4.304   3.877  16.908  0.00  0.00    +0.000 A 
ATOM     21  C   UNL     1       3.501   4.759  17.635  0.00  0.00    +0.000 A 
ENDBRANCH   4  16
TORSDOF 1
ENDMDL
