MODEL 1
REMARK VINA RESULT:      -7.6      0.000      0.000
REMARK  Name = 
REMARK  6 active torsions:
REMARK  status: ('A' for Active; 'I' for Inactive)
REMARK    1  A    between atoms: C_1  and  O_2
REMARK    2  A    between atoms: O_2  and  C_3
REMARK    3  A    between atoms: C_3  and  C_4
REMARK    4  A    between atoms: C_4  and  N_5
REMARK    5  A    between atoms: C_8  and  O_9
REMARK    6  A    between atoms: O_9  and  C_10
REMARK                            x       y       z     vdW  Elec       q    Type
REMARK                         _______ _______ _______ _____ _____    ______ ____
ROOT
ATOM      1  N   UNL     1       8.262   7.592  18.751  0.00  0.00    +0.000 N 
ATOM      2  C   UNL     1       7.511   6.600  18.141  0.00  0.00    +0.000 A 
ATOM      3  N   UNL     1       6.889   5.756  18.967  0.00  0.00    +0.000 NA
ATOM      4  C   UNL     1       6.166   4.738  18.446  0.00  0.00    +0.000 A 
ATOM      5  C   UNL     1       6.012   4.648  17.071  0.00  0.00    +0.000 A 
ATOM      6  S   UNL     1       5.118   3.550  16.101  0.00  0.00    +0.000 S 
ATOM      7  C   UNL     1       5.623   4.306  14.653  0.00  0.00    +0.000 A 
ATOM      8  C   UNL     1       6.466   5.368  14.895  0.00  0.00    +0.000 A 
ATOM      9  C   UNL     1       6.682   5.576  16.288  0.00  0.00    +0.000 A 
ATOM     10  N   UNL     1       7.448   6.554  16.810  0.00  0.00    +0.000 NA
ATOM     11  H   UNL     1       7.964   7.667  19.716  0.00  0.00    +0.000 HD
ENDROOT
BRANCH   1  12
ATOM     12  C   UNL     1       8.367   8.830  17.986  0.00  0.00    +0.000 C 
BRANCH  12  13
ATOM     13  C   UNL     1       9.053   9.934  18.794  0.00  0.00    +0.000 C 
BRANCH  13  15
ATOM     14  C   UNL     1      10.435  11.669  17.993  0.00  0.00    +0.000 C 
ATOM     15  O   UNL     1       9.120  11.136  18.025  0.00  0.00    +0.000 OA
ENDBRANCH  13  15
ENDBRANCH  12  13
ENDBRANCH   1  12
BRANCH   4  16
ATOM     16  O   UNL     1       5.529   3.838  19.289  0.00  0.00    +0.000 OA
BRANCH  16  17
ATOM     17  C   UNL     1       4.215   4.078  19.623  0.00  0.00    +0.000 A 
ATOM     18  C   UNL     1       3.632   5.351  19.639  0.00  0.00    +0.000 A 
ATOM     19  C   UNL     1       2.298   5.512  20.020  0.00  0.00    +0.000 A 
ATOM     20  C   UNL     1       1.553   4.402  20.417  0.00  0.00    +0.000 A 
ATOM     21  C   UNL     1       2.151   3.147  20.434  0.00  0.00    +0.000 A 
ATOM     22  F   UNL     1       1.437   2.086  20.834  0.00  0.00    +0.000 F 
ATOM     23  C   UNL     1       3.474   2.975  20.047  0.00  0.00    +0.000 A 
ENDBRANCH  16  17
ENDBRANCH   4  16
TORSDOF 5
ENDMDL
MODEL 2
REMARK VINA RESULT:      -7.5      3.658      5.187
REMARK  Name = 
REMARK  6 active torsions:
REMARK  status: ('A' for Active; 'I' for Inactive)
REMARK    1  A    between atoms: C_1  and  O_2
REMARK    2  A    between atoms: O_2  and  C_3
REMARK    3  A    between atoms: C_3  and  C_4
REMARK    4  A    between atoms: C_4  and  N_5
REMARK    5  A    between atoms: C_8  and  O_9
REMARK    6  A    between atoms: O_9  and  C_10
REMARK                            x       y       z     vdW  Elec       q    Type
REMARK                         _______ _______ _______ _____ _____    ______ ____
ROOT
ATOM      1  N   UNL     1       6.716   5.153  18.849  0.00  0.00    +0.000 N 
ATOM      2  C   UNL     1       5.391   4.761  18.958  0.00  0.00    +0.000 A 
ATOM      3  N   UNL     1       4.580   5.632  19.562  0.00  0.00    +0.000 NA
ATOM      4  C   UNL     1       3.279   5.306  19.738  0.00  0.00    +0.000 A 
ATOM      5  C   UNL     1       2.798   4.118  19.209  0.00  0.00    +0.000 A 
ATOM      6  S   UNL     1       1.219   3.446  19.185  0.00  0.00    +0.000 S 
ATOM      7  C   UNL     1       1.749   2.050  18.351  0.00  0.00    +0.000 A 
ATOM      8  C   UNL     1       3.103   2.083  18.102  0.00  0.00    +0.000 A 
ATOM      9  C   UNL     1       3.708   3.279  18.584  0.00  0.00    +0.000 A 
ATOM     10  N   UNL     1       5.015   3.583  18.461  0.00  0.00    +0.000 NA
ATOM     11  H   UNL     1       6.764   6.154  18.991  0.00  0.00    +0.000 HD
ENDROOT
BRANCH   1  12
ATOM     12  C   UNL     1       7.416   4.608  17.691  0.00  0.00    +0.000 C 
BRANCH  12  13
ATOM     13  C   UNL     1       7.205   5.475  16.447  0.00  0.00    +0.000 C 
BRANCH  13  15
ATOM     14  C   UNL     1       6.408   4.110  14.697  0.00  0.00    +0.000 C 
ATOM     15  O   UNL     1       7.543   4.738  15.271  0.00  0.00    +0.000 OA
ENDBRANCH  13  15
ENDBRANCH  12  13
ENDBRANCH   1  12
BRANCH   4  16
ATOM     16  O   UNL     1       2.424   6.189  20.383  0.00  0.00    +0.000 OA
BRANCH  16  17
ATOM     17  C   UNL     1       2.044   7.332  19.714  0.00  0.00    +0.000 A 
ATOM     18  C   UNL     1       2.370   7.601  18.379  0.00  0.00    +0.000 A 
ATOM     19  C   UNL     1       1.971   8.800  17.783  0.00  0.00    +0.000 A 
ATOM     20  C   UNL     1       1.272   9.746  18.532  0.00  0.00    +0.000 A 
ATOM     21  C   UNL     1       0.986   9.486  19.867  0.00  0.00    +0.000 A 
ATOM     22  F   UNL     1       0.331  10.406  20.589  0.00  0.00    +0.000 F 
ATOM     23  C   UNL     1       1.369   8.292  20.467  0.00  0.00    +0.000 A 
ENDBRANCH  16  17
ENDBRANCH   4  16
TORSDOF 5
ENDMDL
MODEL 3
REMARK VINA RESULT:      -7.4      3.923      6.651
REMARK  Name = 
REMARK  6 active torsions:
REMARK  status: ('A' for Active; 'I' for Inactive)
REMARK    1  A    between atoms: C_1  and  O_2
REMARK    2  A    between atoms: O_2  and  C_3
REMARK    3  A    between atoms: C_3  and  C_4
REMARK    4  A    between atoms: C_4  and  N_5
REMARK    5  A    between atoms: C_8  and  O_9
REMARK    6  A    between atoms: O_9  and  C_10
REMARK                            x       y       z     vdW  Elec       q    Type
REMARK                         _______ _______ _______ _____ _____    ______ ____
ROOT
ATOM      1  N   UNL     1       1.719   8.302  20.040  0.00  0.00    +0.000 N 
ATOM      2  C   UNL     1       2.063   6.972  19.859  0.00  0.00    +0.000 A 
ATOM      3  N   UNL     1       3.049   6.744  18.988  0.00  0.00    +0.000 NA
ATOM      4  C   UNL     1       3.418   5.469  18.731  0.00  0.00    +0.000 A 
ATOM      5  C   UNL     1       2.827   4.434  19.441  0.00  0.00    +0.000 A 
ATOM      6  S   UNL     1       3.107   2.741  19.419  0.00  0.00    +0.000 S 
ATOM      7  C   UNL     1       1.896   2.453  20.591  0.00  0.00    +0.000 A 
ATOM      8  C   UNL     1       1.278   3.618  20.988  0.00  0.00    +0.000 A 
ATOM      9  C   UNL     1       1.821   4.763  20.338  0.00  0.00    +0.000 A 
ATOM     10  N   UNL     1       1.419   6.031  20.548  0.00  0.00    +0.000 NA
ATOM     11  H   UNL     1       2.477   8.877  19.693  0.00  0.00    +0.000 HD
ENDROOT
BRANCH   1  12
ATOM     12  C   UNL     1       1.194   8.618  21.364  0.00  0.00    +0.000 C 
BRANCH  12  13
ATOM     13  C   UNL     1       0.792  10.091  21.473  0.00  0.00    +0.000 C 
BRANCH  13  15
ATOM     14  C   UNL     1      -0.721   9.771  23.254  0.00  0.00    +0.000 C 
ATOM     15  O   UNL     1       0.471  10.413  22.827  0.00  0.00    +0.000 OA
ENDBRANCH  13  15
ENDBRANCH  12  13
ENDBRANCH   1  12
BRANCH   4  16
ATOM     16  O   UNL     1       4.426   5.210  17.813  0.00  0.00    +0.000 OA
BRANCH  16  17
ATOM     17  C   UNL     1       5.633   5.852  17.976  0.00  0.00    +0.000 A 
ATOM     18  C   UNL     1       6.052   6.938  17.196  0.00  0.00    +0.000 A 
ATOM     19  C   UNL     1       7.307   7.514  17.406  0.00  0.00    +0.000 A 
ATOM     20  C   UNL     1       8.159   6.985  18.375  0.00  0.00    +0.000 A 
ATOM     21  C   UNL     1       7.750   5.884  19.118  0.00  0.00    +0.000 A 
ATOM     22  F   UNL     1       8.579   5.366  20.035  0.00  0.00    +0.000 F 
ATOM     23  C   UNL     1       6.499   5.309  18.924  0.00  0.00    +0.000 A 
ENDBRANCH  16  17
ENDBRANCH   4  16
TORSDOF 5
ENDMDL
MODEL 4
REMARK VINA RESULT:      -7.3      1.052      1.440
REMARK  Name = 
REMARK  6 active torsions:
REMARK  status: ('A' for Active; 'I' for Inactive)
REMARK    1  A    between atoms: C_1  and  O_2
REMARK    2  A    between atoms: O_2  and  C_3
REMARK    3  A    between atoms: C_3  and  C_4
REMARK    4  A    between atoms: C_4  and  N_5
REMARK    5  A    between atoms: C_8  and  O_9
REMARK    6  A    between atoms: O_9  and  C_10
REMARK                            x       y       z     vdW  Elec       q    Type
REMARK                         _______ _______ _______ _____ _____    ______ ____
ROOT
ATOM      1  N   UNL     1       8.281   7.584  18.734  0.00  0.00    +0.000 N 
ATOM      2  C   UNL     1       7.545   6.589  18.111  0.00  0.00    +0.000 A 
ATOM      3  N   UNL     1       6.943   5.720  18.926  0.00  0.00    +0.000 NA
ATOM      4  C   UNL     1       6.235   4.699  18.392  0.00  0.00    +0.000 A 
ATOM      5  C   UNL     1       6.077   4.628  17.016  0.00  0.00    +0.000 A 
ATOM      6  S   UNL     1       5.197   3.530  16.031  0.00  0.00    +0.000 S 
ATOM      7  C   UNL     1       5.682   4.320  14.595  0.00  0.00    +0.000 A 
ATOM      8  C   UNL     1       6.507   5.392  14.850  0.00  0.00    +0.000 A 
ATOM      9  C   UNL     1       6.726   5.581  16.245  0.00  0.00    +0.000 A 
ATOM     10  N   UNL     1       7.476   6.563  16.781  0.00  0.00    +0.000 NA
ATOM     11  H   UNL     1       7.987   7.638  19.702  0.00  0.00    +0.000 HD
ENDROOT
BRANCH   1  12
ATOM     12  C   UNL     1       8.360   8.836  17.990  0.00  0.00    +0.000 C 
BRANCH  12  13
ATOM     13  C   UNL     1       9.001   9.947  18.824  0.00  0.00    +0.000 C 
BRANCH  13  15
ATOM     14  C   UNL     1       9.801  12.165  18.758  0.00  0.00    +0.000 C 
ATOM     15  O   UNL     1       9.257  11.091  18.007  0.00  0.00    +0.000 OA
ENDBRANCH  13  15
ENDBRANCH  12  13
ENDBRANCH   1  12
BRANCH   4  16
ATOM     16  O   UNL     1       5.618   3.773  19.222  0.00  0.00    +0.000 OA
BRANCH  16  17
ATOM     17  C   UNL     1       4.261   3.883  19.423  0.00  0.00    +0.000 A 
ATOM     18  C   UNL     1       3.353   2.835  19.223  0.00  0.00    +0.000 A 
ATOM     19  C   UNL     1       1.985   3.039  19.421  0.00  0.00    +0.000 A 
ATOM     20  C   UNL     1       1.519   4.301  19.787  0.00  0.00    +0.000 A 
ATOM     21  C   UNL     1       2.424   5.345  19.945  0.00  0.00    +0.000 A 
ATOM     22  F   UNL     1       1.970   6.561  20.278  0.00  0.00    +0.000 F 
ATOM     23  C   UNL     1       3.788   5.150  19.761  0.00  0.00    +0.000 A 
ENDBRANCH  16  17
ENDBRANCH   4  16
TORSDOF 5
ENDMDL
MODEL 5
REMARK VINA RESULT:      -7.1      3.279      4.707
REMARK  Name = 
REMARK  6 active torsions:
REMARK  status: ('A' for Active; 'I' for Inactive)
REMARK    1  A    between atoms: C_1  and  O_2
REMARK    2  A    between atoms: O_2  and  C_3
REMARK    3  A    between atoms: C_3  and  C_4
REMARK    4  A    between atoms: C_4  and  N_5
REMARK    5  A    between atoms: C_8  and  O_9
REMARK    6  A    between atoms: O_9  and  C_10
REMARK                            x       y       z     vdW  Elec       q    Type
REMARK                         _______ _______ _______ _____ _____    ______ ____
ROOT
ATOM      1  N   UNL     1       6.777   5.251  19.048  0.00  0.00    +0.000 N 
ATOM      2  C   UNL     1       5.457   4.828  19.061  0.00  0.00    +0.000 A 
ATOM      3  N   UNL     1       4.596   5.643  19.675  0.00  0.00    +0.000 NA
ATOM      4  C   UNL     1       3.295   5.282  19.760  0.00  0.00    +0.000 A 
ATOM      5  C   UNL     1       2.869   4.120  19.133  0.00  0.00    +0.000 A 
ATOM      6  S   UNL     1       1.309   3.421  18.983  0.00  0.00    +0.000 S 
ATOM      7  C   UNL     1       1.913   2.091  18.093  0.00  0.00    +0.000 A 
ATOM      8  C   UNL     1       3.278   2.166  17.920  0.00  0.00    +0.000 A 
ATOM      9  C   UNL     1       3.830   3.340  18.506  0.00  0.00    +0.000 A 
ATOM     10  N   UNL     1       5.134   3.677  18.473  0.00  0.00    +0.000 NA
ATOM     11  H   UNL     1       6.794   6.243  19.254  0.00  0.00    +0.000 HD
ENDROOT
BRANCH   1  12
ATOM     12  C   UNL     1       7.548   4.795  17.897  0.00  0.00    +0.000 C 
BRANCH  12  13
ATOM     13  C   UNL     1       7.086   5.475  16.606  0.00  0.00    +0.000 C 
BRANCH  13  15
ATOM     14  C   UNL     1       7.562   7.636  17.421  0.00  0.00    +0.000 C 
ATOM     15  O   UNL     1       7.816   6.685  16.399  0.00  0.00    +0.000 OA
ENDBRANCH  13  15
ENDBRANCH  12  13
ENDBRANCH   1  12
BRANCH   4  16
ATOM     16  O   UNL     1       2.388   6.105  20.412  0.00  0.00    +0.000 OA
BRANCH  16  17
ATOM     17  C   UNL     1       2.002   7.270  19.787  0.00  0.00    +0.000 A 
ATOM     18  C   UNL     1       2.279   7.567  18.447  0.00  0.00    +0.000 A 
ATOM     19  C   UNL     1       1.877   8.788  17.898  0.00  0.00    +0.000 A 
ATOM     20  C   UNL     1       1.226   9.726  18.696  0.00  0.00    +0.000 A 
ATOM     21  C   UNL     1       0.989   9.438  20.036  0.00  0.00    +0.000 A 
ATOM     22  F   UNL     1       0.380  10.350  20.805  0.00  0.00    +0.000 F 
ATOM     23  C   UNL     1       1.375   8.223  20.590  0.00  0.00    +0.000 A 
ENDBRANCH  16  17
ENDBRANCH   4  16
TORSDOF 5
ENDMDL
MODEL 6
REMARK VINA RESULT:      -7.1      4.123      6.769
REMARK  Name = 
REMARK  6 active torsions:
REMARK  status: ('A' for Active; 'I' for Inactive)
REMARK    1  A    between atoms: C_1  and  O_2
REMARK    2  A    between atoms: O_2  and  C_3
REMARK    3  A    between atoms: C_3  and  C_4
REMARK    4  A    between atoms: C_4  and  N_5
REMARK    5  A    between atoms: C_8  and  O_9
REMARK    6  A    between atoms: O_9  and  C_10
REMARK                            x       y       z     vdW  Elec       q    Type
REMARK                         _______ _______ _______ _____ _____    ______ ____
ROOT
ATOM      1  N   UNL     1       1.638   8.292  20.238  0.00  0.00    +0.000 N 
ATOM      2  C   UNL     1       1.989   6.980  19.966  0.00  0.00    +0.000 A 
ATOM      3  N   UNL     1       2.967   6.817  19.071  0.00  0.00    +0.000 NA
ATOM      4  C   UNL     1       3.341   5.563  18.728  0.00  0.00    +0.000 A 
ATOM      5  C   UNL     1       2.766   4.480  19.375  0.00  0.00    +0.000 A 
ATOM      6  S   UNL     1       3.058   2.794  19.239  0.00  0.00    +0.000 S 
ATOM      7  C   UNL     1       1.862   2.421  20.402  0.00  0.00    +0.000 A 
ATOM      8  C   UNL     1       1.240   3.553  20.881  0.00  0.00    +0.000 A 
ATOM      9  C   UNL     1       1.768   4.742  20.301  0.00  0.00    +0.000 A 
ATOM     10  N   UNL     1       1.359   5.990  20.599  0.00  0.00    +0.000 NA
ATOM     11  H   UNL     1       2.389   8.894  19.921  0.00  0.00    +0.000 HD
ENDROOT
BRANCH   1  12
ATOM     12  C   UNL     1       1.126   8.516  21.585  0.00  0.00    +0.000 C 
BRANCH  12  13
ATOM     13  C   UNL     1      -0.073   9.468  21.580  0.00  0.00    +0.000 C 
BRANCH  13  15
ATOM     14  C   UNL     1      -0.974  11.391  20.553  0.00  0.00    +0.000 C 
ATOM     15  O   UNL     1       0.057  10.416  20.519  0.00  0.00    +0.000 OA
ENDBRANCH  13  15
ENDBRANCH  12  13
ENDBRANCH   1  12
BRANCH   4  16
ATOM     16  O   UNL     1       4.341   5.373  17.784  0.00  0.00    +0.000 OA
BRANCH  16  17
ATOM     17  C   UNL     1       5.625   5.749  18.112  0.00  0.00    +0.000 A 
ATOM     18  C   UNL     1       6.361   5.184  19.162  0.00  0.00    +0.000 A 
ATOM     19  C   UNL     1       7.648   5.645  19.448  0.00  0.00    +0.000 A 
ATOM     20  C   UNL     1       8.189   6.694  18.706  0.00  0.00    +0.000 A 
ATOM     21  C   UNL     1       7.436   7.274  17.691  0.00  0.00    +0.000 A 
ATOM     22  F   UNL     1       7.953   8.294  16.992  0.00  0.00    +0.000 F 
ATOM     23  C   UNL     1       6.159   6.816  17.390  0.00  0.00    +0.000 A 
ENDBRANCH  16  17
ENDBRANCH   4  16
TORSDOF 5
ENDMDL
MODEL 7
REMARK VINA RESULT:      -7.1      3.658      7.065
REMARK  Name = 
REMARK  6 active torsions:
REMARK  status: ('A' for Active; 'I' for Inactive)
REMARK    1  A    between atoms: C_1  and  O_2
REMARK    2  A    between atoms: O_2  and  C_3
REMARK    3  A    between atoms: C_3  and  C_4
REMARK    4  A    between atoms: C_4  and  N_5
REMARK    5  A    between atoms: C_8  and  O_9
REMARK    6  A    between atoms: O_9  and  C_10
REMARK                            x       y       z     vdW  Elec       q    Type
REMARK                         _______ _______ _______ _____ _____    ______ ____
ROOT
ATOM      1  N   UNL     1       3.651   2.575  18.581  0.00  0.00    +0.000 N 
ATOM      2  C   UNL     1       4.539   3.578  18.225  0.00  0.00    +0.000 A 
ATOM      3  N   UNL     1       4.386   4.075  16.995  0.00  0.00    +0.000 NA
ATOM      4  C   UNL     1       5.239   5.031  16.562  0.00  0.00    +0.000 A 
ATOM      5  C   UNL     1       6.193   5.536  17.432  0.00  0.00    +0.000 A 
ATOM      6  S   UNL     1       7.360   6.780  17.236  0.00  0.00    +0.000 S 
ATOM      7  C   UNL     1       7.963   6.562  18.820  0.00  0.00    +0.000 A 
ATOM      8  C   UNL     1       7.302   5.555  19.489  0.00  0.00    +0.000 A 
ATOM      9  C   UNL     1       6.273   4.971  18.696  0.00  0.00    +0.000 A 
ATOM     10  N   UNL     1       5.457   3.979  19.103  0.00  0.00    +0.000 NA
ATOM     11  H   UNL     1       2.863   2.609  17.945  0.00  0.00    +0.000 HD
ENDROOT
BRANCH   1  12
ATOM     12  C   UNL     1       3.354   2.508  20.008  0.00  0.00    +0.000 C 
BRANCH  12  13
ATOM     13  C   UNL     1       1.848   2.562  20.272  0.00  0.00    +0.000 C 
BRANCH  13  15
ATOM     14  C   UNL     1       1.952   4.860  20.792  0.00  0.00    +0.000 C 
ATOM     15  O   UNL     1       1.554   3.573  21.238  0.00  0.00    +0.000 OA
ENDBRANCH  13  15
ENDBRANCH  12  13
ENDBRANCH   1  12
BRANCH   4  16
ATOM     16  O   UNL     1       5.109   5.547  15.280  0.00  0.00    +0.000 OA
BRANCH  16  17
ATOM     17  C   UNL     1       5.811   4.941  14.262  0.00  0.00    +0.000 A 
ATOM     18  C   UNL     1       7.120   5.284  13.903  0.00  0.00    +0.000 A 
ATOM     19  C   UNL     1       7.751   4.639  12.836  0.00  0.00    +0.000 A 
ATOM     20  C   UNL     1       7.062   3.673  12.105  0.00  0.00    +0.000 A 
ATOM     21  C   UNL     1       5.749   3.366  12.445  0.00  0.00    +0.000 A 
ATOM     22  F   UNL     1       5.083   2.451  11.728  0.00  0.00    +0.000 F 
ATOM     23  C   UNL     1       5.115   3.994  13.511  0.00  0.00    +0.000 A 
ENDBRANCH  16  17
ENDBRANCH   4  16
TORSDOF 5
ENDMDL
MODEL 8
REMARK VINA RESULT:      -7.0      1.204      1.294
REMARK  Name = 
REMARK  6 active torsions:
REMARK  status: ('A' for Active; 'I' for Inactive)
REMARK    1  A    between atoms: C_1  and  O_2
REMARK    2  A    between atoms: O_2  and  C_3
REMARK    3  A    between atoms: C_3  and  C_4
REMARK    4  A    between atoms: C_4  and  N_5
REMARK    5  A    between atoms: C_8  and  O_9
REMARK    6  A    between atoms: O_9  and  C_10
REMARK                            x       y       z     vdW  Elec       q    Type
REMARK                         _______ _______ _______ _____ _____    ______ ____
ROOT
ATOM      1  N   UNL     1       8.096   7.484  18.676  0.00  0.00    +0.000 N 
ATOM      2  C   UNL     1       7.475   6.472  17.961  0.00  0.00    +0.000 A 
ATOM      3  N   UNL     1       6.733   5.628  18.681  0.00  0.00    +0.000 NA
ATOM      4  C   UNL     1       6.123   4.593  18.059  0.00  0.00    +0.000 A 
ATOM      5  C   UNL     1       6.209   4.483  16.679  0.00  0.00    +0.000 A 
ATOM      6  S   UNL     1       5.509   3.360  15.586  0.00  0.00    +0.000 S 
ATOM      7  C   UNL     1       6.244   4.107  14.236  0.00  0.00    +0.000 A 
ATOM      8  C   UNL     1       7.019   5.186  14.603  0.00  0.00    +0.000 A 
ATOM      9  C   UNL     1       6.990   5.413  16.008  0.00  0.00    +0.000 A 
ATOM     10  N   UNL     1       7.641   6.409  16.640  0.00  0.00    +0.000 NA
ATOM     11  H   UNL     1       7.637   7.565  19.575  0.00  0.00    +0.000 HD
ENDROOT
BRANCH   1  12
ATOM     12  C   UNL     1       8.313   8.714  17.923  0.00  0.00    +0.000 C 
BRANCH  12  13
ATOM     13  C   UNL     1       8.954   9.799  18.791  0.00  0.00    +0.000 C 
BRANCH  13  15
ATOM     14  C   UNL     1      10.276  11.534  17.894  0.00  0.00    +0.000 C 
ATOM     15  O   UNL     1       8.959  11.046  18.094  0.00  0.00    +0.000 OA
ENDBRANCH  13  15
ENDBRANCH  12  13
ENDBRANCH   1  12
BRANCH   4  16
ATOM     16  O   UNL     1       5.364   3.692  18.793  0.00  0.00    +0.000 OA
BRANCH  16  17
ATOM     17  C   UNL     1       4.071   4.040  19.112  0.00  0.00    +0.000 A 
ATOM     18  C   UNL     1       3.619   4.257  20.419  0.00  0.00    +0.000 A 
ATOM     19  C   UNL     1       2.280   4.578  20.659  0.00  0.00    +0.000 A 
ATOM     20  C   UNL     1       1.384   4.651  19.594  0.00  0.00    +0.000 A 
ATOM     21  C   UNL     1       1.834   4.396  18.303  0.00  0.00    +0.000 A 
ATOM     22  F   UNL     1       0.965   4.448  17.284  0.00  0.00    +0.000 F 
ATOM     23  C   UNL     1       3.165   4.086  18.052  0.00  0.00    +0.000 A 
ENDBRANCH  16  17
ENDBRANCH   4  16
TORSDOF 5
ENDMDL
MODEL 9
REMARK VINA RESULT:      -7.0      4.319      5.838
REMARK  Name = 
REMARK  6 active torsions:
REMARK  status: ('A' for Active; 'I' for Inactive)
REMARK    1  A    between atoms: C_1  and  O_2
REMARK    2  A    between atoms: O_2  and  C_3
REMARK    3  A    between atoms: C_3  and  C_4
REMARK    4  A    between atoms: C_4  and  N_5
REMARK    5  A    between atoms: C_8  and  O_9
REMARK    6  A    between atoms: O_9  and  C_10
REMARK                            x       y       z     vdW  Elec       q    Type
REMARK                         _______ _______ _______ _____ _____    ______ ____
ROOT
ATOM      1  N   UNL     1       5.474   5.223  16.120  0.00  0.00    +0.000 N 
ATOM      2  C   UNL     1       4.480   4.895  17.029  0.00  0.00    +0.000 A 
ATOM      3  N   UNL     1       4.187   5.838  17.929  0.00  0.00    +0.000 NA
ATOM      4  C   UNL     1       3.253   5.578  18.872  0.00  0.00    +0.000 A 
ATOM      5  C   UNL     1       2.558   4.379  18.829  0.00  0.00    +0.000 A 
ATOM      6  S   UNL     1       1.283   3.773  19.806  0.00  0.00    +0.000 S 
ATOM      7  C   UNL     1       1.216   2.305  18.933  0.00  0.00    +0.000 A 
ATOM      8  C   UNL     1       2.152   2.264  17.922  0.00  0.00    +0.000 A 
ATOM      9  C   UNL     1       2.917   3.463  17.852  0.00  0.00    +0.000 A 
ATOM     10  N   UNL     1       3.889   3.704  16.949  0.00  0.00    +0.000 NA
ATOM     11  H   UNL     1       5.591   6.229  16.127  0.00  0.00    +0.000 HD
ENDROOT
BRANCH   1  12
ATOM     12  C   UNL     1       5.343   4.574  14.820  0.00  0.00    +0.000 C 
BRANCH  12  13
ATOM     13  C   UNL     1       6.704   4.144  14.267  0.00  0.00    +0.000 C 
BRANCH  13  15
ATOM     14  C   UNL     1       6.214   3.171  12.176  0.00  0.00    +0.000 C 
ATOM     15  O   UNL     1       6.732   4.308  12.848  0.00  0.00    +0.000 OA
ENDBRANCH  13  15
ENDBRANCH  12  13
ENDBRANCH   1  12
BRANCH   4  16
ATOM     16  O   UNL     1       2.949   6.537  19.828  0.00  0.00    +0.000 OA
BRANCH  16  17
ATOM     17  C   UNL     1       2.208   7.631  19.440  0.00  0.00    +0.000 A 
ATOM     18  C   UNL     1       2.245   8.184  18.154  0.00  0.00    +0.000 A 
ATOM     19  C   UNL     1       1.483   9.315  17.850  0.00  0.00    +0.000 A 
ATOM     20  C   UNL     1       0.708   9.914  18.841  0.00  0.00    +0.000 A 
ATOM     21  C   UNL     1       0.706   9.380  20.125  0.00  0.00    +0.000 A 
ATOM     22  F   UNL     1      -0.026   9.970  21.080  0.00  0.00    +0.000 F 
ATOM     23  C   UNL     1       1.452   8.249  20.436  0.00  0.00    +0.000 A 
ENDBRANCH  16  17
ENDBRANCH   4  16
TORSDOF 5
ENDMDL
