MODEL 1
REMARK VINA RESULT:      -6.8      0.000      0.000
REMARK  Name = 
REMARK  6 active torsions:
REMARK  status: ('A' for Active; 'I' for Inactive)
REMARK    1  A    between atoms: C_1  and  C_2
REMARK    2  A    between atoms: C_2  and  N_3
REMARK    3  A    between atoms: C_7  and  C_9
REMARK    4  A    between atoms: C_9  and  C_10
REMARK    5  A    between atoms: C_15  and  C_16
REMARK    6  A    between atoms: C_18  and  C_19
REMARK                            x       y       z     vdW  Elec       q    Type
REMARK                         _______ _______ _______ _____ _____    ______ ____
ROOT
ATOM      1  C   UNL     1       2.309   6.635  19.402  0.00  0.00    +0.000 C 
ENDROOT
BRANCH   1   2
ATOM      2  C   UNL     1       2.047   7.998  18.847  0.00  0.00    +0.000 A 
ATOM      3  C   UNL     1       2.454   8.492  17.620  0.00  0.00    +0.000 A 
ATOM      4  O   UNL     1       2.023   9.763  17.438  0.00  0.00    +0.000 OA
ATOM      5  C   UNL     1       1.310  10.105  18.542  0.00  0.00    +0.000 A 
ATOM      6  C   UNL     1       0.686  11.336  18.735  0.00  0.00    +0.000 A 
ATOM      7  C   UNL     1      -0.016  11.510  19.934  0.00  0.00    +0.000 A 
ATOM      8  C   UNL     1      -0.723  12.803  20.224  0.00  0.00    +0.000 C 
ATOM      9  C   UNL     1      -0.070  10.469  20.871  0.00  0.00    +0.000 A 
ATOM     10  C   UNL     1       0.563   9.223  20.661  0.00  0.00    +0.000 A 
ATOM     11  C   UNL     1       0.438   8.157  21.713  0.00  0.00    +0.000 C 
ATOM     12  C   UNL     1       1.281   9.053  19.452  0.00  0.00    +0.000 A 
ENDBRANCH   1   2
BRANCH   1  17
ATOM     13  N   UNL     1       6.335   5.441  16.356  0.00  0.00    +0.000 NA
ATOM     14  C   UNL     1       5.083   4.804  15.868  0.00  0.00    +0.000 C 
ATOM     15  C   UNL     1       4.163   4.280  16.990  0.00  0.00    +0.000 C 
ATOM     16  N   UNL     1       3.888   5.323  17.986  0.00  0.00    +0.000 N 
ATOM     17  C   UNL     1       2.572   5.587  18.338  0.00  0.00    +0.000 C 
ATOM     18  O   UNL     1       1.627   4.998  17.813  0.00  0.00    +0.000 OA
ATOM     19  C   UNL     1       5.077   6.036  18.476  0.00  0.00    +0.000 C 
ATOM     20  C   UNL     1       5.958   6.512  17.306  0.00  0.00    +0.000 C 
BRANCH  13  22
ATOM     21  C   UNL     1       7.954   4.865  18.198  0.00  0.00    +0.000 C 
ATOM     22  C   UNL     1       7.237   4.427  16.927  0.00  0.00    +0.000 C 
ENDBRANCH  13  22
ENDBRANCH   1  17
TORSDOF 3
ENDMDL
MODEL 2
REMARK VINA RESULT:      -6.7      2.194      7.598
REMARK  Name = 
REMARK  6 active torsions:
REMARK  status: ('A' for Active; 'I' for Inactive)
REMARK    1  A    between atoms: C_1  and  C_2
REMARK    2  A    between atoms: C_2  and  N_3
REMARK    3  A    between atoms: C_7  and  C_9
REMARK    4  A    between atoms: C_9  and  C_10
REMARK    5  A    between atoms: C_15  and  C_16
REMARK    6  A    between atoms: C_18  and  C_19
REMARK                            x       y       z     vdW  Elec       q    Type
REMARK                         _______ _______ _______ _____ _____    ______ ____
ROOT
ATOM      1  C   UNL     1       2.917   6.639  19.366  0.00  0.00    +0.000 C 
ENDROOT
BRANCH   1   2
ATOM      2  C   UNL     1       3.051   5.523  18.381  0.00  0.00    +0.000 A 
ATOM      3  C   UNL     1       2.196   4.449  18.214  0.00  0.00    +0.000 A 
ATOM      4  O   UNL     1       2.617   3.640  17.213  0.00  0.00    +0.000 OA
ATOM      5  C   UNL     1       3.748   4.191  16.702  0.00  0.00    +0.000 A 
ATOM      6  C   UNL     1       4.481   3.662  15.643  0.00  0.00    +0.000 A 
ATOM      7  C   UNL     1       5.619   4.372  15.241  0.00  0.00    +0.000 A 
ATOM      8  C   UNL     1       6.466   3.878  14.104  0.00  0.00    +0.000 C 
ATOM      9  C   UNL     1       5.969   5.562  15.895  0.00  0.00    +0.000 A 
ATOM     10  C   UNL     1       5.213   6.092  16.966  0.00  0.00    +0.000 A 
ATOM     11  C   UNL     1       5.652   7.382  17.598  0.00  0.00    +0.000 C 
ATOM     12  C   UNL     1       4.068   5.364  17.377  0.00  0.00    +0.000 A 
ENDBRANCH   1   2
BRANCH   1  17
ATOM     13  N   UNL     1      -0.704   9.922  21.105  0.00  0.00    +0.000 NA
ATOM     14  C   UNL     1      -0.528  10.045  19.634  0.00  0.00    +0.000 C 
ATOM     15  C   UNL     1       0.937   9.931  19.161  0.00  0.00    +0.000 C 
ATOM     16  N   UNL     1       1.573   8.716  19.684  0.00  0.00    +0.000 N 
ATOM     17  C   UNL     1       2.225   7.866  18.803  0.00  0.00    +0.000 C 
ATOM     18  O   UNL     1       2.254   8.081  17.591  0.00  0.00    +0.000 OA
ATOM     19  C   UNL     1       1.395   8.499  21.127  0.00  0.00    +0.000 C 
ATOM     20  C   UNL     1      -0.085   8.647  21.531  0.00  0.00    +0.000 C 
BRANCH  13  22
ATOM     21  C   UNL     1      -1.088  11.722  22.824  0.00  0.00    +0.000 C 
ATOM     22  C   UNL     1      -0.158  11.108  21.786  0.00  0.00    +0.000 C 
ENDBRANCH  13  22
ENDBRANCH   1  17
TORSDOF 3
ENDMDL
MODEL 3
REMARK VINA RESULT:      -6.7      2.386      3.523
REMARK  Name = 
REMARK  6 active torsions:
REMARK  status: ('A' for Active; 'I' for Inactive)
REMARK    1  A    between atoms: C_1  and  C_2
REMARK    2  A    between atoms: C_2  and  N_3
REMARK    3  A    between atoms: C_7  and  C_9
REMARK    4  A    between atoms: C_9  and  C_10
REMARK    5  A    between atoms: C_15  and  C_16
REMARK    6  A    between atoms: C_18  and  C_19
REMARK                            x       y       z     vdW  Elec       q    Type
REMARK                         _______ _______ _______ _____ _____    ______ ____
ROOT
ATOM      1  C   UNL     1       1.382   8.328  20.644  0.00  0.00    +0.000 C 
ENDROOT
BRANCH   1   2
ATOM      2  C   UNL     1       0.525   9.483  20.236  0.00  0.00    +0.000 A 
ATOM      3  C   UNL     1       0.304   9.945  18.951  0.00  0.00    +0.000 A 
ATOM      4  O   UNL     1      -0.545  11.000  18.951  0.00  0.00    +0.000 OA
ATOM      5  C   UNL     1      -0.902  11.226  20.241  0.00  0.00    +0.000 A 
ATOM      6  C   UNL     1      -1.779  12.225  20.660  0.00  0.00    +0.000 A 
ATOM      7  C   UNL     1      -2.040  12.305  22.033  0.00  0.00    +0.000 A 
ATOM      8  C   UNL     1      -2.976  13.347  22.572  0.00  0.00    +0.000 C 
ATOM      9  C   UNL     1      -1.433  11.400  22.915  0.00  0.00    +0.000 A 
ATOM     10  C   UNL     1      -0.550  10.387  22.477  0.00  0.00    +0.000 A 
ATOM     11  C   UNL     1       0.042   9.449  23.491  0.00  0.00    +0.000 C 
ATOM     12  C   UNL     1      -0.279  10.316  21.088  0.00  0.00    +0.000 A 
ENDBRANCH   1   2
BRANCH   1  17
ATOM     13  N   UNL     1       3.236   3.562  19.771  0.00  0.00    +0.000 NA
ATOM     14  C   UNL     1       3.764   4.535  18.779  0.00  0.00    +0.000 C 
ATOM     15  C   UNL     1       2.731   5.583  18.311  0.00  0.00    +0.000 C 
ATOM     16  N   UNL     1       2.103   6.259  19.453  0.00  0.00    +0.000 N 
ATOM     17  C   UNL     1       2.076   7.646  19.481  0.00  0.00    +0.000 C 
ATOM     18  O   UNL     1       2.594   8.325  18.595  0.00  0.00    +0.000 OA
ATOM     19  C   UNL     1       1.605   5.360  20.504  0.00  0.00    +0.000 C 
ATOM     20  C   UNL     1       2.678   4.330  20.907  0.00  0.00    +0.000 C 
BRANCH  13  22
ATOM     21  C   UNL     1       2.794   1.950  17.887  0.00  0.00    +0.000 C 
ATOM     22  C   UNL     1       2.270   2.652  19.133  0.00  0.00    +0.000 C 
ENDBRANCH  13  22
ENDBRANCH   1  17
TORSDOF 3
ENDMDL
MODEL 4
REMARK VINA RESULT:      -6.6      1.909      2.809
REMARK  Name = 
REMARK  6 active torsions:
REMARK  status: ('A' for Active; 'I' for Inactive)
REMARK    1  A    between atoms: C_1  and  C_2
REMARK    2  A    between atoms: C_2  and  N_3
REMARK    3  A    between atoms: C_7  and  C_9
REMARK    4  A    between atoms: C_9  and  C_10
REMARK    5  A    between atoms: C_15  and  C_16
REMARK    6  A    between atoms: C_18  and  C_19
REMARK                            x       y       z     vdW  Elec       q    Type
REMARK                         _______ _______ _______ _____ _____    ______ ____
ROOT
ATOM      1  C   UNL     1       1.749   8.060  19.577  0.00  0.00    +0.000 C 
ENDROOT
BRANCH   1   2
ATOM      2  C   UNL     1       1.194   8.861  20.711  0.00  0.00    +0.000 A 
ATOM      3  C   UNL     1       1.553   8.782  22.044  0.00  0.00    +0.000 A 
ATOM      4  O   UNL     1       0.857   9.672  22.791  0.00  0.00    +0.000 OA
ATOM      5  C   UNL     1       0.046  10.357  21.945  0.00  0.00    +0.000 A 
ATOM      6  C   UNL     1      -0.824  11.375  22.328  0.00  0.00    +0.000 A 
ATOM      7  C   UNL     1      -1.581  11.978  21.316  0.00  0.00    +0.000 A 
ATOM      8  C   UNL     1      -2.540  13.087  21.637  0.00  0.00    +0.000 C 
ATOM      9  C   UNL     1      -1.437  11.554  19.987  0.00  0.00    +0.000 A 
ATOM     10  C   UNL     1      -0.545  10.523  19.610  0.00  0.00    +0.000 A 
ATOM     11  C   UNL     1      -0.443  10.145  18.159  0.00  0.00    +0.000 C 
ATOM     12  C   UNL     1       0.210   9.907  20.639  0.00  0.00    +0.000 A 
ENDBRANCH   1   2
BRANCH   1  17
ATOM     13  N   UNL     1       4.788   4.405  17.500  0.00  0.00    +0.000 NA
ATOM     14  C   UNL     1       3.896   3.834  18.544  0.00  0.00    +0.000 C 
ATOM     15  C   UNL     1       3.696   4.748  19.772  0.00  0.00    +0.000 C 
ATOM     16  N   UNL     1       3.270   6.094  19.371  0.00  0.00    +0.000 N 
ATOM     17  C   UNL     1       2.149   6.651  19.970  0.00  0.00    +0.000 C 
ATOM     18  O   UNL     1       1.481   6.035  20.800  0.00  0.00    +0.000 OA
ATOM     19  C   UNL     1       4.073   6.702  18.301  0.00  0.00    +0.000 C 
ATOM     20  C   UNL     1       4.249   5.730  17.118  0.00  0.00    +0.000 C 
BRANCH  13  22
ATOM     21  C   UNL     1       7.220   4.616  16.880  0.00  0.00    +0.000 C 
ATOM     22  C   UNL     1       6.180   4.441  17.979  0.00  0.00    +0.000 C 
ENDBRANCH  13  22
ENDBRANCH   1  17
TORSDOF 3
ENDMDL
MODEL 5
REMARK VINA RESULT:      -6.6      2.732      7.577
REMARK  Name = 
REMARK  6 active torsions:
REMARK  status: ('A' for Active; 'I' for Inactive)
REMARK    1  A    between atoms: C_1  and  C_2
REMARK    2  A    between atoms: C_2  and  N_3
REMARK    3  A    between atoms: C_7  and  C_9
REMARK    4  A    between atoms: C_9  and  C_10
REMARK    5  A    between atoms: C_15  and  C_16
REMARK    6  A    between atoms: C_18  and  C_19
REMARK                            x       y       z     vdW  Elec       q    Type
REMARK                         _______ _______ _______ _____ _____    ______ ____
ROOT
ATOM      1  C   UNL     1       2.009   7.943  19.428  0.00  0.00    +0.000 C 
ENDROOT
BRANCH   1   2
ATOM      2  C   UNL     1       2.799   6.992  18.588  0.00  0.00    +0.000 A 
ATOM      3  C   UNL     1       3.698   7.312  17.586  0.00  0.00    +0.000 A 
ATOM      4  O   UNL     1       4.247   6.197  17.047  0.00  0.00    +0.000 OA
ATOM      5  C   UNL     1       3.722   5.134  17.709  0.00  0.00    +0.000 A 
ATOM      6  C   UNL     1       4.046   3.803  17.457  0.00  0.00    +0.000 A 
ATOM      7  C   UNL     1       3.412   2.835  18.246  0.00  0.00    +0.000 A 
ATOM      8  C   UNL     1       3.704   1.376  18.047  0.00  0.00    +0.000 C 
ATOM      9  C   UNL     1       2.503   3.227  19.239  0.00  0.00    +0.000 A 
ATOM     10  C   UNL     1       2.188   4.582  19.490  0.00  0.00    +0.000 A 
ATOM     11  C   UNL     1       1.215   4.912  20.586  0.00  0.00    +0.000 C 
ATOM     12  C   UNL     1       2.822   5.558  18.681  0.00  0.00    +0.000 A 
ENDBRANCH   1   2
BRANCH   1  17
ATOM     13  N   UNL     1      -1.000  12.012  20.568  0.00  0.00    +0.000 NA
ATOM     14  C   UNL     1      -0.788  11.893  19.102  0.00  0.00    +0.000 C 
ATOM     15  C   UNL     1       0.639  11.464  18.703  0.00  0.00    +0.000 C 
ATOM     16  N   UNL     1       1.046  10.244  19.410  0.00  0.00    +0.000 N 
ATOM     17  C   UNL     1       1.550   9.178  18.677  0.00  0.00    +0.000 C 
ATOM     18  O   UNL     1       1.631   9.213  17.449  0.00  0.00    +0.000 OA
ATOM     19  C   UNL     1       0.816  10.266  20.861  0.00  0.00    +0.000 C 
ATOM     20  C   UNL     1      -0.620  10.722  21.187  0.00  0.00    +0.000 C 
BRANCH  13  22
ATOM     21  C   UNL     1      -0.605  13.526  22.542  0.00  0.00    +0.000 C 
ATOM     22  C   UNL     1      -0.264  13.170  21.101  0.00  0.00    +0.000 C 
ENDBRANCH  13  22
ENDBRANCH   1  17
TORSDOF 3
ENDMDL
MODEL 6
REMARK VINA RESULT:      -6.5      4.390      7.408
REMARK  Name = 
REMARK  6 active torsions:
REMARK  status: ('A' for Active; 'I' for Inactive)
REMARK    1  A    between atoms: C_1  and  C_2
REMARK    2  A    between atoms: C_2  and  N_3
REMARK    3  A    between atoms: C_7  and  C_9
REMARK    4  A    between atoms: C_9  and  C_10
REMARK    5  A    between atoms: C_15  and  C_16
REMARK    6  A    between atoms: C_18  and  C_19
REMARK                            x       y       z     vdW  Elec       q    Type
REMARK                         _______ _______ _______ _____ _____    ______ ____
ROOT
ATOM      1  C   UNL     1       5.033   6.004  18.447  0.00  0.00    +0.000 C 
ENDROOT
BRANCH   1   2
ATOM      2  C   UNL     1       5.998   5.990  17.305  0.00  0.00    +0.000 A 
ATOM      3  C   UNL     1       7.198   6.671  17.219  0.00  0.00    +0.000 A 
ATOM      4  O   UNL     1       7.824   6.411  16.046  0.00  0.00    +0.000 OA
ATOM      5  C   UNL     1       7.042   5.538  15.361  0.00  0.00    +0.000 A 
ATOM      6  C   UNL     1       7.347   5.015  14.106  0.00  0.00    +0.000 A 
ATOM      7  C   UNL     1       6.426   4.118  13.552  0.00  0.00    +0.000 A 
ATOM      8  C   UNL     1       6.675   3.500  12.206  0.00  0.00    +0.000 C 
ATOM      9  C   UNL     1       5.263   3.782  14.260  0.00  0.00    +0.000 A 
ATOM     10  C   UNL     1       4.968   4.315  15.535  0.00  0.00    +0.000 A 
ATOM     11  C   UNL     1       3.707   3.886  16.230  0.00  0.00    +0.000 C 
ATOM     12  C   UNL     1       5.897   5.232  16.088  0.00  0.00    +0.000 A 
ENDBRANCH   1   2
BRANCH   1  17
ATOM     13  N   UNL     1       1.424   3.371  21.084  0.00  0.00    +0.000 NA
ATOM     14  C   UNL     1       2.792   2.909  21.436  0.00  0.00    +0.000 C 
ATOM     15  C   UNL     1       3.764   2.845  20.239  0.00  0.00    +0.000 C 
ATOM     16  N   UNL     1       3.793   4.117  19.507  0.00  0.00    +0.000 N 
ATOM     17  C   UNL     1       5.018   4.714  19.244  0.00  0.00    +0.000 C 
ATOM     18  O   UNL     1       6.078   4.226  19.638  0.00  0.00    +0.000 OA
ATOM     19  C   UNL     1       2.472   4.666  19.171  0.00  0.00    +0.000 C 
ATOM     20  C   UNL     1       1.548   4.681  20.405  0.00  0.00    +0.000 C 
BRANCH  13  22
ATOM     21  C   UNL     1       0.474   2.745  18.836  0.00  0.00    +0.000 C 
ATOM     22  C   UNL     1       0.727   2.349  20.285  0.00  0.00    +0.000 C 
ENDBRANCH  13  22
ENDBRANCH   1  17
TORSDOF 3
ENDMDL
MODEL 7
REMARK VINA RESULT:      -6.4      2.951      7.636
REMARK  Name = 
REMARK  6 active torsions:
REMARK  status: ('A' for Active; 'I' for Inactive)
REMARK    1  A    between atoms: C_1  and  C_2
REMARK    2  A    between atoms: C_2  and  N_3
REMARK    3  A    between atoms: C_7  and  C_9
REMARK    4  A    between atoms: C_9  and  C_10
REMARK    5  A    between atoms: C_15  and  C_16
REMARK    6  A    between atoms: C_18  and  C_19
REMARK                            x       y       z     vdW  Elec       q    Type
REMARK                         _______ _______ _______ _____ _____    ______ ____
ROOT
ATOM      1  C   UNL     1       1.007   7.930  20.965  0.00  0.00    +0.000 C 
ENDROOT
BRANCH   1   2
ATOM      2  C   UNL     1       1.837   7.829  19.726  0.00  0.00    +0.000 A 
ATOM      3  C   UNL     1       2.113   8.839  18.822  0.00  0.00    +0.000 A 
ATOM      4  O   UNL     1       2.915   8.395  17.825  0.00  0.00    +0.000 OA
ATOM      5  C   UNL     1       3.187   7.090  18.081  0.00  0.00    +0.000 A 
ATOM      6  C   UNL     1       3.994   6.276  17.289  0.00  0.00    +0.000 A 
ATOM      7  C   UNL     1       4.171   4.953  17.712  0.00  0.00    +0.000 A 
ATOM      8  C   UNL     1       5.029   4.007  16.924  0.00  0.00    +0.000 C 
ATOM      9  C   UNL     1       3.552   4.506  18.888  0.00  0.00    +0.000 A 
ATOM     10  C   UNL     1       2.739   5.343  19.686  0.00  0.00    +0.000 A 
ATOM     11  C   UNL     1       2.129   4.784  20.940  0.00  0.00    +0.000 C 
ATOM     12  C   UNL     1       2.553   6.678  19.249  0.00  0.00    +0.000 A 
ENDBRANCH   1   2
BRANCH   1  17
ATOM     13  N   UNL     1      -1.045  12.501  19.620  0.00  0.00    +0.000 NA
ATOM     14  C   UNL     1      -0.008  12.665  20.672  0.00  0.00    +0.000 C 
ATOM     15  C   UNL     1      -0.016  11.556  21.745  0.00  0.00    +0.000 C 
ATOM     16  N   UNL     1       0.038  10.223  21.134  0.00  0.00    +0.000 N 
ATOM     17  C   UNL     1       0.994   9.319  21.575  0.00  0.00    +0.000 C 
ATOM     18  O   UNL     1       1.820   9.615  22.438  0.00  0.00    +0.000 OA
ATOM     19  C   UNL     1      -0.924  10.004  20.044  0.00  0.00    +0.000 C 
ATOM     20  C   UNL     1      -0.876  11.157  19.023  0.00  0.00    +0.000 C 
BRANCH  13  22
ATOM     21  C   UNL     1      -2.564  14.113  20.819  0.00  0.00    +0.000 C 
ATOM     22  C   UNL     1      -2.385  12.742  20.178  0.00  0.00    +0.000 C 
ENDBRANCH  13  22
ENDBRANCH   1  17
TORSDOF 3
ENDMDL
MODEL 8
REMARK VINA RESULT:      -6.4      2.010      3.259
REMARK  Name = 
REMARK  6 active torsions:
REMARK  status: ('A' for Active; 'I' for Inactive)
REMARK    1  A    between atoms: C_1  and  C_2
REMARK    2  A    between atoms: C_2  and  N_3
REMARK    3  A    between atoms: C_7  and  C_9
REMARK    4  A    between atoms: C_9  and  C_10
REMARK    5  A    between atoms: C_15  and  C_16
REMARK    6  A    between atoms: C_18  and  C_19
REMARK                            x       y       z     vdW  Elec       q    Type
REMARK                         _______ _______ _______ _____ _____    ______ ____
ROOT
ATOM      1  C   UNL     1       2.701   4.740  17.686  0.00  0.00    +0.000 C 
ENDROOT
BRANCH   1   2
ATOM      2  C   UNL     1       2.175   5.222  19.000  0.00  0.00    +0.000 A 
ATOM      3  C   UNL     1       1.926   4.462  20.128  0.00  0.00    +0.000 A 
ATOM      4  O   UNL     1       1.471   5.232  21.146  0.00  0.00    +0.000 OA
ATOM      5  C   UNL     1       1.438   6.512  20.694  0.00  0.00    +0.000 A 
ATOM      6  C   UNL     1       1.037   7.611  21.450  0.00  0.00    +0.000 A 
ATOM      7  C   UNL     1       1.076   8.862  20.821  0.00  0.00    +0.000 A 
ATOM      8  C   UNL     1       0.667  10.102  21.562  0.00  0.00    +0.000 C 
ATOM      9  C   UNL     1       1.510   8.964  19.492  0.00  0.00    +0.000 A 
ATOM     10  C   UNL     1       1.919   7.841  18.737  0.00  0.00    +0.000 A 
ATOM     11  C   UNL     1       2.386   8.046  17.323  0.00  0.00    +0.000 C 
ATOM     12  C   UNL     1       1.868   6.576  19.372  0.00  0.00    +0.000 A 
ENDBRANCH   1   2
BRANCH   1  17
ATOM     13  N   UNL     1       7.469   6.590  16.817  0.00  0.00    +0.000 NA
ATOM     14  C   UNL     1       7.470   5.105  16.871  0.00  0.00    +0.000 C 
ATOM     15  C   UNL     1       6.532   4.512  17.944  0.00  0.00    +0.000 C 
ATOM     16  N   UNL     1       5.173   5.049  17.821  0.00  0.00    +0.000 N 
ATOM     17  C   UNL     1       4.103   4.167  17.767  0.00  0.00    +0.000 C 
ATOM     18  O   UNL     1       4.264   2.947  17.784  0.00  0.00    +0.000 OA
ATOM     19  C   UNL     1       5.096   6.513  17.707  0.00  0.00    +0.000 C 
ATOM     20  C   UNL     1       6.069   7.037  16.634  0.00  0.00    +0.000 C 
BRANCH  13  22
ATOM     21  C   UNL     1       8.218   8.667  18.029  0.00  0.00    +0.000 C 
ATOM     22  C   UNL     1       8.122   7.147  18.014  0.00  0.00    +0.000 C 
ENDBRANCH  13  22
ENDBRANCH   1  17
TORSDOF 3
ENDMDL
MODEL 9
REMARK VINA RESULT:      -6.4      3.912      7.346
REMARK  Name = 
REMARK  6 active torsions:
REMARK  status: ('A' for Active; 'I' for Inactive)
REMARK    1  A    between atoms: C_1  and  C_2
REMARK    2  A    between atoms: C_2  and  N_3
REMARK    3  A    between atoms: C_7  and  C_9
REMARK    4  A    between atoms: C_9  and  C_10
REMARK    5  A    between atoms: C_15  and  C_16
REMARK    6  A    between atoms: C_18  and  C_19
REMARK                            x       y       z     vdW  Elec       q    Type
REMARK                         _______ _______ _______ _____ _____    ______ ____
ROOT
ATOM      1  C   UNL     1       5.770   5.398  18.863  0.00  0.00    +0.000 C 
ENDROOT
BRANCH   1   2
ATOM      2  C   UNL     1       6.465   5.652  17.563  0.00  0.00    +0.000 A 
ATOM      3  C   UNL     1       7.469   6.570  17.319  0.00  0.00    +0.000 A 
ATOM      4  O   UNL     1       7.879   6.515  16.030  0.00  0.00    +0.000 OA
ATOM      5  C   UNL     1       7.155   5.540  15.422  0.00  0.00    +0.000 A 
ATOM      6  C   UNL     1       7.291   5.165  14.087  0.00  0.00    +0.000 A 
ATOM      7  C   UNL     1       6.464   4.131  13.631  0.00  0.00    +0.000 A 
ATOM      8  C   UNL     1       6.546   3.658  12.209  0.00  0.00    +0.000 C 
ATOM      9  C   UNL     1       5.558   3.521  14.510  0.00  0.00    +0.000 A 
ATOM     10  C   UNL     1       5.434   3.906  15.864  0.00  0.00    +0.000 A 
ATOM     11  C   UNL     1       4.448   3.185  16.739  0.00  0.00    +0.000 C 
ATOM     12  C   UNL     1       6.264   4.961  16.319  0.00  0.00    +0.000 A 
ENDBRANCH   1   2
BRANCH   1  17
ATOM     13  N   UNL     1       1.399   2.731  19.688  0.00  0.00    +0.000 NA
ATOM     14  C   UNL     1       1.122   4.015  18.992  0.00  0.00    +0.000 C 
ATOM     15  C   UNL     1       1.980   5.198  19.488  0.00  0.00    +0.000 C 
ATOM     16  N   UNL     1       3.409   4.867  19.467  0.00  0.00    +0.000 N 
ATOM     17  C   UNL     1       4.291   5.733  18.835  0.00  0.00    +0.000 C 
ATOM     18  O   UNL     1       3.905   6.751  18.262  0.00  0.00    +0.000 OA
ATOM     19  C   UNL     1       3.754   3.581  20.090  0.00  0.00    +0.000 C 
ATOM     20  C   UNL     1       2.847   2.451  19.565  0.00  0.00    +0.000 C 
BRANCH  13  22
ATOM     21  C   UNL     1       1.964   2.421  22.123  0.00  0.00    +0.000 C 
ATOM     22  C   UNL     1       0.917   2.787  21.078  0.00  0.00    +0.000 C 
ENDBRANCH  13  22
ENDBRANCH   1  17
TORSDOF 3
ENDMDL
