MODEL 1
REMARK VINA RESULT:      -6.8      0.000      0.000
REMARK  Name = 
REMARK  19 active torsions:
REMARK  status: ('A' for Active; 'I' for Inactive)
REMARK    1  A    between atoms: C_1  and  C_2
REMARK    2  A    between atoms: C_2  and  C_3
REMARK    3  A    between atoms: C_3  and  C_4
REMARK    4  A    between atoms: C_4  and  C_5
REMARK    5  A    between atoms: C_5  and  C_6
REMARK    6  A    between atoms: C_6  and  C_7
REMARK    7  A    between atoms: C_7  and  C_8
REMARK    8  A    between atoms: C_8  and  C_9
REMARK    9  A    between atoms: C_9  and  C_10
REMARK   10  A    between atoms: C_10  and  C_11
REMARK   11  A    between atoms: C_11  and  C_12
REMARK   12  A    between atoms: C_12  and  C_13
REMARK   13  A    between atoms: C_13  and  C_14
REMARK   14  A    between atoms: C_14  and  O_16
REMARK   15  A    between atoms: O_16  and  C_17
REMARK   16  A    between atoms: C_17  and  C_18
REMARK   17  A    between atoms: C_17  and  C_28
REMARK   18  A    between atoms: C_31  and  S_32
REMARK   19  A    between atoms: S_32  and  C_33
REMARK                            x       y       z     vdW  Elec       q    Type
REMARK                         _______ _______ _______ _____ _____    ______ ____
ROOT
ATOM      1  C   UNL     1       3.071   7.512  17.476  0.00  0.00    +0.000 C 
ENDROOT
BRANCH   1   2
ATOM      2  C   UNL     1       2.569   6.183  18.032  0.00  0.00    +0.000 A 
ATOM      3  C   UNL     1       1.867   5.240  17.265  0.00  0.00    +0.000 A 
ATOM      4  C   UNL     1       1.404   4.046  17.838  0.00  0.00    +0.000 A 
ATOM      5  C   UNL     1       1.617   3.759  19.192  0.00  0.00    +0.000 A 
ATOM      6  C   UNL     1       1.142   2.570  19.778  0.00  0.00    +0.000 A 
ATOM      7  C   UNL     1       1.344   2.311  21.133  0.00  0.00    +0.000 A 
ATOM      8  C   UNL     1       2.021   3.238  21.921  0.00  0.00    +0.000 A 
ATOM      9  C   UNL     1       2.506   4.418  21.349  0.00  0.00    +0.000 A 
ATOM     10  C   UNL     1       2.317   4.692  19.983  0.00  0.00    +0.000 A 
ATOM     11  C   UNL     1       2.797   5.880  19.391  0.00  0.00    +0.000 A 
ENDBRANCH   1   2
BRANCH   1  12
ATOM     12  C   UNL     1       2.380   8.708  18.030  0.00  0.00    +0.000 A 
ATOM     13  C   UNL     1       1.455   8.955  19.017  0.00  0.00    +0.000 A 
ATOM     14  N   UNL     1       1.260  10.309  19.154  0.00  0.00    +0.000 NA
ATOM     15  C   UNL     1       2.056  10.849  18.255  0.00  0.00    +0.000 A 
ATOM     16  O   UNL     1       2.768   9.922  17.530  0.00  0.00    +0.000 OA
BRANCH  15  17
ATOM     17  S   UNL     1       2.286  12.555  18.014  0.00  0.00    +0.000 S 
ATOM     18  C   UNL     1       0.699  13.235  18.549  0.00  0.00    +0.000 C 
ENDBRANCH  15  17
ENDBRANCH   1  12
BRANCH   1  19
ATOM     19  O   UNL     1       4.473   7.700  17.752  0.00  0.00    +0.000 OA
BRANCH  19  20
ATOM     20  C   UNL     1       5.318   7.285  16.773  0.00  0.00    +0.000 C 
ATOM     21  O   UNL     1       4.962   6.891  15.671  0.00  0.00    +0.000 OA
BRANCH  20  22
ATOM     22  C   UNL     1       6.757   7.373  17.228  0.00  0.00    +0.000 C 
BRANCH  22  23
ATOM     23  C   UNL     1       7.062   6.260  18.230  0.00  0.00    +0.000 C 
BRANCH  23  24
ATOM     24  C   UNL     1       6.994   4.872  17.603  0.00  0.00    +0.000 C 
BRANCH  24  25
ATOM     25  C   UNL     1       5.641   4.221  17.891  0.00  0.00    +0.000 C 
BRANCH  25  26
ATOM     26  C   UNL     1       4.994   3.716  16.606  0.00  0.00    +0.000 C 
BRANCH  26  27
ATOM     27  C   UNL     1       6.041   3.493  15.520  0.00  0.00    +0.000 C 
BRANCH  27  28
ATOM     28  C   UNL     1       5.478   3.858  14.151  0.00  0.00    +0.000 C 
BRANCH  28  29
ATOM     29  C   UNL     1       6.589   3.937  13.112  0.00  0.00    +0.000 C 
BRANCH  29  30
ATOM     30  C   UNL     1       6.027   3.739  11.708  0.00  0.00    +0.000 C 
BRANCH  30  31
ATOM     31  C   UNL     1       5.023   2.591  11.684  0.00  0.00    +0.000 C 
BRANCH  31  32
ATOM     32  C   UNL     1       3.671   3.069  11.162  0.00  0.00    +0.000 C 
BRANCH  32  34
ATOM     33  C   UNL     1       2.499   4.447   9.423  0.00  0.00    +0.000 C 
ATOM     34  C   UNL     1       3.839   3.924   9.910  0.00  0.00    +0.000 C 
ENDBRANCH  32  34
ENDBRANCH  31  32
ENDBRANCH  30  31
ENDBRANCH  29  30
ENDBRANCH  28  29
ENDBRANCH  27  28
ENDBRANCH  26  27
ENDBRANCH  25  26
ENDBRANCH  24  25
ENDBRANCH  23  24
ENDBRANCH  22  23
ENDBRANCH  20  22
ENDBRANCH  19  20
ENDBRANCH   1  19
TORSDOF 17
ENDMDL
MODEL 2
REMARK VINA RESULT:      -6.4      4.336      8.070
REMARK  Name = 
REMARK  19 active torsions:
REMARK  status: ('A' for Active; 'I' for Inactive)
REMARK    1  A    between atoms: C_1  and  C_2
REMARK    2  A    between atoms: C_2  and  C_3
REMARK    3  A    between atoms: C_3  and  C_4
REMARK    4  A    between atoms: C_4  and  C_5
REMARK    5  A    between atoms: C_5  and  C_6
REMARK    6  A    between atoms: C_6  and  C_7
REMARK    7  A    between atoms: C_7  and  C_8
REMARK    8  A    between atoms: C_8  and  C_9
REMARK    9  A    between atoms: C_9  and  C_10
REMARK   10  A    between atoms: C_10  and  C_11
REMARK   11  A    between atoms: C_11  and  C_12
REMARK   12  A    between atoms: C_12  and  C_13
REMARK   13  A    between atoms: C_13  and  C_14
REMARK   14  A    between atoms: C_14  and  O_16
REMARK   15  A    between atoms: O_16  and  C_17
REMARK   16  A    between atoms: C_17  and  C_18
REMARK   17  A    between atoms: C_17  and  C_28
REMARK   18  A    between atoms: C_31  and  S_32
REMARK   19  A    between atoms: S_32  and  C_33
REMARK                            x       y       z     vdW  Elec       q    Type
REMARK                         _______ _______ _______ _____ _____    ______ ____
ROOT
ATOM      1  C   UNL     1       3.070   6.720  18.871  0.00  0.00    +0.000 C 
ENDROOT
BRANCH   1   2
ATOM      2  C   UNL     1       2.125   7.903  19.050  0.00  0.00    +0.000 A 
ATOM      3  C   UNL     1       1.711   8.729  17.993  0.00  0.00    +0.000 A 
ATOM      4  C   UNL     1       0.862   9.823  18.222  0.00  0.00    +0.000 A 
ATOM      5  C   UNL     1       0.409  10.134  19.509  0.00  0.00    +0.000 A 
ATOM      6  C   UNL     1      -0.429  11.239  19.750  0.00  0.00    +0.000 A 
ATOM      7  C   UNL     1      -0.853  11.546  21.042  0.00  0.00    +0.000 A 
ATOM      8  C   UNL     1      -0.442  10.755  22.112  0.00  0.00    +0.000 A 
ATOM      9  C   UNL     1       0.383   9.650  21.885  0.00  0.00    +0.000 A 
ATOM     10  C   UNL     1       0.814   9.321  20.588  0.00  0.00    +0.000 A 
ATOM     11  C   UNL     1       1.651   8.211  20.343  0.00  0.00    +0.000 A 
ENDBRANCH   1   2
BRANCH   1  12
ATOM     12  C   UNL     1       2.644   5.483  19.580  0.00  0.00    +0.000 A 
ATOM     13  C   UNL     1       2.126   5.173  20.815  0.00  0.00    +0.000 A 
ATOM     14  N   UNL     1       1.821   3.833  20.877  0.00  0.00    +0.000 NA
ATOM     15  C   UNL     1       2.162   3.363  19.695  0.00  0.00    +0.000 A 
ATOM     16  O   UNL     1       2.676   4.322  18.855  0.00  0.00    +0.000 OA
BRANCH  15  17
ATOM     17  S   UNL     1       1.937   1.723  19.164  0.00  0.00    +0.000 S 
ATOM     18  C   UNL     1       3.491   1.380  18.307  0.00  0.00    +0.000 C 
ENDBRANCH  15  17
ENDBRANCH   1  12
BRANCH   1  19
ATOM     19  O   UNL     1       3.199   6.358  17.482  0.00  0.00    +0.000 OA
BRANCH  19  20
ATOM     20  C   UNL     1       4.466   6.108  17.062  0.00  0.00    +0.000 C 
ATOM     21  O   UNL     1       4.796   5.137  16.394  0.00  0.00    +0.000 OA
BRANCH  20  22
ATOM     22  C   UNL     1       5.414   7.187  17.531  0.00  0.00    +0.000 C 
BRANCH  22  23
ATOM     23  C   UNL     1       6.851   6.824  17.161  0.00  0.00    +0.000 C 
BRANCH  23  24
ATOM     24  C   UNL     1       7.743   6.637  18.383  0.00  0.00    +0.000 C 
BRANCH  24  25
ATOM     25  C   UNL     1       8.475   7.938  18.714  0.00  0.00    +0.000 C 
BRANCH  25  26
ATOM     26  C   UNL     1       8.040   9.062  17.780  0.00  0.00    +0.000 C 
BRANCH  26  27
ATOM     27  C   UNL     1       8.826  10.339  18.061  0.00  0.00    +0.000 C 
BRANCH  27  28
ATOM     28  C   UNL     1       9.377  10.326  19.482  0.00  0.00    +0.000 C 
BRANCH  28  29
ATOM     29  C   UNL     1       9.817  11.722  19.904  0.00  0.00    +0.000 C 
BRANCH  29  30
ATOM     30  C   UNL     1      11.309  11.741  20.225  0.00  0.00    +0.000 C 
BRANCH  30  31
ATOM     31  C   UNL     1      12.019  12.833  19.430  0.00  0.00    +0.000 C 
BRANCH  31  32
ATOM     32  C   UNL     1      11.075  13.998  19.152  0.00  0.00    +0.000 C 
BRANCH  32  34
ATOM     33  C   UNL     1      11.360  13.164  16.803  0.00  0.00    +0.000 C 
ATOM     34  C   UNL     1      11.092  14.377  17.674  0.00  0.00    +0.000 C 
ENDBRANCH  32  34
ENDBRANCH  31  32
ENDBRANCH  30  31
ENDBRANCH  29  30
ENDBRANCH  28  29
ENDBRANCH  27  28
ENDBRANCH  26  27
ENDBRANCH  25  26
ENDBRANCH  24  25
ENDBRANCH  23  24
ENDBRANCH  22  23
ENDBRANCH  20  22
ENDBRANCH  19  20
ENDBRANCH   1  19
TORSDOF 17
ENDMDL
MODEL 3
REMARK VINA RESULT:      -6.4      4.296      7.858
REMARK  Name = 
REMARK  19 active torsions:
REMARK  status: ('A' for Active; 'I' for Inactive)
REMARK    1  A    between atoms: C_1  and  C_2
REMARK    2  A    between atoms: C_2  and  C_3
REMARK    3  A    between atoms: C_3  and  C_4
REMARK    4  A    between atoms: C_4  and  C_5
REMARK    5  A    between atoms: C_5  and  C_6
REMARK    6  A    between atoms: C_6  and  C_7
REMARK    7  A    between atoms: C_7  and  C_8
REMARK    8  A    between atoms: C_8  and  C_9
REMARK    9  A    between atoms: C_9  and  C_10
REMARK   10  A    between atoms: C_10  and  C_11
REMARK   11  A    between atoms: C_11  and  C_12
REMARK   12  A    between atoms: C_12  and  C_13
REMARK   13  A    between atoms: C_13  and  C_14
REMARK   14  A    between atoms: C_14  and  O_16
REMARK   15  A    between atoms: O_16  and  C_17
REMARK   16  A    between atoms: C_17  and  C_18
REMARK   17  A    between atoms: C_17  and  C_28
REMARK   18  A    between atoms: C_31  and  S_32
REMARK   19  A    between atoms: S_32  and  C_33
REMARK                            x       y       z     vdW  Elec       q    Type
REMARK                         _______ _______ _______ _____ _____    ______ ____
ROOT
ATOM      1  C   UNL     1      -0.474  11.644  21.243  0.00  0.00    +0.000 C 
ENDROOT
BRANCH   1   2
ATOM      2  C   UNL     1      -1.515  11.661  20.129  0.00  0.00    +0.000 A 
ATOM      3  C   UNL     1      -2.729  12.361  20.217  0.00  0.00    +0.000 A 
ATOM      4  C   UNL     1      -3.664  12.317  19.170  0.00  0.00    +0.000 A 
ATOM      5  C   UNL     1      -3.423  11.570  18.012  0.00  0.00    +0.000 A 
ATOM      6  C   UNL     1      -4.362  11.507  16.964  0.00  0.00    +0.000 A 
ATOM      7  C   UNL     1      -4.114  10.740  15.827  0.00  0.00    +0.000 A 
ATOM      8  C   UNL     1      -2.926  10.022  15.722  0.00  0.00    +0.000 A 
ATOM      9  C   UNL     1      -1.981  10.082  16.751  0.00  0.00    +0.000 A 
ATOM     10  C   UNL     1      -2.211  10.856  17.902  0.00  0.00    +0.000 A 
ATOM     11  C   UNL     1      -1.270  10.925  18.951  0.00  0.00    +0.000 A 
ENDBRANCH   1   2
BRANCH   1  12
ATOM     12  C   UNL     1      -0.290  12.950  21.931  0.00  0.00    +0.000 A 
ATOM     13  C   UNL     1       0.447  14.090  21.720  0.00  0.00    +0.000 A 
ATOM     14  N   UNL     1       0.124  15.043  22.658  0.00  0.00    +0.000 NA
ATOM     15  C   UNL     1      -0.787  14.465  23.414  0.00  0.00    +0.000 A 
ATOM     16  O   UNL     1      -1.084  13.181  23.023  0.00  0.00    +0.000 OA
BRANCH  15  17
ATOM     17  S   UNL     1      -1.623  15.225  24.735  0.00  0.00    +0.000 S 
ATOM     18  C   UNL     1      -3.165  14.284  24.805  0.00  0.00    +0.000 C 
ENDBRANCH  15  17
ENDBRANCH   1  12
BRANCH   1  19
ATOM     19  O   UNL     1      -0.824  10.697  22.272  0.00  0.00    +0.000 OA
BRANCH  19  20
ATOM     20  C   UNL     1       0.120   9.759  22.543  0.00  0.00    +0.000 C 
ATOM     21  O   UNL     1       0.594   9.554  23.652  0.00  0.00    +0.000 OA
BRANCH  20  22
ATOM     22  C   UNL     1       0.507   9.004  21.293  0.00  0.00    +0.000 C 
BRANCH  22  23
ATOM     23  C   UNL     1       1.614   7.998  21.606  0.00  0.00    +0.000 C 
BRANCH  23  24
ATOM     24  C   UNL     1       1.820   6.985  20.485  0.00  0.00    +0.000 C 
BRANCH  24  25
ATOM     25  C   UNL     1       2.200   7.696  19.186  0.00  0.00    +0.000 C 
BRANCH  25  26
ATOM     26  C   UNL     1       2.652   6.697  18.128  0.00  0.00    +0.000 C 
BRANCH  26  27
ATOM     27  C   UNL     1       4.099   6.274  18.361  0.00  0.00    +0.000 C 
BRANCH  27  28
ATOM     28  C   UNL     1       4.523   5.230  17.334  0.00  0.00    +0.000 C 
BRANCH  28  29
ATOM     29  C   UNL     1       3.413   4.211  17.109  0.00  0.00    +0.000 C 
BRANCH  29  30
ATOM     30  C   UNL     1       3.477   3.106  18.158  0.00  0.00    +0.000 C 
BRANCH  30  31
ATOM     31  C   UNL     1       2.386   2.067  17.916  0.00  0.00    +0.000 C 
BRANCH  31  32
ATOM     32  C   UNL     1       1.258   2.224  18.930  0.00  0.00    +0.000 C 
BRANCH  32  34
ATOM     33  C   UNL     1       1.347   2.949  21.331  0.00  0.00    +0.000 C 
ATOM     34  C   UNL     1       1.537   3.379  19.887  0.00  0.00    +0.000 C 
ENDBRANCH  32  34
ENDBRANCH  31  32
ENDBRANCH  30  31
ENDBRANCH  29  30
ENDBRANCH  28  29
ENDBRANCH  27  28
ENDBRANCH  26  27
ENDBRANCH  25  26
ENDBRANCH  24  25
ENDBRANCH  23  24
ENDBRANCH  22  23
ENDBRANCH  20  22
ENDBRANCH  19  20
ENDBRANCH   1  19
TORSDOF 17
ENDMDL
MODEL 4
REMARK VINA RESULT:      -6.4      5.188      9.105
REMARK  Name = 
REMARK  19 active torsions:
REMARK  status: ('A' for Active; 'I' for Inactive)
REMARK    1  A    between atoms: C_1  and  C_2
REMARK    2  A    between atoms: C_2  and  C_3
REMARK    3  A    between atoms: C_3  and  C_4
REMARK    4  A    between atoms: C_4  and  C_5
REMARK    5  A    between atoms: C_5  and  C_6
REMARK    6  A    between atoms: C_6  and  C_7
REMARK    7  A    between atoms: C_7  and  C_8
REMARK    8  A    between atoms: C_8  and  C_9
REMARK    9  A    between atoms: C_9  and  C_10
REMARK   10  A    between atoms: C_10  and  C_11
REMARK   11  A    between atoms: C_11  and  C_12
REMARK   12  A    between atoms: C_12  and  C_13
REMARK   13  A    between atoms: C_13  and  C_14
REMARK   14  A    between atoms: C_14  and  O_16
REMARK   15  A    between atoms: O_16  and  C_17
REMARK   16  A    between atoms: C_17  and  C_18
REMARK   17  A    between atoms: C_17  and  C_28
REMARK   18  A    between atoms: C_31  and  S_32
REMARK   19  A    between atoms: S_32  and  C_33
REMARK                            x       y       z     vdW  Elec       q    Type
REMARK                         _______ _______ _______ _____ _____    ______ ____
ROOT
ATOM      1  C   UNL     1       6.574   4.655  16.576  0.00  0.00    +0.000 C 
ENDROOT
BRANCH   1   2
ATOM      2  C   UNL     1       5.147   4.570  17.107  0.00  0.00    +0.000 A 
ATOM      3  C   UNL     1       4.284   5.674  17.184  0.00  0.00    +0.000 A 
ATOM      4  C   UNL     1       2.989   5.542  17.709  0.00  0.00    +0.000 A 
ATOM      5  C   UNL     1       2.518   4.311  18.182  0.00  0.00    +0.000 A 
ATOM      6  C   UNL     1       1.227   4.173  18.725  0.00  0.00    +0.000 A 
ATOM      7  C   UNL     1       0.783   2.944  19.211  0.00  0.00    +0.000 A 
ATOM      8  C   UNL     1       1.626   1.837  19.164  0.00  0.00    +0.000 A 
ATOM      9  C   UNL     1       2.907   1.957  18.618  0.00  0.00    +0.000 A 
ATOM     10  C   UNL     1       3.368   3.188  18.117  0.00  0.00    +0.000 A 
ATOM     11  C   UNL     1       4.661   3.328  17.567  0.00  0.00    +0.000 A 
ENDBRANCH   1   2
BRANCH   1  12
ATOM     12  C   UNL     1       6.680   4.612  15.092  0.00  0.00    +0.000 A 
ATOM     13  C   UNL     1       7.334   5.331  14.121  0.00  0.00    +0.000 A 
ATOM     14  N   UNL     1       7.136   4.751  12.889  0.00  0.00    +0.000 NA
ATOM     15  C   UNL     1       6.370   3.708  13.136  0.00  0.00    +0.000 A 
ATOM     16  O   UNL     1       6.052   3.568  14.466  0.00  0.00    +0.000 OA
BRANCH  15  17
ATOM     17  S   UNL     1       5.847   2.546  11.954  0.00  0.00    +0.000 S 
ATOM     18  C   UNL     1       4.288   3.258  11.380  0.00  0.00    +0.000 C 
ENDBRANCH  15  17
ENDBRANCH   1  12
BRANCH   1  19
ATOM     19  O   UNL     1       7.213   5.880  16.985  0.00  0.00    +0.000 OA
BRANCH  19  20
ATOM     20  C   UNL     1       7.632   5.913  18.277  0.00  0.00    +0.000 C 
ATOM     21  O   UNL     1       7.521   4.985  19.065  0.00  0.00    +0.000 OA
BRANCH  20  22
ATOM     22  C   UNL     1       8.251   7.252  18.610  0.00  0.00    +0.000 C 
BRANCH  22  23
ATOM     23  C   UNL     1       7.586   8.358  17.791  0.00  0.00    +0.000 C 
BRANCH  23  24
ATOM     24  C   UNL     1       8.491   9.569  17.598  0.00  0.00    +0.000 C 
BRANCH  24  25
ATOM     25  C   UNL     1       9.055  10.033  18.941  0.00  0.00    +0.000 C 
BRANCH  25  26
ATOM     26  C   UNL     1       9.293  11.539  18.942  0.00  0.00    +0.000 C 
BRANCH  26  27
ATOM     27  C   UNL     1       9.956  11.985  20.241  0.00  0.00    +0.000 C 
BRANCH  27  28
ATOM     28  C   UNL     1       9.492  11.117  21.405  0.00  0.00    +0.000 C 
BRANCH  28  29
ATOM     29  C   UNL     1       8.274  11.729  22.084  0.00  0.00    +0.000 C 
BRANCH  29  30
ATOM     30  C   UNL     1       8.701  12.678  23.200  0.00  0.00    +0.000 C 
BRANCH  30  31
ATOM     31  C   UNL     1       8.023  14.036  23.044  0.00  0.00    +0.000 C 
BRANCH  31  32
ATOM     32  C   UNL     1       9.038  15.165  23.190  0.00  0.00    +0.000 C 
BRANCH  32  34
ATOM     33  C   UNL     1      10.782  15.263  21.389  0.00  0.00    +0.000 C 
ATOM     34  C   UNL     1       9.412  15.745  21.830  0.00  0.00    +0.000 C 
ENDBRANCH  32  34
ENDBRANCH  31  32
ENDBRANCH  30  31
ENDBRANCH  29  30
ENDBRANCH  28  29
ENDBRANCH  27  28
ENDBRANCH  26  27
ENDBRANCH  25  26
ENDBRANCH  24  25
ENDBRANCH  23  24
ENDBRANCH  22  23
ENDBRANCH  20  22
ENDBRANCH  19  20
ENDBRANCH   1  19
TORSDOF 17
ENDMDL
MODEL 5
REMARK VINA RESULT:      -6.3      4.722      8.481
REMARK  Name = 
REMARK  19 active torsions:
REMARK  status: ('A' for Active; 'I' for Inactive)
REMARK    1  A    between atoms: C_1  and  C_2
REMARK    2  A    between atoms: C_2  and  C_3
REMARK    3  A    between atoms: C_3  and  C_4
REMARK    4  A    between atoms: C_4  and  C_5
REMARK    5  A    between atoms: C_5  and  C_6
REMARK    6  A    between atoms: C_6  and  C_7
REMARK    7  A    between atoms: C_7  and  C_8
REMARK    8  A    between atoms: C_8  and  C_9
REMARK    9  A    between atoms: C_9  and  C_10
REMARK   10  A    between atoms: C_10  and  C_11
REMARK   11  A    between atoms: C_11  and  C_12
REMARK   12  A    between atoms: C_12  and  C_13
REMARK   13  A    between atoms: C_13  and  C_14
REMARK   14  A    between atoms: C_14  and  O_16
REMARK   15  A    between atoms: O_16  and  C_17
REMARK   16  A    between atoms: C_17  and  C_18
REMARK   17  A    between atoms: C_17  and  C_28
REMARK   18  A    between atoms: C_31  and  S_32
REMARK   19  A    between atoms: S_32  and  C_33
REMARK                            x       y       z     vdW  Elec       q    Type
REMARK                         _______ _______ _______ _____ _____    ______ ____
ROOT
ATOM      1  C   UNL     1       4.462   6.460  18.015  0.00  0.00    +0.000 C 
ENDROOT
BRANCH   1   2
ATOM      2  C   UNL     1       3.298   7.401  18.303  0.00  0.00    +0.000 A 
ATOM      3  C   UNL     1       2.860   8.387  17.405  0.00  0.00    +0.000 A 
ATOM      4  C   UNL     1       1.800   9.246  17.737  0.00  0.00    +0.000 A 
ATOM      5  C   UNL     1       1.153   9.156  18.975  0.00  0.00    +0.000 A 
ATOM      6  C   UNL     1       0.099  10.023  19.322  0.00  0.00    +0.000 A 
ATOM      7  C   UNL     1      -0.520   9.933  20.568  0.00  0.00    +0.000 A 
ATOM      8  C   UNL     1      -0.092   8.977  21.485  0.00  0.00    +0.000 A 
ATOM      9  C   UNL     1       0.946   8.103  21.149  0.00  0.00    +0.000 A 
ATOM     10  C   UNL     1       1.577   8.175  19.895  0.00  0.00    +0.000 A 
ATOM     11  C   UNL     1       2.629   7.303  19.542  0.00  0.00    +0.000 A 
ENDBRANCH   1   2
BRANCH   1  12
ATOM     12  C   UNL     1       4.118   5.015  18.101  0.00  0.00    +0.000 A 
ATOM     13  C   UNL     1       3.814   4.011  17.213  0.00  0.00    +0.000 A 
ATOM     14  N   UNL     1       3.684   2.814  17.879  0.00  0.00    +0.000 NA
ATOM     15  C   UNL     1       3.903   3.115  19.143  0.00  0.00    +0.000 A 
ATOM     16  O   UNL     1       4.172   4.448  19.346  0.00  0.00    +0.000 OA
BRANCH  15  17
ATOM     17  S   UNL     1       3.940   1.975  20.454  0.00  0.00    +0.000 S 
ATOM     18  C   UNL     1       2.685   2.637  21.574  0.00  0.00    +0.000 C 
ENDBRANCH  15  17
ENDBRANCH   1  12
BRANCH   1  19
ATOM     19  O   UNL     1       4.987   6.666  16.688  0.00  0.00    +0.000 OA
BRANCH  19  20
ATOM     20  C   UNL     1       6.331   6.515  16.565  0.00  0.00    +0.000 C 
ATOM     21  O   UNL     1       6.886   6.011  15.598  0.00  0.00    +0.000 OA
BRANCH  20  22
ATOM     22  C   UNL     1       7.049   7.051  17.782  0.00  0.00    +0.000 C 
BRANCH  22  23
ATOM     23  C   UNL     1       7.685   8.405  17.464  0.00  0.00    +0.000 C 
BRANCH  23  24
ATOM     24  C   UNL     1       8.488   8.963  18.634  0.00  0.00    +0.000 C 
BRANCH  24  25
ATOM     25  C   UNL     1       9.255  10.215  18.205  0.00  0.00    +0.000 C 
BRANCH  25  26
ATOM     26  C   UNL     1       8.300  11.307  17.736  0.00  0.00    +0.000 C 
BRANCH  26  27
ATOM     27  C   UNL     1       8.960  12.679  17.818  0.00  0.00    +0.000 C 
BRANCH  27  28
ATOM     28  C   UNL     1      10.456  12.570  17.550  0.00  0.00    +0.000 C 
BRANCH  28  29
ATOM     29  C   UNL     1      11.201  13.761  18.140  0.00  0.00    +0.000 C 
BRANCH  29  30
ATOM     30  C   UNL     1      11.460  13.549  19.628  0.00  0.00    +0.000 C 
BRANCH  30  31
ATOM     31  C   UNL     1      10.862  14.688  20.449  0.00  0.00    +0.000 C 
BRANCH  31  32
ATOM     32  C   UNL     1      10.182  14.149  21.704  0.00  0.00    +0.000 C 
BRANCH  32  34
ATOM     33  C   UNL     1       8.762  12.080  21.708  0.00  0.00    +0.000 C 
ATOM     34  C   UNL     1       8.813  13.560  21.375  0.00  0.00    +0.000 C 
ENDBRANCH  32  34
ENDBRANCH  31  32
ENDBRANCH  30  31
ENDBRANCH  29  30
ENDBRANCH  28  29
ENDBRANCH  27  28
ENDBRANCH  26  27
ENDBRANCH  25  26
ENDBRANCH  24  25
ENDBRANCH  23  24
ENDBRANCH  22  23
ENDBRANCH  20  22
ENDBRANCH  19  20
ENDBRANCH   1  19
TORSDOF 17
ENDMDL
MODEL 6
REMARK VINA RESULT:      -6.2      3.409      7.043
REMARK  Name = 
REMARK  19 active torsions:
REMARK  status: ('A' for Active; 'I' for Inactive)
REMARK    1  A    between atoms: C_1  and  C_2
REMARK    2  A    between atoms: C_2  and  C_3
REMARK    3  A    between atoms: C_3  and  C_4
REMARK    4  A    between atoms: C_4  and  C_5
REMARK    5  A    between atoms: C_5  and  C_6
REMARK    6  A    between atoms: C_6  and  C_7
REMARK    7  A    between atoms: C_7  and  C_8
REMARK    8  A    between atoms: C_8  and  C_9
REMARK    9  A    between atoms: C_9  and  C_10
REMARK   10  A    between atoms: C_10  and  C_11
REMARK   11  A    between atoms: C_11  and  C_12
REMARK   12  A    between atoms: C_12  and  C_13
REMARK   13  A    between atoms: C_13  and  C_14
REMARK   14  A    between atoms: C_14  and  O_16
REMARK   15  A    between atoms: O_16  and  C_17
REMARK   16  A    between atoms: C_17  and  C_18
REMARK   17  A    between atoms: C_17  and  C_28
REMARK   18  A    between atoms: C_31  and  S_32
REMARK   19  A    between atoms: S_32  and  C_33
REMARK                            x       y       z     vdW  Elec       q    Type
REMARK                         _______ _______ _______ _____ _____    ______ ____
ROOT
ATOM      1  C   UNL     1       0.693  11.398  20.290  0.00  0.00    +0.000 C 
ENDROOT
BRANCH   1   2
ATOM      2  C   UNL     1      -0.679  11.516  19.634  0.00  0.00    +0.000 A 
ATOM      3  C   UNL     1      -1.764  12.180  20.227  0.00  0.00    +0.000 A 
ATOM      4  C   UNL     1      -3.013  12.231  19.589  0.00  0.00    +0.000 A 
ATOM      5  C   UNL     1      -3.222  11.616  18.349  0.00  0.00    +0.000 A 
ATOM      6  C   UNL     1      -4.476  11.649  17.710  0.00  0.00    +0.000 A 
ATOM      7  C   UNL     1      -4.671  11.013  16.485  0.00  0.00    +0.000 A 
ATOM      8  C   UNL     1      -3.616  10.331  15.884  0.00  0.00    +0.000 A 
ATOM      9  C   UNL     1      -2.363  10.299  16.504  0.00  0.00    +0.000 A 
ATOM     10  C   UNL     1      -2.147  10.941  17.735  0.00  0.00    +0.000 A 
ATOM     11  C   UNL     1      -0.890  10.914  18.376  0.00  0.00    +0.000 A 
ENDBRANCH   1   2
BRANCH   1  12
ATOM     12  C   UNL     1       1.446  12.679  20.369  0.00  0.00    +0.000 A 
ATOM     13  C   UNL     1       1.534  13.728  21.253  0.00  0.00    +0.000 A 
ATOM     14  N   UNL     1       2.504  14.613  20.842  0.00  0.00    +0.000 NA
ATOM     15  C   UNL     1       2.975  14.091  19.728  0.00  0.00    +0.000 A 
ATOM     16  O   UNL     1       2.367  12.907  19.382  0.00  0.00    +0.000 OA
BRANCH  15  17
ATOM     17  S   UNL     1       4.284  14.744  18.789  0.00  0.00    +0.000 S 
ATOM     18  C   UNL     1       3.411  15.648  17.490  0.00  0.00    +0.000 C 
ENDBRANCH  15  17
ENDBRANCH   1  12
BRANCH   1  19
ATOM     19  O   UNL     1       0.588  10.914  21.644  0.00  0.00    +0.000 OA
BRANCH  19  20
ATOM     20  C   UNL     1       1.227   9.743  21.893  0.00  0.00    +0.000 C 
ATOM     21  O   UNL     1       1.719   9.438  22.971  0.00  0.00    +0.000 OA
BRANCH  20  22
ATOM     22  C   UNL     1       1.252   8.868  20.661  0.00  0.00    +0.000 C 
BRANCH  22  23
ATOM     23  C   UNL     1       1.104   7.398  21.056  0.00  0.00    +0.000 C 
BRANCH  23  24
ATOM     24  C   UNL     1       2.102   6.496  20.340  0.00  0.00    +0.000 C 
BRANCH  24  25
ATOM     25  C   UNL     1       1.644   5.038  20.402  0.00  0.00    +0.000 C 
BRANCH  25  26
ATOM     26  C   UNL     1       2.819   4.087  20.206  0.00  0.00    +0.000 C 
BRANCH  26  27
ATOM     27  C   UNL     1       3.949   4.768  19.441  0.00  0.00    +0.000 C 
BRANCH  27  28
ATOM     28  C   UNL     1       4.558   3.811  18.423  0.00  0.00    +0.000 C 
BRANCH  28  29
ATOM     29  C   UNL     1       3.974   4.053  17.037  0.00  0.00    +0.000 C 
BRANCH  29  30
ATOM     30  C   UNL     1       5.070   4.450  16.053  0.00  0.00    +0.000 C 
BRANCH  30  31
ATOM     31  C   UNL     1       5.570   5.862  16.341  0.00  0.00    +0.000 C 
BRANCH  31  32
ATOM     32  C   UNL     1       7.078   5.863  16.574  0.00  0.00    +0.000 C 
BRANCH  32  34
ATOM     33  C   UNL     1       7.760   5.967  18.986  0.00  0.00    +0.000 C 
ATOM     34  C   UNL     1       7.452   6.775  17.739  0.00  0.00    +0.000 C 
ENDBRANCH  32  34
ENDBRANCH  31  32
ENDBRANCH  30  31
ENDBRANCH  29  30
ENDBRANCH  28  29
ENDBRANCH  27  28
ENDBRANCH  26  27
ENDBRANCH  25  26
ENDBRANCH  24  25
ENDBRANCH  23  24
ENDBRANCH  22  23
ENDBRANCH  20  22
ENDBRANCH  19  20
ENDBRANCH   1  19
TORSDOF 17
ENDMDL
MODEL 7
REMARK VINA RESULT:      -6.2      3.605      7.336
REMARK  Name = 
REMARK  19 active torsions:
REMARK  status: ('A' for Active; 'I' for Inactive)
REMARK    1  A    between atoms: C_1  and  C_2
REMARK    2  A    between atoms: C_2  and  C_3
REMARK    3  A    between atoms: C_3  and  C_4
REMARK    4  A    between atoms: C_4  and  C_5
REMARK    5  A    between atoms: C_5  and  C_6
REMARK    6  A    between atoms: C_6  and  C_7
REMARK    7  A    between atoms: C_7  and  C_8
REMARK    8  A    between atoms: C_8  and  C_9
REMARK    9  A    between atoms: C_9  and  C_10
REMARK   10  A    between atoms: C_10  and  C_11
REMARK   11  A    between atoms: C_11  and  C_12
REMARK   12  A    between atoms: C_12  and  C_13
REMARK   13  A    between atoms: C_13  and  C_14
REMARK   14  A    between atoms: C_14  and  O_16
REMARK   15  A    between atoms: O_16  and  C_17
REMARK   16  A    between atoms: C_17  and  C_18
REMARK   17  A    between atoms: C_17  and  C_28
REMARK   18  A    between atoms: C_31  and  S_32
REMARK   19  A    between atoms: S_32  and  C_33
REMARK                            x       y       z     vdW  Elec       q    Type
REMARK                         _______ _______ _______ _____ _____    ______ ____
ROOT
ATOM      1  C   UNL     1       0.759  11.240  19.786  0.00  0.00    +0.000 C 
ENDROOT
BRANCH   1   2
ATOM      2  C   UNL     1      -0.709  11.600  19.588  0.00  0.00    +0.000 A 
ATOM      3  C   UNL     1      -1.475  12.277  20.549  0.00  0.00    +0.000 A 
ATOM      4  C   UNL     1      -2.832  12.556  20.324  0.00  0.00    +0.000 A 
ATOM      5  C   UNL     1      -3.469  12.161  19.141  0.00  0.00    +0.000 A 
ATOM      6  C   UNL     1      -4.833  12.423  18.913  0.00  0.00    +0.000 A 
ATOM      7  C   UNL     1      -5.455  12.003  17.739  0.00  0.00    +0.000 A 
ATOM      8  C   UNL     1      -4.723  11.312  16.777  0.00  0.00    +0.000 A 
ATOM      9  C   UNL     1      -3.365  11.054  16.986  0.00  0.00    +0.000 A 
ATOM     10  C   UNL     1      -2.720  11.477  18.162  0.00  0.00    +0.000 A 
ATOM     11  C   UNL     1      -1.351  11.220  18.390  0.00  0.00    +0.000 A 
ENDBRANCH   1   2
BRANCH   1  12
ATOM     12  C   UNL     1       1.713  12.300  19.360  0.00  0.00    +0.000 A 
ATOM     13  C   UNL     1       2.224  12.758  18.170  0.00  0.00    +0.000 A 
ATOM     14  N   UNL     1       3.010  13.865  18.387  0.00  0.00    +0.000 NA
ATOM     15  C   UNL     1       2.965  14.050  19.691  0.00  0.00    +0.000 A 
ATOM     16  O   UNL     1       2.190  13.123  20.345  0.00  0.00    +0.000 OA
BRANCH  15  17
ATOM     17  S   UNL     1       3.724  15.361  20.545  0.00  0.00    +0.000 S 
ATOM     18  C   UNL     1       4.911  15.974  19.329  0.00  0.00    +0.000 C 
ENDBRANCH  15  17
ENDBRANCH   1  12
BRANCH   1  19
ATOM     19  O   UNL     1       1.052  10.975  21.172  0.00  0.00    +0.000 OA
BRANCH  19  20
ATOM     20  C   UNL     1       0.939   9.676  21.552  0.00  0.00    +0.000 C 
ATOM     21  O   UNL     1       0.363   9.297  22.562  0.00  0.00    +0.000 OA
BRANCH  20  22
ATOM     22  C   UNL     1       1.622   8.762  20.561  0.00  0.00    +0.000 C 
BRANCH  22  23
ATOM     23  C   UNL     1       1.425   7.302  20.968  0.00  0.00    +0.000 C 
BRANCH  23  24
ATOM     24  C   UNL     1       2.055   6.328  19.980  0.00  0.00    +0.000 C 
BRANCH  24  25
ATOM     25  C   UNL     1       2.416   5.017  20.679  0.00  0.00    +0.000 C 
BRANCH  25  26
ATOM     26  C   UNL     1       1.224   4.067  20.710  0.00  0.00    +0.000 C 
BRANCH  26  27
ATOM     27  C   UNL     1       1.657   2.638  20.403  0.00  0.00    +0.000 C 
BRANCH  27  28
ATOM     28  C   UNL     1       1.365   2.291  18.948  0.00  0.00    +0.000 C 
BRANCH  28  29
ATOM     29  C   UNL     1       2.656   2.195  18.145  0.00  0.00    +0.000 C 
BRANCH  29  30
ATOM     30  C   UNL     1       2.690   3.260  17.053  0.00  0.00    +0.000 C 
BRANCH  30  31
ATOM     31  C   UNL     1       4.104   3.805  16.873  0.00  0.00    +0.000 C 
BRANCH  31  32
ATOM     32  C   UNL     1       4.156   5.291  17.214  0.00  0.00    +0.000 C 
BRANCH  32  34
ATOM     33  C   UNL     1       5.536   5.066  19.298  0.00  0.00    +0.000 C 
ATOM     34  C   UNL     1       5.471   5.651  17.899  0.00  0.00    +0.000 C 
ENDBRANCH  32  34
ENDBRANCH  31  32
ENDBRANCH  30  31
ENDBRANCH  29  30
ENDBRANCH  28  29
ENDBRANCH  27  28
ENDBRANCH  26  27
ENDBRANCH  25  26
ENDBRANCH  24  25
ENDBRANCH  23  24
ENDBRANCH  22  23
ENDBRANCH  20  22
ENDBRANCH  19  20
ENDBRANCH   1  19
TORSDOF 17
ENDMDL
MODEL 8
REMARK VINA RESULT:      -6.1      4.571      8.132
REMARK  Name = 
REMARK  19 active torsions:
REMARK  status: ('A' for Active; 'I' for Inactive)
REMARK    1  A    between atoms: C_1  and  C_2
REMARK    2  A    between atoms: C_2  and  C_3
REMARK    3  A    between atoms: C_3  and  C_4
REMARK    4  A    between atoms: C_4  and  C_5
REMARK    5  A    between atoms: C_5  and  C_6
REMARK    6  A    between atoms: C_6  and  C_7
REMARK    7  A    between atoms: C_7  and  C_8
REMARK    8  A    between atoms: C_8  and  C_9
REMARK    9  A    between atoms: C_9  and  C_10
REMARK   10  A    between atoms: C_10  and  C_11
REMARK   11  A    between atoms: C_11  and  C_12
REMARK   12  A    between atoms: C_12  and  C_13
REMARK   13  A    between atoms: C_13  and  C_14
REMARK   14  A    between atoms: C_14  and  O_16
REMARK   15  A    between atoms: O_16  and  C_17
REMARK   16  A    between atoms: C_17  and  C_18
REMARK   17  A    between atoms: C_17  and  C_28
REMARK   18  A    between atoms: C_31  and  S_32
REMARK   19  A    between atoms: S_32  and  C_33
REMARK                            x       y       z     vdW  Elec       q    Type
REMARK                         _______ _______ _______ _____ _____    ______ ____
ROOT
ATOM      1  C   UNL     1      -1.217  12.161  21.200  0.00  0.00    +0.000 C 
ENDROOT
BRANCH   1   2
ATOM      2  C   UNL     1      -2.113  11.957  19.983  0.00  0.00    +0.000 A 
ATOM      3  C   UNL     1      -3.419  12.465  19.891  0.00  0.00    +0.000 A 
ATOM      4  C   UNL     1      -4.209  12.220  18.757  0.00  0.00    +0.000 A 
ATOM      5  C   UNL     1      -3.729  11.456  17.687  0.00  0.00    +0.000 A 
ATOM      6  C   UNL     1      -4.521  11.193  16.553  0.00  0.00    +0.000 A 
ATOM      7  C   UNL     1      -4.033  10.411  15.507  0.00  0.00    +0.000 A 
ATOM      8  C   UNL     1      -2.749   9.879  15.581  0.00  0.00    +0.000 A 
ATOM      9  C   UNL     1      -1.948  10.141  16.697  0.00  0.00    +0.000 A 
ATOM     10  C   UNL     1      -2.421  10.933  17.758  0.00  0.00    +0.000 A 
ATOM     11  C   UNL     1      -1.628  11.203  18.894  0.00  0.00    +0.000 A 
ENDBRANCH   1   2
BRANCH   1  12
ATOM     12  C   UNL     1      -1.908  12.752  22.378  0.00  0.00    +0.000 A 
ATOM     13  C   UNL     1      -1.724  13.841  23.195  0.00  0.00    +0.000 A 
ATOM     14  N   UNL     1      -2.769  13.948  24.083  0.00  0.00    +0.000 NA
ATOM     15  C   UNL     1      -3.552  12.930  23.793  0.00  0.00    +0.000 A 
ATOM     16  O   UNL     1      -3.080  12.156  22.760  0.00  0.00    +0.000 OA
BRANCH  15  17
ATOM     17  S   UNL     1      -5.080  12.591  24.552  0.00  0.00    +0.000 S 
ATOM     18  C   UNL     1      -6.240  12.782  23.179  0.00  0.00    +0.000 C 
ENDBRANCH  15  17
ENDBRANCH   1  12
BRANCH   1  19
ATOM     19  O   UNL     1      -0.655  10.913  21.652  0.00  0.00    +0.000 OA
BRANCH  19  20
ATOM     20  C   UNL     1       0.692  10.802  21.523  0.00  0.00    +0.000 C 
ATOM     21  O   UNL     1       1.461  11.749  21.443  0.00  0.00    +0.000 OA
BRANCH  20  22
ATOM     22  C   UNL     1       1.114   9.351  21.491  0.00  0.00    +0.000 C 
BRANCH  22  23
ATOM     23  C   UNL     1       0.863   8.760  20.104  0.00  0.00    +0.000 C 
BRANCH  23  24
ATOM     24  C   UNL     1       1.678   9.451  19.017  0.00  0.00    +0.000 C 
BRANCH  24  25
ATOM     25  C   UNL     1       1.724   8.589  17.755  0.00  0.00    +0.000 C 
BRANCH  25  26
ATOM     26  C   UNL     1       2.969   7.709  17.739  0.00  0.00    +0.000 C 
BRANCH  26  27
ATOM     27  C   UNL     1       2.916   6.668  18.852  0.00  0.00    +0.000 C 
BRANCH  27  28
ATOM     28  C   UNL     1       3.965   5.586  18.624  0.00  0.00    +0.000 C 
BRANCH  28  29
ATOM     29  C   UNL     1       3.508   4.607  17.550  0.00  0.00    +0.000 C 
BRANCH  29  30
ATOM     30  C   UNL     1       3.648   3.169  18.039  0.00  0.00    +0.000 C 
BRANCH  30  31
ATOM     31  C   UNL     1       2.415   2.350  17.670  0.00  0.00    +0.000 C 
BRANCH  31  32
ATOM     32  C   UNL     1       1.234   2.722  18.560  0.00  0.00    +0.000 C 
BRANCH  32  34
ATOM     33  C   UNL     1       1.189   3.892  20.779  0.00  0.00    +0.000 C 
ATOM     34  C   UNL     1       1.612   2.638  20.036  0.00  0.00    +0.000 C 
ENDBRANCH  32  34
ENDBRANCH  31  32
ENDBRANCH  30  31
ENDBRANCH  29  30
ENDBRANCH  28  29
ENDBRANCH  27  28
ENDBRANCH  26  27
ENDBRANCH  25  26
ENDBRANCH  24  25
ENDBRANCH  23  24
ENDBRANCH  22  23
ENDBRANCH  20  22
ENDBRANCH  19  20
ENDBRANCH   1  19
TORSDOF 17
ENDMDL
MODEL 9
REMARK VINA RESULT:      -6.1      3.930      7.514
REMARK  Name = 
REMARK  19 active torsions:
REMARK  status: ('A' for Active; 'I' for Inactive)
REMARK    1  A    between atoms: C_1  and  C_2
REMARK    2  A    between atoms: C_2  and  C_3
REMARK    3  A    between atoms: C_3  and  C_4
REMARK    4  A    between atoms: C_4  and  C_5
REMARK    5  A    between atoms: C_5  and  C_6
REMARK    6  A    between atoms: C_6  and  C_7
REMARK    7  A    between atoms: C_7  and  C_8
REMARK    8  A    between atoms: C_8  and  C_9
REMARK    9  A    between atoms: C_9  and  C_10
REMARK   10  A    between atoms: C_10  and  C_11
REMARK   11  A    between atoms: C_11  and  C_12
REMARK   12  A    between atoms: C_12  and  C_13
REMARK   13  A    between atoms: C_13  and  C_14
REMARK   14  A    between atoms: C_14  and  O_16
REMARK   15  A    between atoms: O_16  and  C_17
REMARK   16  A    between atoms: C_17  and  C_18
REMARK   17  A    between atoms: C_17  and  C_28
REMARK   18  A    between atoms: C_31  and  S_32
REMARK   19  A    between atoms: S_32  and  C_33
REMARK                            x       y       z     vdW  Elec       q    Type
REMARK                         _______ _______ _______ _____ _____    ______ ____
ROOT
ATOM      1  C   UNL     1      -0.397  11.349  20.890  0.00  0.00    +0.000 C 
ENDROOT
BRANCH   1   2
ATOM      2  C   UNL     1      -1.428  11.399  19.768  0.00  0.00    +0.000 A 
ATOM      3  C   UNL     1      -2.610  12.153  19.837  0.00  0.00    +0.000 A 
ATOM      4  C   UNL     1      -3.539  12.138  18.785  0.00  0.00    +0.000 A 
ATOM      5  C   UNL     1      -3.323  11.365  17.637  0.00  0.00    +0.000 A 
ATOM      6  C   UNL     1      -4.256  11.332  16.583  0.00  0.00    +0.000 A 
ATOM      7  C   UNL     1      -4.035  10.540  15.458  0.00  0.00    +0.000 A 
ATOM      8  C   UNL     1      -2.880   9.767  15.372  0.00  0.00    +0.000 A 
ATOM      9  C   UNL     1      -1.941   9.799  16.406  0.00  0.00    +0.000 A 
ATOM     10  C   UNL     1      -2.144  10.597  17.546  0.00  0.00    +0.000 A 
ATOM     11  C   UNL     1      -1.208  10.637  18.601  0.00  0.00    +0.000 A 
ENDBRANCH   1   2
BRANCH   1  12
ATOM     12  C   UNL     1      -0.168  12.652  21.571  0.00  0.00    +0.000 A 
ATOM     13  C   UNL     1      -0.723  13.333  22.628  0.00  0.00    +0.000 A 
ATOM     14  N   UNL     1      -0.011  14.484  22.876  0.00  0.00    +0.000 NA
ATOM     15  C   UNL     1       0.946  14.480  21.970  0.00  0.00    +0.000 A 
ATOM     16  O   UNL     1       0.903  13.387  21.137  0.00  0.00    +0.000 OA
BRANCH  15  17
ATOM     17  S   UNL     1       2.209  15.668  21.840  0.00  0.00    +0.000 S 
ATOM     18  C   UNL     1       1.597  16.995  22.903  0.00  0.00    +0.000 C 
ENDBRANCH  15  17
ENDBRANCH   1  12
BRANCH   1  19
ATOM     19  O   UNL     1      -0.790  10.424  21.923  0.00  0.00    +0.000 OA
BRANCH  19  20
ATOM     20  C   UNL     1       0.230   9.873  22.629  0.00  0.00    +0.000 C 
ATOM     21  O   UNL     1       0.218   9.693  23.839  0.00  0.00    +0.000 OA
BRANCH  20  22
ATOM     22  C   UNL     1       1.384   9.515  21.721  0.00  0.00    +0.000 C 
BRANCH  22  23
ATOM     23  C   UNL     1       1.237   8.077  21.225  0.00  0.00    +0.000 C 
BRANCH  23  24
ATOM     24  C   UNL     1       2.025   7.814  19.947  0.00  0.00    +0.000 C 
BRANCH  24  25
ATOM     25  C   UNL     1       2.259   6.314  19.763  0.00  0.00    +0.000 C 
BRANCH  25  26
ATOM     26  C   UNL     1       1.425   5.506  20.750  0.00  0.00    +0.000 C 
BRANCH  26  27
ATOM     27  C   UNL     1       2.283   4.467  21.466  0.00  0.00    +0.000 C 
BRANCH  27  28
ATOM     28  C   UNL     1       2.611   3.309  20.531  0.00  0.00    +0.000 C 
BRANCH  28  29
ATOM     29  C   UNL     1       1.417   2.972  19.647  0.00  0.00    +0.000 C 
BRANCH  29  30
ATOM     30  C   UNL     1       1.746   1.806  18.720  0.00  0.00    +0.000 C 
BRANCH  30  31
ATOM     31  C   UNL     1       3.012   2.093  17.918  0.00  0.00    +0.000 C 
BRANCH  31  32
ATOM     32  C   UNL     1       2.835   3.340  17.059  0.00  0.00    +0.000 C 
BRANCH  32  34
ATOM     33  C   UNL     1       4.465   5.239  17.245  0.00  0.00    +0.000 C 
ATOM     34  C   UNL     1       4.184   3.890  16.607  0.00  0.00    +0.000 C 
ENDBRANCH  32  34
ENDBRANCH  31  32
ENDBRANCH  30  31
ENDBRANCH  29  30
ENDBRANCH  28  29
ENDBRANCH  27  28
ENDBRANCH  26  27
ENDBRANCH  25  26
ENDBRANCH  24  25
ENDBRANCH  23  24
ENDBRANCH  22  23
ENDBRANCH  20  22
ENDBRANCH  19  20
ENDBRANCH   1  19
TORSDOF 17
ENDMDL
