MODEL 1
REMARK VINA RESULT:      -7.9      0.000      0.000
REMARK  Name = 
REMARK  9 active torsions:
REMARK  status: ('A' for Active; 'I' for Inactive)
REMARK    1  A    between atoms: C_1  and  C_2
REMARK    2  A    between atoms: N_4  and  C_5
REMARK    3  A    between atoms: C_5  and  C_6
REMARK    4  A    between atoms: C_17  and  C_18
REMARK    5  A    between atoms: C_19  and  N_20
REMARK    6  A    between atoms: C_21  and  C_23
REMARK    7  A    between atoms: C_24  and  N_25
REMARK    8  A    between atoms: C_28  and  C_29
REMARK    9  A    between atoms: N_31  and  C_32
REMARK                            x       y       z     vdW  Elec       q    Type
REMARK                         _______ _______ _______ _____ _____    ______ ____
ROOT
ATOM      1  C   UNL     1       0.608   8.300  22.436  0.00  0.00    +0.000 C 
ATOM      2  C   UNL     1       0.815   8.685  21.018  0.00  0.00    +0.000 A 
ATOM      3  N   UNL     1       0.339   9.854  20.568  0.00  0.00    +0.000 NA
ATOM      4  N   UNL     1       0.809   9.955  19.306  0.00  0.00    +0.000 N 
ATOM      5  C   UNL     1       1.662   8.925  18.975  0.00  0.00    +0.000 A 
ATOM      6  C   UNL     1       2.382   8.770  17.688  0.00  0.00    +0.000 C 
ATOM      7  C   UNL     1       1.611   8.048  20.041  0.00  0.00    +0.000 A 
ENDROOT
BRANCH   7   8
ATOM      8  N   UNL     1       2.349   6.880  20.084  0.00  0.00    +0.000 N 
ATOM      9  C   UNL     1       2.171   5.801  19.239  0.00  0.00    +0.000 C 
ATOM     10  O   UNL     1       1.321   5.734  18.362  0.00  0.00    +0.000 OA
ATOM     11  H   UNL     1       3.268   6.983  20.499  0.00  0.00    +0.000 HD
BRANCH   9  12
ATOM     12  C   UNL     1       3.185   4.777  19.419  0.00  0.00    +0.000 A 
ATOM     13  C   UNL     1       3.151   3.580  20.124  0.00  0.00    +0.000 A 
ATOM     14  C   UNL     1       4.425   2.992  19.998  0.00  0.00    +0.000 A 
ATOM     15  C   UNL     1       4.962   1.756  20.623  0.00  0.00    +0.000 C 
ATOM     16  N   UNL     1       5.221   3.749  19.237  0.00  0.00    +0.000 NA
ATOM     17  N   UNL     1       4.455   4.801  18.879  0.00  0.00    +0.000 N 
ATOM     18  C   UNL     1       5.083   5.864  18.124  0.00  0.00    +0.000 C 
BRANCH  13  19
ATOM     19  N   UNL     1       2.056   3.061  20.873  0.00  0.00    +0.000 N 
ATOM     20  O   UNL     1       1.144   2.542  20.218  0.00  0.00    +0.000 OA
ATOM     21  O   UNL     1       2.098   3.207  22.098  0.00  0.00    +0.000 OA
ENDBRANCH  13  19
ENDBRANCH   9  12
ENDBRANCH   7   8
BRANCH   4  22
ATOM     22  C   UNL     1       0.313  11.054  18.472  0.00  0.00    +0.000 C 
BRANCH  22  23
ATOM     23  C   UNL     1      -1.165  10.947  18.214  0.00  0.00    +0.000 A 
ATOM     24  C   UNL     1      -1.666  10.075  17.245  0.00  0.00    +0.000 A 
ATOM     25  F   UNL     1      -0.847   9.192  16.658  0.00  0.00    +0.000 F 
ATOM     26  C   UNL     1      -3.010  10.081  16.885  0.00  0.00    +0.000 A 
ATOM     27  F   UNL     1      -3.442   9.270  15.911  0.00  0.00    +0.000 F 
ATOM     28  C   UNL     1      -3.892  10.929  17.532  0.00  0.00    +0.000 A 
ATOM     29  F   UNL     1      -5.183  10.953  17.172  0.00  0.00    +0.000 F 
ATOM     30  C   UNL     1      -3.438  11.741  18.562  0.00  0.00    +0.000 A 
ATOM     31  F   UNL     1      -4.301  12.518  19.229  0.00  0.00    +0.000 F 
ATOM     32  C   UNL     1      -2.085  11.748  18.900  0.00  0.00    +0.000 A 
ATOM     33  F   UNL     1      -1.671  12.517  19.915  0.00  0.00    +0.000 F 
ENDBRANCH  22  23
ENDBRANCH   4  22
TORSDOF 5
ENDMDL
MODEL 2
REMARK VINA RESULT:      -7.7      0.402      1.979
REMARK  Name = 
REMARK  9 active torsions:
REMARK  status: ('A' for Active; 'I' for Inactive)
REMARK    1  A    between atoms: C_1  and  C_2
REMARK    2  A    between atoms: N_4  and  C_5
REMARK    3  A    between atoms: C_5  and  C_6
REMARK    4  A    between atoms: C_17  and  C_18
REMARK    5  A    between atoms: C_19  and  N_20
REMARK    6  A    between atoms: C_21  and  C_23
REMARK    7  A    between atoms: C_24  and  N_25
REMARK    8  A    between atoms: C_28  and  C_29
REMARK    9  A    between atoms: N_31  and  C_32
REMARK                            x       y       z     vdW  Elec       q    Type
REMARK                         _______ _______ _______ _____ _____    ______ ____
ROOT
ATOM      1  C   UNL     1       0.714   8.297  22.427  0.00  0.00    +0.000 C 
ATOM      2  C   UNL     1       0.949   8.690  21.016  0.00  0.00    +0.000 A 
ATOM      3  N   UNL     1       0.513   9.878  20.573  0.00  0.00    +0.000 NA
ATOM      4  N   UNL     1       1.001   9.978  19.318  0.00  0.00    +0.000 N 
ATOM      5  C   UNL     1       1.826   8.927  18.985  0.00  0.00    +0.000 A 
ATOM      6  C   UNL     1       2.557   8.764  17.704  0.00  0.00    +0.000 C 
ATOM      7  C   UNL     1       1.738   8.040  20.040  0.00  0.00    +0.000 A 
ENDROOT
BRANCH   7   8
ATOM      8  N   UNL     1       2.440   6.851  20.079  0.00  0.00    +0.000 N 
ATOM      9  C   UNL     1       2.246   5.790  19.214  0.00  0.00    +0.000 C 
ATOM     10  O   UNL     1       1.411   5.761  18.321  0.00  0.00    +0.000 OA
ATOM     11  H   UNL     1       3.354   6.920  20.512  0.00  0.00    +0.000 HD
BRANCH   9  12
ATOM     12  C   UNL     1       3.227   4.734  19.397  0.00  0.00    +0.000 A 
ATOM     13  C   UNL     1       3.157   3.545  20.112  0.00  0.00    +0.000 A 
ATOM     14  C   UNL     1       4.409   2.913  19.983  0.00  0.00    +0.000 A 
ATOM     15  C   UNL     1       4.908   1.665  20.615  0.00  0.00    +0.000 C 
ATOM     16  N   UNL     1       5.225   3.636  19.212  0.00  0.00    +0.000 NA
ATOM     17  N   UNL     1       4.493   4.711  18.849  0.00  0.00    +0.000 N 
ATOM     18  C   UNL     1       5.152   5.746  18.082  0.00  0.00    +0.000 C 
BRANCH  13  19
ATOM     19  N   UNL     1       2.049   3.068  20.872  0.00  0.00    +0.000 N 
ATOM     20  O   UNL     1       2.141   3.182  22.100  0.00  0.00    +0.000 OA
ATOM     21  O   UNL     1       1.120   2.554  20.242  0.00  0.00    +0.000 OA
ENDBRANCH  13  19
ENDBRANCH   9  12
ENDBRANCH   7   8
BRANCH   4  22
ATOM     22  C   UNL     1       0.546  11.100  18.490  0.00  0.00    +0.000 C 
BRANCH  22  23
ATOM     23  C   UNL     1      -0.948  11.117  18.329  0.00  0.00    +0.000 A 
ATOM     24  C   UNL     1      -1.735  12.060  18.996  0.00  0.00    +0.000 A 
ATOM     25  F   UNL     1      -1.147  13.073  19.649  0.00  0.00    +0.000 F 
ATOM     26  C   UNL     1      -3.124  11.989  18.983  0.00  0.00    +0.000 A 
ATOM     27  F   UNL     1      -3.842  12.878  19.682  0.00  0.00    +0.000 F 
ATOM     28  C   UNL     1      -3.756  10.999  18.252  0.00  0.00    +0.000 A 
ATOM     29  F   UNL     1      -5.094  10.915  18.256  0.00  0.00    +0.000 F 
ATOM     30  C   UNL     1      -3.002  10.105  17.506  0.00  0.00    +0.000 A 
ATOM     31  F   UNL     1      -3.613   9.183  16.751  0.00  0.00    +0.000 F 
ATOM     32  C   UNL     1      -1.609  10.166  17.544  0.00  0.00    +0.000 A 
ATOM     33  F   UNL     1      -0.899   9.312  16.795  0.00  0.00    +0.000 F 
ENDBRANCH  22  23
ENDBRANCH   4  22
TORSDOF 5
ENDMDL
MODEL 3
REMARK VINA RESULT:      -7.6      4.469      8.726
REMARK  Name = 
REMARK  9 active torsions:
REMARK  status: ('A' for Active; 'I' for Inactive)
REMARK    1  A    between atoms: C_1  and  C_2
REMARK    2  A    between atoms: N_4  and  C_5
REMARK    3  A    between atoms: C_5  and  C_6
REMARK    4  A    between atoms: C_17  and  C_18
REMARK    5  A    between atoms: C_19  and  N_20
REMARK    6  A    between atoms: C_21  and  C_23
REMARK    7  A    between atoms: C_24  and  N_25
REMARK    8  A    between atoms: C_28  and  C_29
REMARK    9  A    between atoms: N_31  and  C_32
REMARK                            x       y       z     vdW  Elec       q    Type
REMARK                         _______ _______ _______ _____ _____    ______ ____
ROOT
ATOM      1  C   UNL     1       1.855   9.270  17.541  0.00  0.00    +0.000 C 
ATOM      2  C   UNL     1       1.642   8.705  18.896  0.00  0.00    +0.000 A 
ATOM      3  N   UNL     1       2.111   7.485  19.192  0.00  0.00    +0.000 NA
ATOM      4  N   UNL     1       1.875   7.336  20.513  0.00  0.00    +0.000 N 
ATOM      5  C   UNL     1       1.359   8.474  21.091  0.00  0.00    +0.000 A 
ATOM      6  C   UNL     1       1.038   8.653  22.528  0.00  0.00    +0.000 C 
ATOM      7  C   UNL     1       1.121   9.344  20.044  0.00  0.00    +0.000 A 
ENDROOT
BRANCH   7   8
ATOM      8  N   UNL     1       0.604  10.612  20.227  0.00  0.00    +0.000 N 
ATOM      9  C   UNL     1      -0.666  11.009  19.855  0.00  0.00    +0.000 C 
ATOM     10  O   UNL     1      -1.484  10.295  19.293  0.00  0.00    +0.000 OA
ATOM     11  H   UNL     1       1.039  11.134  20.980  0.00  0.00    +0.000 HD
BRANCH   9  12
ATOM     12  C   UNL     1      -0.986  12.352  20.306  0.00  0.00    +0.000 A 
ATOM     13  C   UNL     1      -1.524  12.803  21.506  0.00  0.00    +0.000 A 
ATOM     14  C   UNL     1      -1.662  14.200  21.394  0.00  0.00    +0.000 A 
ATOM     15  C   UNL     1      -2.264  15.169  22.346  0.00  0.00    +0.000 C 
ATOM     16  N   UNL     1      -1.217  14.626  20.210  0.00  0.00    +0.000 NA
ATOM     17  N   UNL     1      -0.793  13.510  19.580  0.00  0.00    +0.000 N 
ATOM     18  C   UNL     1      -0.343  13.639  18.210  0.00  0.00    +0.000 C 
BRANCH  13  19
ATOM     19  N   UNL     1      -1.908  12.006  22.622  0.00  0.00    +0.000 N 
ATOM     20  O   UNL     1      -3.123  11.928  22.845  0.00  0.00    +0.000 OA
ATOM     21  O   UNL     1      -0.999  11.500  23.286  0.00  0.00    +0.000 OA
ENDBRANCH  13  19
ENDBRANCH   9  12
ENDBRANCH   7   8
BRANCH   4  22
ATOM     22  C   UNL     1       2.117   6.019  21.111  0.00  0.00    +0.000 C 
BRANCH  22  23
ATOM     23  C   UNL     1       2.331   4.954  20.071  0.00  0.00    +0.000 A 
ATOM     24  C   UNL     1       1.302   4.079  19.714  0.00  0.00    +0.000 A 
ATOM     25  F   UNL     1       0.059   4.294  20.167  0.00  0.00    +0.000 F 
ATOM     26  C   UNL     1       1.529   2.993  18.875  0.00  0.00    +0.000 A 
ATOM     27  F   UNL     1       0.530   2.143  18.602  0.00  0.00    +0.000 F 
ATOM     28  C   UNL     1       2.786   2.793  18.331  0.00  0.00    +0.000 A 
ATOM     29  F   UNL     1       3.013   1.736  17.540  0.00  0.00    +0.000 F 
ATOM     30  C   UNL     1       3.803   3.700  18.595  0.00  0.00    +0.000 A 
ATOM     31  F   UNL     1       5.003   3.542  18.023  0.00  0.00    +0.000 F 
ATOM     32  C   UNL     1       3.575   4.772  19.458  0.00  0.00    +0.000 A 
ATOM     33  F   UNL     1       4.561   5.651  19.679  0.00  0.00    +0.000 F 
ENDBRANCH  22  23
ENDBRANCH   4  22
TORSDOF 5
ENDMDL
MODEL 4
REMARK VINA RESULT:      -7.6      4.287      8.541
REMARK  Name = 
REMARK  9 active torsions:
REMARK  status: ('A' for Active; 'I' for Inactive)
REMARK    1  A    between atoms: C_1  and  C_2
REMARK    2  A    between atoms: N_4  and  C_5
REMARK    3  A    between atoms: C_5  and  C_6
REMARK    4  A    between atoms: C_17  and  C_18
REMARK    5  A    between atoms: C_19  and  N_20
REMARK    6  A    between atoms: C_21  and  C_23
REMARK    7  A    between atoms: C_24  and  N_25
REMARK    8  A    between atoms: C_28  and  C_29
REMARK    9  A    between atoms: N_31  and  C_32
REMARK                            x       y       z     vdW  Elec       q    Type
REMARK                         _______ _______ _______ _____ _____    ______ ____
ROOT
ATOM      1  C   UNL     1       0.486   7.892  22.020  0.00  0.00    +0.000 C 
ATOM      2  C   UNL     1       1.225   8.136  20.758  0.00  0.00    +0.000 A 
ATOM      3  N   UNL     1       1.810   7.114  20.118  0.00  0.00    +0.000 NA
ATOM      4  N   UNL     1       2.265   7.645  18.963  0.00  0.00    +0.000 N 
ATOM      5  C   UNL     1       1.892   8.960  18.802  0.00  0.00    +0.000 A 
ATOM      6  C   UNL     1       2.188   9.812  17.623  0.00  0.00    +0.000 C 
ATOM      7  C   UNL     1       1.291   9.322  19.991  0.00  0.00    +0.000 A 
ENDROOT
BRANCH   7   8
ATOM      8  N   UNL     1       0.770  10.582  20.215  0.00  0.00    +0.000 N 
ATOM      9  C   UNL     1      -0.504  10.985  19.862  0.00  0.00    +0.000 C 
ATOM     10  O   UNL     1      -1.323  10.285  19.285  0.00  0.00    +0.000 OA
ATOM     11  H   UNL     1       1.208  11.084  20.979  0.00  0.00    +0.000 HD
BRANCH   9  12
ATOM     12  C   UNL     1      -0.826  12.313  20.354  0.00  0.00    +0.000 A 
ATOM     13  C   UNL     1      -1.268  12.737  21.602  0.00  0.00    +0.000 A 
ATOM     14  C   UNL     1      -1.461  14.129  21.518  0.00  0.00    +0.000 A 
ATOM     15  C   UNL     1      -2.007  15.070  22.530  0.00  0.00    +0.000 C 
ATOM     16  N   UNL     1      -1.138  14.579  20.303  0.00  0.00    +0.000 NA
ATOM     17  N   UNL     1      -0.736  13.483  19.626  0.00  0.00    +0.000 N 
ATOM     18  C   UNL     1      -0.416  13.637  18.223  0.00  0.00    +0.000 C 
BRANCH  13  19
ATOM     19  N   UNL     1      -1.525  11.919  22.740  0.00  0.00    +0.000 N 
ATOM     20  O   UNL     1      -0.551  11.319  23.211  0.00  0.00    +0.000 OA
ATOM     21  O   UNL     1      -2.694  11.854  23.129  0.00  0.00    +0.000 OA
ENDBRANCH  13  19
ENDBRANCH   9  12
ENDBRANCH   7   8
BRANCH   4  22
ATOM     22  C   UNL     1       3.118   6.810  18.111  0.00  0.00    +0.000 C 
BRANCH  22  23
ATOM     23  C   UNL     1       2.994   5.349  18.441  0.00  0.00    +0.000 A 
ATOM     24  C   UNL     1       1.856   4.623  18.082  0.00  0.00    +0.000 A 
ATOM     25  F   UNL     1       0.938   5.180  17.281  0.00  0.00    +0.000 F 
ATOM     26  C   UNL     1       1.659   3.317  18.518  0.00  0.00    +0.000 A 
ATOM     27  F   UNL     1       0.527   2.673  18.201  0.00  0.00    +0.000 F 
ATOM     28  C   UNL     1       2.629   2.691  19.281  0.00  0.00    +0.000 A 
ATOM     29  F   UNL     1       2.431   1.441  19.721  0.00  0.00    +0.000 F 
ATOM     30  C   UNL     1       3.810   3.357  19.575  0.00  0.00    +0.000 A 
ATOM     31  F   UNL     1       4.775   2.733  20.263  0.00  0.00    +0.000 F 
ATOM     32  C   UNL     1       3.991   4.675  19.157  0.00  0.00    +0.000 A 
ATOM     33  F   UNL     1       5.148   5.292  19.426  0.00  0.00    +0.000 F 
ENDBRANCH  22  23
ENDBRANCH   4  22
TORSDOF 5
ENDMDL
MODEL 5
REMARK VINA RESULT:      -7.5      4.544      8.625
REMARK  Name = 
REMARK  9 active torsions:
REMARK  status: ('A' for Active; 'I' for Inactive)
REMARK    1  A    between atoms: C_1  and  C_2
REMARK    2  A    between atoms: N_4  and  C_5
REMARK    3  A    between atoms: C_5  and  C_6
REMARK    4  A    between atoms: C_17  and  C_18
REMARK    5  A    between atoms: C_19  and  N_20
REMARK    6  A    between atoms: C_21  and  C_23
REMARK    7  A    between atoms: C_24  and  N_25
REMARK    8  A    between atoms: C_28  and  C_29
REMARK    9  A    between atoms: N_31  and  C_32
REMARK                            x       y       z     vdW  Elec       q    Type
REMARK                         _______ _______ _______ _____ _____    ______ ____
ROOT
ATOM      1  C   UNL     1       2.005   9.214  17.460  0.00  0.00    +0.000 C 
ATOM      2  C   UNL     1       1.758   8.666  18.816  0.00  0.00    +0.000 A 
ATOM      3  N   UNL     1       2.206   7.444  19.134  0.00  0.00    +0.000 NA
ATOM      4  N   UNL     1       1.942   7.312  20.451  0.00  0.00    +0.000 N 
ATOM      5  C   UNL     1       1.429   8.463  21.006  0.00  0.00    +0.000 A 
ATOM      6  C   UNL     1       1.081   8.661  22.435  0.00  0.00    +0.000 C 
ATOM      7  C   UNL     1       1.223   9.324  19.947  0.00  0.00    +0.000 A 
ENDROOT
BRANCH   7   8
ATOM      8  N   UNL     1       0.719  10.600  20.106  0.00  0.00    +0.000 N 
ATOM      9  C   UNL     1      -0.576  10.982  19.806  0.00  0.00    +0.000 C 
ATOM     10  O   UNL     1      -1.430  10.244  19.337  0.00  0.00    +0.000 OA
ATOM     11  H   UNL     1       1.205  11.156  20.800  0.00  0.00    +0.000 HD
BRANCH   9  12
ATOM     12  C   UNL     1      -0.865  12.346  20.215  0.00  0.00    +0.000 A 
ATOM     13  C   UNL     1      -1.319  12.853  21.426  0.00  0.00    +0.000 A 
ATOM     14  C   UNL     1      -1.466  14.243  21.259  0.00  0.00    +0.000 A 
ATOM     15  C   UNL     1      -2.001  15.257  22.204  0.00  0.00    +0.000 C 
ATOM     16  N   UNL     1      -1.103  14.613  20.029  0.00  0.00    +0.000 NA
ATOM     17  N   UNL     1      -0.722  13.468  19.424  0.00  0.00    +0.000 N 
ATOM     18  C   UNL     1      -0.368  13.532  18.022  0.00  0.00    +0.000 C 
BRANCH  13  19
ATOM     19  N   UNL     1      -1.625  12.110  22.602  0.00  0.00    +0.000 N 
ATOM     20  O   UNL     1      -0.661  11.636  23.215  0.00  0.00    +0.000 OA
ATOM     21  O   UNL     1      -2.820  11.975  22.883  0.00  0.00    +0.000 OA
ENDBRANCH  13  19
ENDBRANCH   9  12
ENDBRANCH   7   8
BRANCH   4  22
ATOM     22  C   UNL     1       2.155   5.998  21.068  0.00  0.00    +0.000 C 
BRANCH  22  23
ATOM     23  C   UNL     1       2.304   4.908  20.043  0.00  0.00    +0.000 A 
ATOM     24  C   UNL     1       3.497   4.742  19.335  0.00  0.00    +0.000 A 
ATOM     25  F   UNL     1       4.583   5.442  19.689  0.00  0.00    +0.000 F 
ATOM     26  C   UNL     1       3.595   3.845  18.277  0.00  0.00    +0.000 A 
ATOM     27  F   UNL     1       4.739   3.755  17.585  0.00  0.00    +0.000 F 
ATOM     28  C   UNL     1       2.511   3.053  17.941  0.00  0.00    +0.000 A 
ATOM     29  F   UNL     1       2.596   2.203  16.908  0.00  0.00    +0.000 F 
ATOM     30  C   UNL     1       1.343   3.131  18.687  0.00  0.00    +0.000 A 
ATOM     31  F   UNL     1       0.313   2.324  18.401  0.00  0.00    +0.000 F 
ATOM     32  C   UNL     1       1.242   4.051  19.730  0.00  0.00    +0.000 A 
ATOM     33  F   UNL     1       0.117   4.093  20.455  0.00  0.00    +0.000 F 
ENDBRANCH  22  23
ENDBRANCH   4  22
TORSDOF 5
ENDMDL
MODEL 6
REMARK VINA RESULT:      -7.5      1.588      2.604
REMARK  Name = 
REMARK  9 active torsions:
REMARK  status: ('A' for Active; 'I' for Inactive)
REMARK    1  A    between atoms: C_1  and  C_2
REMARK    2  A    between atoms: N_4  and  C_5
REMARK    3  A    between atoms: C_5  and  C_6
REMARK    4  A    between atoms: C_17  and  C_18
REMARK    5  A    between atoms: C_19  and  N_20
REMARK    6  A    between atoms: C_21  and  C_23
REMARK    7  A    between atoms: C_24  and  N_25
REMARK    8  A    between atoms: C_28  and  C_29
REMARK    9  A    between atoms: N_31  and  C_32
REMARK                            x       y       z     vdW  Elec       q    Type
REMARK                         _______ _______ _______ _____ _____    ______ ____
ROOT
ATOM      1  C   UNL     1       0.311   7.837  21.862  0.00  0.00    +0.000 C 
ATOM      2  C   UNL     1       0.591   8.636  20.643  0.00  0.00    +0.000 A 
ATOM      3  N   UNL     1      -0.088   9.769  20.418  0.00  0.00    +0.000 NA
ATOM      4  N   UNL     1       0.494  10.308  19.325  0.00  0.00    +0.000 N 
ATOM      5  C   UNL     1       1.598   9.597  18.908  0.00  0.00    +0.000 A 
ATOM      6  C   UNL     1       2.484   9.951  17.772  0.00  0.00    +0.000 C 
ATOM      7  C   UNL     1       1.627   8.464  19.697  0.00  0.00    +0.000 A 
ENDROOT
BRANCH   7   8
ATOM      8  N   UNL     1       2.607   7.497  19.583  0.00  0.00    +0.000 N 
ATOM      9  C   UNL     1       2.634   6.511  18.613  0.00  0.00    +0.000 C 
ATOM     10  O   UNL     1       1.782   6.356  17.751  0.00  0.00    +0.000 OA
ATOM     11  H   UNL     1       3.498   7.756  19.989  0.00  0.00    +0.000 HD
BRANCH   9  12
ATOM     12  C   UNL     1       3.858   5.730  18.647  0.00  0.00    +0.000 A 
ATOM     13  C   UNL     1       5.059   5.894  17.968  0.00  0.00    +0.000 A 
ATOM     14  C   UNL     1       5.895   4.825  18.346  0.00  0.00    +0.000 A 
ATOM     15  C   UNL     1       7.250   4.466  17.856  0.00  0.00    +0.000 C 
ATOM     16  N   UNL     1       5.282   4.037  19.233  0.00  0.00    +0.000 NA
ATOM     17  N   UNL     1       4.072   4.607  19.421  0.00  0.00    +0.000 N 
ATOM     18  C   UNL     1       3.125   3.912  20.265  0.00  0.00    +0.000 C 
BRANCH  13  19
ATOM     19  N   UNL     1       5.378   6.919  17.031  0.00  0.00    +0.000 N 
ATOM     20  O   UNL     1       4.849   6.823  15.917  0.00  0.00    +0.000 OA
ATOM     21  O   UNL     1       6.177   7.784  17.400  0.00  0.00    +0.000 OA
ENDBRANCH  13  19
ENDBRANCH   9  12
ENDBRANCH   7   8
BRANCH   4  22
ATOM     22  C   UNL     1      -0.142  11.478  18.713  0.00  0.00    +0.000 C 
BRANCH  22  23
ATOM     23  C   UNL     1      -1.593  11.237  18.400  0.00  0.00    +0.000 A 
ATOM     24  C   UNL     1      -1.976  10.336  17.403  0.00  0.00    +0.000 A 
ATOM     25  F   UNL     1      -1.056   9.544  16.835  0.00  0.00    +0.000 F 
ATOM     26  C   UNL     1      -3.300  10.222  16.995  0.00  0.00    +0.000 A 
ATOM     27  F   UNL     1      -3.620   9.389  15.996  0.00  0.00    +0.000 F 
ATOM     28  C   UNL     1      -4.281  10.973  17.620  0.00  0.00    +0.000 A 
ATOM     29  F   UNL     1      -5.555  10.881  17.215  0.00  0.00    +0.000 F 
ATOM     30  C   UNL     1      -3.942  11.807  18.676  0.00  0.00    +0.000 A 
ATOM     31  F   UNL     1      -4.897  12.489  19.321  0.00  0.00    +0.000 F 
ATOM     32  C   UNL     1      -2.608  11.936  19.062  0.00  0.00    +0.000 A 
ATOM     33  F   UNL     1      -2.304  12.725  20.101  0.00  0.00    +0.000 F 
ENDBRANCH  22  23
ENDBRANCH   4  22
TORSDOF 5
ENDMDL
MODEL 7
REMARK VINA RESULT:      -7.4      4.332      8.650
REMARK  Name = 
REMARK  9 active torsions:
REMARK  status: ('A' for Active; 'I' for Inactive)
REMARK    1  A    between atoms: C_1  and  C_2
REMARK    2  A    between atoms: N_4  and  C_5
REMARK    3  A    between atoms: C_5  and  C_6
REMARK    4  A    between atoms: C_17  and  C_18
REMARK    5  A    between atoms: C_19  and  N_20
REMARK    6  A    between atoms: C_21  and  C_23
REMARK    7  A    between atoms: C_24  and  N_25
REMARK    8  A    between atoms: C_28  and  C_29
REMARK    9  A    between atoms: N_31  and  C_32
REMARK                            x       y       z     vdW  Elec       q    Type
REMARK                         _______ _______ _______ _____ _____    ______ ____
ROOT
ATOM      1  C   UNL     1       0.432   7.807  21.924  0.00  0.00    +0.000 C 
ATOM      2  C   UNL     1       1.199   8.095  20.688  0.00  0.00    +0.000 A 
ATOM      3  N   UNL     1       1.789   7.094  20.019  0.00  0.00    +0.000 NA
ATOM      4  N   UNL     1       2.272   7.667  18.896  0.00  0.00    +0.000 N 
ATOM      5  C   UNL     1       1.913   8.992  18.781  0.00  0.00    +0.000 A 
ATOM      6  C   UNL     1       2.241   9.888  17.645  0.00  0.00    +0.000 C 
ATOM      7  C   UNL     1       1.290   9.310  19.972  0.00  0.00    +0.000 A 
ENDROOT
BRANCH   7   8
ATOM      8  N   UNL     1       0.776  10.565  20.236  0.00  0.00    +0.000 N 
ATOM      9  C   UNL     1      -0.475  11.005  19.845  0.00  0.00    +0.000 C 
ATOM     10  O   UNL     1      -1.274  10.347  19.194  0.00  0.00    +0.000 OA
ATOM     11  H   UNL     1       1.183  11.020  21.045  0.00  0.00    +0.000 HD
BRANCH   9  12
ATOM     12  C   UNL     1      -0.803  12.311  20.390  0.00  0.00    +0.000 A 
ATOM     13  C   UNL     1      -1.233  12.684  21.658  0.00  0.00    +0.000 A 
ATOM     14  C   UNL     1      -1.441  14.076  21.628  0.00  0.00    +0.000 A 
ATOM     15  C   UNL     1      -1.981  14.974  22.680  0.00  0.00    +0.000 C 
ATOM     16  N   UNL     1      -1.139  14.573  20.425  0.00  0.00    +0.000 NA
ATOM     17  N   UNL     1      -0.735  13.506  19.704  0.00  0.00    +0.000 N 
ATOM     18  C   UNL     1      -0.436  13.715  18.303  0.00  0.00    +0.000 C 
BRANCH  13  19
ATOM     19  N   UNL     1      -1.465  11.823  22.768  0.00  0.00    +0.000 N 
ATOM     20  O   UNL     1      -2.616  11.814  23.221  0.00  0.00    +0.000 OA
ATOM     21  O   UNL     1      -0.494  11.195  23.201  0.00  0.00    +0.000 OA
ENDBRANCH  13  19
ENDBRANCH   9  12
ENDBRANCH   7   8
BRANCH   4  22
ATOM     22  C   UNL     1       3.137   6.860  18.029  0.00  0.00    +0.000 C 
BRANCH  22  23
ATOM     23  C   UNL     1       3.122   5.406  18.408  0.00  0.00    +0.000 A 
ATOM     24  C   UNL     1       4.175   4.837  19.129  0.00  0.00    +0.000 A 
ATOM     25  F   UNL     1       5.129   5.626  19.644  0.00  0.00    +0.000 F 
ATOM     26  C   UNL     1       4.251   3.466  19.347  0.00  0.00    +0.000 A 
ATOM     27  F   UNL     1       5.307   2.952  19.993  0.00  0.00    +0.000 F 
ATOM     28  C   UNL     1       3.239   2.639  18.893  0.00  0.00    +0.000 A 
ATOM     29  F   UNL     1       3.321   1.315  19.083  0.00  0.00    +0.000 F 
ATOM     30  C   UNL     1       2.136   3.187  18.255  0.00  0.00    +0.000 A 
ATOM     31  F   UNL     1       1.128   2.395  17.866  0.00  0.00    +0.000 F 
ATOM     32  C   UNL     1       2.078   4.560  18.016  0.00  0.00    +0.000 A 
ATOM     33  F   UNL     1       0.993   5.073  17.423  0.00  0.00    +0.000 F 
ENDBRANCH  22  23
ENDBRANCH   4  22
TORSDOF 5
ENDMDL
MODEL 8
REMARK VINA RESULT:      -7.4      4.307      8.675
REMARK  Name = 
REMARK  9 active torsions:
REMARK  status: ('A' for Active; 'I' for Inactive)
REMARK    1  A    between atoms: C_1  and  C_2
REMARK    2  A    between atoms: N_4  and  C_5
REMARK    3  A    between atoms: C_5  and  C_6
REMARK    4  A    between atoms: C_17  and  C_18
REMARK    5  A    between atoms: C_19  and  N_20
REMARK    6  A    between atoms: C_21  and  C_23
REMARK    7  A    between atoms: C_24  and  N_25
REMARK    8  A    between atoms: C_28  and  C_29
REMARK    9  A    between atoms: N_31  and  C_32
REMARK                            x       y       z     vdW  Elec       q    Type
REMARK                         _______ _______ _______ _____ _____    ______ ____
ROOT
ATOM      1  C   UNL     1       1.962   9.553  17.525  0.00  0.00    +0.000 C 
ATOM      2  C   UNL     1       1.702   8.809  18.781  0.00  0.00    +0.000 A 
ATOM      3  N   UNL     1       2.373   7.678  19.038  0.00  0.00    +0.000 NA
ATOM      4  N   UNL     1       2.009   7.338  20.292  0.00  0.00    +0.000 N 
ATOM      5  C   UNL     1       1.200   8.283  20.883  0.00  0.00    +0.000 A 
ATOM      6  C   UNL     1       0.670   8.233  22.268  0.00  0.00    +0.000 C 
ATOM      7  C   UNL     1       0.920   9.202  19.891  0.00  0.00    +0.000 A 
ENDROOT
BRANCH   7   8
ATOM      8  N   UNL     1       0.133  10.317  20.103  0.00  0.00    +0.000 N 
ATOM      9  C   UNL     1      -1.077  10.561  19.481  0.00  0.00    +0.000 C 
ATOM     10  O   UNL     1      -1.591   9.832  18.644  0.00  0.00    +0.000 OA
ATOM     11  H   UNL     1       0.278  10.764  21.002  0.00  0.00    +0.000 HD
BRANCH   9  12
ATOM     12  C   UNL     1      -1.750  11.735  20.010  0.00  0.00    +0.000 A 
ATOM     13  C   UNL     1      -1.432  12.556  21.084  0.00  0.00    +0.000 A 
ATOM     14  C   UNL     1      -2.450  13.525  21.175  0.00  0.00    +0.000 A 
ATOM     15  C   UNL     1      -2.653  14.590  22.191  0.00  0.00    +0.000 C 
ATOM     16  N   UNL     1      -3.352  13.356  20.206  0.00  0.00    +0.000 NA
ATOM     17  N   UNL     1      -2.905  12.294  19.502  0.00  0.00    +0.000 N 
ATOM     18  C   UNL     1      -3.741  11.796  18.430  0.00  0.00    +0.000 C 
BRANCH  13  19
ATOM     19  N   UNL     1      -0.316  12.424  21.960  0.00  0.00    +0.000 N 
ATOM     20  O   UNL     1       0.698  13.063  21.651  0.00  0.00    +0.000 OA
ATOM     21  O   UNL     1      -0.447  11.661  22.920  0.00  0.00    +0.000 OA
ENDBRANCH  13  19
ENDBRANCH   9  12
ENDBRANCH   7   8
BRANCH   4  22
ATOM     22  C   UNL     1       2.441   6.034  20.806  0.00  0.00    +0.000 C 
BRANCH  22  23
ATOM     23  C   UNL     1       2.409   4.968  19.746  0.00  0.00    +0.000 A 
ATOM     24  C   UNL     1       1.298   4.134  19.595  0.00  0.00    +0.000 A 
ATOM     25  F   UNL     1       0.176   4.393  20.279  0.00  0.00    +0.000 F 
ATOM     26  C   UNL     1       1.318   3.046  18.729  0.00  0.00    +0.000 A 
ATOM     27  F   UNL     1       0.254   2.235  18.655  0.00  0.00    +0.000 F 
ATOM     28  C   UNL     1       2.438   2.802  17.953  0.00  0.00    +0.000 A 
ATOM     29  F   UNL     1       2.468   1.742  17.134  0.00  0.00    +0.000 F 
ATOM     30  C   UNL     1       3.520   3.668  18.015  0.00  0.00    +0.000 A 
ATOM     31  F   UNL     1       4.581   3.469  17.222  0.00  0.00    +0.000 F 
ATOM     32  C   UNL     1       3.504   4.743  18.904  0.00  0.00    +0.000 A 
ATOM     33  F   UNL     1       4.547   5.583  18.929  0.00  0.00    +0.000 F 
ENDBRANCH  22  23
ENDBRANCH   4  22
TORSDOF 5
ENDMDL
MODEL 9
REMARK VINA RESULT:      -7.3      4.706      8.806
REMARK  Name = 
REMARK  9 active torsions:
REMARK  status: ('A' for Active; 'I' for Inactive)
REMARK    1  A    between atoms: C_1  and  C_2
REMARK    2  A    between atoms: N_4  and  C_5
REMARK    3  A    between atoms: C_5  and  C_6
REMARK    4  A    between atoms: C_17  and  C_18
REMARK    5  A    between atoms: C_19  and  N_20
REMARK    6  A    between atoms: C_21  and  C_23
REMARK    7  A    between atoms: C_24  and  N_25
REMARK    8  A    between atoms: C_28  and  C_29
REMARK    9  A    between atoms: N_31  and  C_32
REMARK                            x       y       z     vdW  Elec       q    Type
REMARK                         _______ _______ _______ _____ _____    ______ ____
ROOT
ATOM      1  C   UNL     1       1.886   9.603  17.667  0.00  0.00    +0.000 C 
ATOM      2  C   UNL     1       1.586   8.902  18.939  0.00  0.00    +0.000 A 
ATOM      3  N   UNL     1       2.209   7.751  19.230  0.00  0.00    +0.000 NA
ATOM      4  N   UNL     1       1.821   7.458  20.489  0.00  0.00    +0.000 N 
ATOM      5  C   UNL     1       1.047   8.450  21.049  0.00  0.00    +0.000 A 
ATOM      6  C   UNL     1       0.505   8.457  22.431  0.00  0.00    +0.000 C 
ATOM      7  C   UNL     1       0.813   9.354  20.032  0.00  0.00    +0.000 A 
ENDROOT
BRANCH   7   8
ATOM      8  N   UNL     1       0.070  10.505  20.210  0.00  0.00    +0.000 N 
ATOM      9  C   UNL     1       0.553  11.682  20.751  0.00  0.00    +0.000 C 
ATOM     10  O   UNL     1       1.692  11.844  21.165  0.00  0.00    +0.000 OA
ATOM     11  H   UNL     1      -0.727  10.587  19.588  0.00  0.00    +0.000 HD
BRANCH   9  12
ATOM     12  C   UNL     1      -0.409  12.767  20.677  0.00  0.00    +0.000 A 
ATOM     13  C   UNL     1      -1.255  13.298  21.643  0.00  0.00    +0.000 A 
ATOM     14  C   UNL     1      -2.005  14.313  21.019  0.00  0.00    +0.000 A 
ATOM     15  C   UNL     1      -3.112  15.141  21.564  0.00  0.00    +0.000 C 
ATOM     16  N   UNL     1      -1.647  14.447  19.740  0.00  0.00    +0.000 NA
ATOM     17  N   UNL     1      -0.673  13.531  19.558  0.00  0.00    +0.000 N 
ATOM     18  C   UNL     1      -0.148  13.362  18.220  0.00  0.00    +0.000 C 
BRANCH  13  19
ATOM     19  N   UNL     1      -1.380  12.872  22.997  0.00  0.00    +0.000 N 
ATOM     20  O   UNL     1      -0.885  13.617  23.851  0.00  0.00    +0.000 OA
ATOM     21  O   UNL     1      -1.933  11.786  23.192  0.00  0.00    +0.000 OA
ENDBRANCH  13  19
ENDBRANCH   9  12
ENDBRANCH   7   8
BRANCH   4  22
ATOM     22  C   UNL     1       2.196   6.151  21.039  0.00  0.00    +0.000 C 
BRANCH  22  23
ATOM     23  C   UNL     1       2.284   5.092  19.974  0.00  0.00    +0.000 A 
ATOM     24  C   UNL     1       1.217   4.224  19.731  0.00  0.00    +0.000 A 
ATOM     25  F   UNL     1       0.035   4.442  20.325  0.00  0.00    +0.000 F 
ATOM     26  C   UNL     1       1.341   3.143  18.865  0.00  0.00    +0.000 A 
ATOM     27  F   UNL     1       0.313   2.300  18.702  0.00  0.00    +0.000 F 
ATOM     28  C   UNL     1       2.526   2.942  18.180  0.00  0.00    +0.000 A 
ATOM     29  F   UNL     1       2.656   1.889  17.362  0.00  0.00    +0.000 F 
ATOM     30  C   UNL     1       3.571   3.842  18.332  0.00  0.00    +0.000 A 
ATOM     31  F   UNL     1       4.698   3.682  17.626  0.00  0.00    +0.000 F 
ATOM     32  C   UNL     1       3.449   4.909  19.222  0.00  0.00    +0.000 A 
ATOM     33  F   UNL     1       4.459   5.782  19.335  0.00  0.00    +0.000 F 
ENDBRANCH  22  23
ENDBRANCH   4  22
TORSDOF 5
ENDMDL
