MODEL 1
REMARK VINA RESULT:      -7.9      0.000      0.000
REMARK  Name = 
REMARK  2 active torsions:
REMARK  status: ('A' for Active; 'I' for Inactive)
REMARK    1  A    between atoms: S_2  and  C_4
REMARK    2  A    between atoms: S_2  and  C_10
REMARK                            x       y       z     vdW  Elec       q    Type
REMARK                         _______ _______ _______ _____ _____    ______ ____
ROOT
ATOM      1  C   UNL     1       3.516   4.651  18.992  0.00  0.00    +0.000 A 
ATOM      2  C   UNL     1       3.575   3.327  19.493  0.00  0.00    +0.000 A 
ATOM      3  C   UNL     1       2.829   2.929  20.605  0.00  0.00    +0.000 A 
ATOM      4  C   UNL     1       2.004   3.833  21.264  0.00  0.00    +0.000 A 
ATOM      5  C   UNL     1       1.986   5.124  20.749  0.00  0.00    +0.000 A 
ATOM      6  O   UNL     1       1.270   6.155  21.253  0.00  0.00    +0.000 OA
ATOM      7  C   UNL     1       1.564   7.216  20.443  0.00  0.00    +0.000 A 
ATOM      8  N   UNL     1       1.027   8.396  20.813  0.00  0.00    +0.000 N 
ATOM      9  C   UNL     1       0.105   8.490  21.951  0.00  0.00    +0.000 C 
ATOM     10  C   UNL     1       0.308   9.840  22.673  0.00  0.00    +0.000 C 
ATOM     11  N   UNL     1       0.186  11.006  21.778  0.00  0.00    +0.000 NA
ATOM     12  C   UNL     1       1.102  10.847  20.627  0.00  0.00    +0.000 C 
ATOM     13  C   UNL     1       0.931   9.506  19.868  0.00  0.00    +0.000 C 
ATOM     14  N   UNL     1       2.386   6.916  19.451  0.00  0.00    +0.000 NA
ATOM     15  C   UNL     1       2.692   5.578  19.644  0.00  0.00    +0.000 A 
ATOM     16  H   UNL     1       0.450  11.846  22.295  0.00  0.00    +0.000 HD
ENDROOT
BRANCH   1  18
ATOM     17  O   UNL     1       3.697   5.920  16.764  0.00  0.00    +0.000 OA
ATOM     18  S   UNL     1       4.474   4.978  17.551  0.00  0.00    +0.000 S 
ATOM     19  O   UNL     1       4.795   3.677  16.983  0.00  0.00    +0.000 OA
BRANCH  18  20
ATOM     20  C   UNL     1       6.031   5.752  17.907  0.00  0.00    +0.000 A 
ATOM     21  C   UNL     1       6.782   5.303  18.997  0.00  0.00    +0.000 A 
ATOM     22  C   UNL     1       7.940   5.989  19.367  0.00  0.00    +0.000 A 
ATOM     23  C   UNL     1       8.332   7.129  18.662  0.00  0.00    +0.000 A 
ATOM     24  C   UNL     1       7.563   7.593  17.593  0.00  0.00    +0.000 A 
ATOM     25  C   UNL     1       6.405   6.911  17.217  0.00  0.00    +0.000 A 
ENDBRANCH  18  20
ENDBRANCH   1  18
TORSDOF 2
ENDMDL
MODEL 2
REMARK VINA RESULT:      -7.6      2.261      4.609
REMARK  Name = 
REMARK  2 active torsions:
REMARK  status: ('A' for Active; 'I' for Inactive)
REMARK    1  A    between atoms: S_2  and  C_4
REMARK    2  A    between atoms: S_2  and  C_10
REMARK                            x       y       z     vdW  Elec       q    Type
REMARK                         _______ _______ _______ _____ _____    ______ ____
ROOT
ATOM      1  C   UNL     1       4.417   4.912  17.604  0.00  0.00    +0.000 A 
ATOM      2  C   UNL     1       5.157   4.979  16.397  0.00  0.00    +0.000 A 
ATOM      3  C   UNL     1       5.222   6.151  15.640  0.00  0.00    +0.000 A 
ATOM      4  C   UNL     1       4.547   7.296  16.049  0.00  0.00    +0.000 A 
ATOM      5  C   UNL     1       3.822   7.183  17.229  0.00  0.00    +0.000 A 
ATOM      6  O   UNL     1       3.083   8.169  17.788  0.00  0.00    +0.000 OA
ATOM      7  C   UNL     1       2.550   7.611  18.916  0.00  0.00    +0.000 A 
ATOM      8  N   UNL     1       1.687   8.392  19.599  0.00  0.00    +0.000 N 
ATOM      9  C   UNL     1       1.436   9.781  19.198  0.00  0.00    +0.000 C 
ATOM     10  C   UNL     1      -0.036  10.146  19.486  0.00  0.00    +0.000 C 
ATOM     11  N   UNL     1      -0.435   9.905  20.886  0.00  0.00    +0.000 NA
ATOM     12  C   UNL     1      -0.125   8.506  21.256  0.00  0.00    +0.000 C 
ATOM     13  C   UNL     1       1.345   8.095  20.987  0.00  0.00    +0.000 C 
ATOM     14  N   UNL     1       2.928   6.360  19.121  0.00  0.00    +0.000 NA
ATOM     15  C   UNL     1       3.728   6.055  18.031  0.00  0.00    +0.000 A 
ATOM     16  H   UNL     1      -1.441  10.052  20.970  0.00  0.00    +0.000 HD
ENDROOT
BRANCH   1  18
ATOM     17  O   UNL     1       5.612   3.482  19.374  0.00  0.00    +0.000 OA
ATOM     18  S   UNL     1       4.481   3.379  18.468  0.00  0.00    +0.000 S 
ATOM     19  O   UNL     1       4.486   2.344  17.444  0.00  0.00    +0.000 OA
BRANCH  18  20
ATOM     20  C   UNL     1       3.041   3.075  19.460  0.00  0.00    +0.000 A 
ATOM     21  C   UNL     1       1.789   3.009  18.843  0.00  0.00    +0.000 A 
ATOM     22  C   UNL     1       0.638   2.905  19.626  0.00  0.00    +0.000 A 
ATOM     23  C   UNL     1       0.740   2.887  21.018  0.00  0.00    +0.000 A 
ATOM     24  C   UNL     1       1.989   2.985  21.633  0.00  0.00    +0.000 A 
ATOM     25  C   UNL     1       3.144   3.087  20.856  0.00  0.00    +0.000 A 
ENDBRANCH  18  20
ENDBRANCH   1  18
TORSDOF 2
ENDMDL
MODEL 3
REMARK VINA RESULT:      -7.5      2.407      4.644
REMARK  Name = 
REMARK  2 active torsions:
REMARK  status: ('A' for Active; 'I' for Inactive)
REMARK    1  A    between atoms: S_2  and  C_4
REMARK    2  A    between atoms: S_2  and  C_10
REMARK                            x       y       z     vdW  Elec       q    Type
REMARK                         _______ _______ _______ _____ _____    ______ ____
ROOT
ATOM      1  C   UNL     1       4.491   4.858  17.471  0.00  0.00    +0.000 A 
ATOM      2  C   UNL     1       5.264   4.771  16.286  0.00  0.00    +0.000 A 
ATOM      3  C   UNL     1       5.388   5.851  15.409  0.00  0.00    +0.000 A 
ATOM      4  C   UNL     1       4.742   7.054  15.673  0.00  0.00    +0.000 A 
ATOM      5  C   UNL     1       3.984   7.092  16.837  0.00  0.00    +0.000 A 
ATOM      6  O   UNL     1       3.264   8.155  17.264  0.00  0.00    +0.000 OA
ATOM      7  C   UNL     1       2.684   7.740  18.430  0.00  0.00    +0.000 A 
ATOM      8  N   UNL     1       1.831   8.617  18.999  0.00  0.00    +0.000 N 
ATOM      9  C   UNL     1       1.637   9.961  18.443  0.00  0.00    +0.000 C 
ATOM     10  C   UNL     1       0.171  10.400  18.648  0.00  0.00    +0.000 C 
ATOM     11  N   UNL     1      -0.272  10.325  20.053  0.00  0.00    +0.000 NA
ATOM     12  C   UNL     1      -0.018   8.965  20.581  0.00  0.00    +0.000 C 
ATOM     13  C   UNL     1       1.443   8.483  20.401  0.00  0.00    +0.000 C 
ATOM     14  N   UNL     1       3.014   6.507  18.780  0.00  0.00    +0.000 NA
ATOM     15  C   UNL     1       3.831   6.061  17.753  0.00  0.00    +0.000 A 
ATOM     16  H   UNL     1      -1.274  10.512  20.092  0.00  0.00    +0.000 HD
ENDROOT
BRANCH   1  18
ATOM     17  O   UNL     1       5.633   3.559  19.372  0.00  0.00    +0.000 OA
ATOM     18  S   UNL     1       4.482   3.426  18.497  0.00  0.00    +0.000 S 
ATOM     19  O   UNL     1       4.406   2.288  17.592  0.00  0.00    +0.000 OA
BRANCH  18  20
ATOM     20  C   UNL     1       3.046   3.320  19.534  0.00  0.00    +0.000 A 
ATOM     21  C   UNL     1       3.210   3.169  20.915  0.00  0.00    +0.000 A 
ATOM     22  C   UNL     1       2.093   2.951  21.722  0.00  0.00    +0.000 A 
ATOM     23  C   UNL     1       0.823   2.865  21.150  0.00  0.00    +0.000 A 
ATOM     24  C   UNL     1       0.665   2.986  19.769  0.00  0.00    +0.000 A 
ATOM     25  C   UNL     1       1.776   3.206  18.955  0.00  0.00    +0.000 A 
ENDBRANCH  18  20
ENDBRANCH   1  18
TORSDOF 2
ENDMDL
MODEL 4
REMARK VINA RESULT:      -7.3      1.719      2.256
REMARK  Name = 
REMARK  2 active torsions:
REMARK  status: ('A' for Active; 'I' for Inactive)
REMARK    1  A    between atoms: S_2  and  C_4
REMARK    2  A    between atoms: S_2  and  C_10
REMARK                            x       y       z     vdW  Elec       q    Type
REMARK                         _______ _______ _______ _____ _____    ______ ____
ROOT
ATOM      1  C   UNL     1       3.019   3.541  19.117  0.00  0.00    +0.000 A 
ATOM      2  C   UNL     1       3.051   2.562  20.140  0.00  0.00    +0.000 A 
ATOM      3  C   UNL     1       2.582   2.829  21.428  0.00  0.00    +0.000 A 
ATOM      4  C   UNL     1       2.071   4.082  21.749  0.00  0.00    +0.000 A 
ATOM      5  C   UNL     1       2.070   5.017  20.721  0.00  0.00    +0.000 A 
ATOM      6  O   UNL     1       1.636   6.295  20.828  0.00  0.00    +0.000 OA
ATOM      7  C   UNL     1       1.830   6.837  19.589  0.00  0.00    +0.000 A 
ATOM      8  N   UNL     1       1.551   8.152  19.480  0.00  0.00    +0.000 N 
ATOM      9  C   UNL     1       0.978   8.904  20.601  0.00  0.00    +0.000 C 
ATOM     10  C   UNL     1       1.520  10.350  20.586  0.00  0.00    +0.000 C 
ATOM     11  N   UNL     1       1.305  11.043  19.302  0.00  0.00    +0.000 NA
ATOM     12  C   UNL     1       1.861  10.227  18.199  0.00  0.00    +0.000 C 
ATOM     13  C   UNL     1       1.342   8.767  18.172  0.00  0.00    +0.000 C 
ATOM     14  N   UNL     1       2.322   5.983  18.706  0.00  0.00    +0.000 NA
ATOM     15  C   UNL     1       2.509   4.811  19.421  0.00  0.00    +0.000 A 
ATOM     16  H   UNL     1       1.791  11.939  19.327  0.00  0.00    +0.000 HD
ENDROOT
BRANCH   1  18
ATOM     17  O   UNL     1       2.500   3.274  16.614  0.00  0.00    +0.000 OA
ATOM     18  S   UNL     1       3.596   3.028  17.534  0.00  0.00    +0.000 S 
ATOM     19  O   UNL     1       4.083   1.668  17.710  0.00  0.00    +0.000 OA
BRANCH  18  20
ATOM     20  C   UNL     1       4.984   3.972  16.958  0.00  0.00    +0.000 A 
ATOM     21  C   UNL     1       5.210   4.084  15.583  0.00  0.00    +0.000 A 
ATOM     22  C   UNL     1       6.370   4.709  15.123  0.00  0.00    +0.000 A 
ATOM     23  C   UNL     1       7.307   5.201  16.033  0.00  0.00    +0.000 A 
ATOM     24  C   UNL     1       7.094   5.061  17.406  0.00  0.00    +0.000 A 
ATOM     25  C   UNL     1       5.936   4.439  17.873  0.00  0.00    +0.000 A 
ENDBRANCH  18  20
ENDBRANCH   1  18
TORSDOF 2
ENDMDL
MODEL 5
REMARK VINA RESULT:      -7.3      3.791      7.896
REMARK  Name = 
REMARK  2 active torsions:
REMARK  status: ('A' for Active; 'I' for Inactive)
REMARK    1  A    between atoms: S_2  and  C_4
REMARK    2  A    between atoms: S_2  and  C_10
REMARK                            x       y       z     vdW  Elec       q    Type
REMARK                         _______ _______ _______ _____ _____    ______ ____
ROOT
ATOM      1  C   UNL     1      -0.280  10.881  20.713  0.00  0.00    +0.000 A 
ATOM      2  C   UNL     1      -0.846  11.294  21.945  0.00  0.00    +0.000 A 
ATOM      3  C   UNL     1      -0.695  10.542  23.112  0.00  0.00    +0.000 A 
ATOM      4  C   UNL     1       0.016   9.348  23.097  0.00  0.00    +0.000 A 
ATOM      5  C   UNL     1       0.543   8.972  21.867  0.00  0.00    +0.000 A 
ATOM      6  O   UNL     1       1.247   7.840  21.633  0.00  0.00    +0.000 OA
ATOM      7  C   UNL     1       1.549   7.884  20.301  0.00  0.00    +0.000 A 
ATOM      8  N   UNL     1       2.180   6.797  19.812  0.00  0.00    +0.000 N 
ATOM      9  C   UNL     1       2.599   5.700  20.691  0.00  0.00    +0.000 C 
ATOM     10  C   UNL     1       2.477   4.357  19.939  0.00  0.00    +0.000 C 
ATOM     11  N   UNL     1       3.209   4.335  18.658  0.00  0.00    +0.000 NA
ATOM     12  C   UNL     1       2.784   5.481  17.824  0.00  0.00    +0.000 C 
ATOM     13  C   UNL     1       2.892   6.853  18.538  0.00  0.00    +0.000 C 
ATOM     14  N   UNL     1       1.113   8.975  19.692  0.00  0.00    +0.000 NA
ATOM     15  C   UNL     1       0.439   9.678  20.677  0.00  0.00    +0.000 A 
ATOM     16  H   UNL     1       2.985   3.469  18.167  0.00  0.00    +0.000 HD
ENDROOT
BRANCH   1  18
ATOM     17  O   UNL     1       0.753  11.992  18.639  0.00  0.00    +0.000 OA
ATOM     18  S   UNL     1      -0.514  11.968  19.348  0.00  0.00    +0.000 S 
ATOM     19  O   UNL     1      -1.036  13.206  19.910  0.00  0.00    +0.000 OA
BRANCH  18  20
ATOM     20  C   UNL     1      -1.744  11.396  18.203  0.00  0.00    +0.000 A 
ATOM     21  C   UNL     1      -3.053  11.876  18.310  0.00  0.00    +0.000 A 
ATOM     22  C   UNL     1      -4.054  11.334  17.503  0.00  0.00    +0.000 A 
ATOM     23  C   UNL     1      -3.751  10.306  16.609  0.00  0.00    +0.000 A 
ATOM     24  C   UNL     1      -2.450   9.808  16.525  0.00  0.00    +0.000 A 
ATOM     25  C   UNL     1      -1.443  10.346  17.327  0.00  0.00    +0.000 A 
ENDBRANCH  18  20
ENDBRANCH   1  18
TORSDOF 2
ENDMDL
MODEL 6
REMARK VINA RESULT:      -7.3      1.680      2.070
REMARK  Name = 
REMARK  2 active torsions:
REMARK  status: ('A' for Active; 'I' for Inactive)
REMARK    1  A    between atoms: S_2  and  C_4
REMARK    2  A    between atoms: S_2  and  C_10
REMARK                            x       y       z     vdW  Elec       q    Type
REMARK                         _______ _______ _______ _____ _____    ______ ____
ROOT
ATOM      1  C   UNL     1       2.992   3.639  19.094  0.00  0.00    +0.000 A 
ATOM      2  C   UNL     1       2.981   2.672  20.130  0.00  0.00    +0.000 A 
ATOM      3  C   UNL     1       2.483   2.963  21.402  0.00  0.00    +0.000 A 
ATOM      4  C   UNL     1       1.985   4.228  21.694  0.00  0.00    +0.000 A 
ATOM      5  C   UNL     1       2.027   5.151  20.656  0.00  0.00    +0.000 A 
ATOM      6  O   UNL     1       1.612   6.436  20.737  0.00  0.00    +0.000 OA
ATOM      7  C   UNL     1       1.847   6.960  19.497  0.00  0.00    +0.000 A 
ATOM      8  N   UNL     1       1.593   8.278  19.365  0.00  0.00    +0.000 N 
ATOM      9  C   UNL     1       1.004   9.053  20.462  0.00  0.00    +0.000 C 
ATOM     10  C   UNL     1       1.571  10.490  20.444  0.00  0.00    +0.000 C 
ATOM     11  N   UNL     1       1.401  11.170  19.146  0.00  0.00    +0.000 NA
ATOM     12  C   UNL     1       1.973  10.332  18.068  0.00  0.00    +0.000 C 
ATOM     13  C   UNL     1       1.429   8.881  18.045  0.00  0.00    +0.000 C 
ATOM     14  N   UNL     1       2.348   6.088  18.637  0.00  0.00    +0.000 NA
ATOM     15  C   UNL     1       2.496   4.921  19.370  0.00  0.00    +0.000 A 
ATOM     16  H   UNL     1       1.902  12.059  19.174  0.00  0.00    +0.000 HD
ENDROOT
BRANCH   1  18
ATOM     17  O   UNL     1       2.571   3.436  16.567  0.00  0.00    +0.000 OA
ATOM     18  S   UNL     1       3.602   3.098  17.534  0.00  0.00    +0.000 S 
ATOM     19  O   UNL     1       3.974   1.702  17.714  0.00  0.00    +0.000 OA
BRANCH  18  20
ATOM     20  C   UNL     1       5.083   3.937  17.034  0.00  0.00    +0.000 A 
ATOM     21  C   UNL     1       5.889   4.538  18.006  0.00  0.00    +0.000 A 
ATOM     22  C   UNL     1       6.981   5.312  17.613  0.00  0.00    +0.000 A 
ATOM     23  C   UNL     1       7.255   5.500  16.258  0.00  0.00    +0.000 A 
ATOM     24  C   UNL     1       6.431   4.923  15.289  0.00  0.00    +0.000 A 
ATOM     25  C   UNL     1       5.338   4.147  15.673  0.00  0.00    +0.000 A 
ENDBRANCH  18  20
ENDBRANCH   1  18
TORSDOF 2
ENDMDL
MODEL 7
REMARK VINA RESULT:      -7.3      3.942      7.999
REMARK  Name = 
REMARK  2 active torsions:
REMARK  status: ('A' for Active; 'I' for Inactive)
REMARK    1  A    between atoms: S_2  and  C_4
REMARK    2  A    between atoms: S_2  and  C_10
REMARK                            x       y       z     vdW  Elec       q    Type
REMARK                         _______ _______ _______ _____ _____    ______ ____
ROOT
ATOM      1  C   UNL     1      -0.590  10.958  20.757  0.00  0.00    +0.000 A 
ATOM      2  C   UNL     1      -1.135  11.359  22.002  0.00  0.00    +0.000 A 
ATOM      3  C   UNL     1      -0.895  10.639  23.175  0.00  0.00    +0.000 A 
ATOM      4  C   UNL     1      -0.111   9.490  23.152  0.00  0.00    +0.000 A 
ATOM      5  C   UNL     1       0.392   9.125  21.909  0.00  0.00    +0.000 A 
ATOM      6  O   UNL     1       1.156   8.035  21.666  0.00  0.00    +0.000 OA
ATOM      7  C   UNL     1       1.406   8.073  20.323  0.00  0.00    +0.000 A 
ATOM      8  N   UNL     1       2.084   7.018  19.828  0.00  0.00    +0.000 N 
ATOM      9  C   UNL     1       2.603   5.965  20.708  0.00  0.00    +0.000 C 
ATOM     10  C   UNL     1       2.538   4.603  19.982  0.00  0.00    +0.000 C 
ATOM     11  N   UNL     1       3.222   4.604  18.675  0.00  0.00    +0.000 NA
ATOM     12  C   UNL     1       2.695   5.706  17.840  0.00  0.00    +0.000 C 
ATOM     13  C   UNL     1       2.745   7.095  18.527  0.00  0.00    +0.000 C 
ATOM     14  N   UNL     1       0.881   9.124  19.714  0.00  0.00    +0.000 NA
ATOM     15  C   UNL     1       0.201   9.802  20.713  0.00  0.00    +0.000 A 
ATOM     16  H   UNL     1       3.034   3.717  18.207  0.00  0.00    +0.000 HD
ENDROOT
BRANCH   1  18
ATOM     17  O   UNL     1       0.321  12.181  18.688  0.00  0.00    +0.000 OA
ATOM     18  S   UNL     1      -0.941  12.004  19.384  0.00  0.00    +0.000 S 
ATOM     19  O   UNL     1      -1.616  13.171  19.935  0.00  0.00    +0.000 OA
BRANCH  18  20
ATOM     20  C   UNL     1      -2.079  11.283  18.230  0.00  0.00    +0.000 A 
ATOM     21  C   UNL     1      -1.610  10.350  17.301  0.00  0.00    +0.000 A 
ATOM     22  C   UNL     1      -2.466   9.878  16.305  0.00  0.00    +0.000 A 
ATOM     23  C   UNL     1      -3.776  10.351  16.227  0.00  0.00    +0.000 A 
ATOM     24  C   UNL     1      -4.234  11.305  17.137  0.00  0.00    +0.000 A 
ATOM     25  C   UNL     1      -3.385  11.781  18.137  0.00  0.00    +0.000 A 
ENDBRANCH  18  20
ENDBRANCH   1  18
TORSDOF 2
ENDMDL
MODEL 8
REMARK VINA RESULT:      -7.2      1.181      1.668
REMARK  Name = 
REMARK  2 active torsions:
REMARK  status: ('A' for Active; 'I' for Inactive)
REMARK    1  A    between atoms: S_2  and  C_4
REMARK    2  A    between atoms: S_2  and  C_10
REMARK                            x       y       z     vdW  Elec       q    Type
REMARK                         _______ _______ _______ _____ _____    ______ ____
ROOT
ATOM      1  C   UNL     1       3.651   4.772  19.220  0.00  0.00    +0.000 A 
ATOM      2  C   UNL     1       3.378   3.643  20.032  0.00  0.00    +0.000 A 
ATOM      3  C   UNL     1       2.345   3.646  20.971  0.00  0.00    +0.000 A 
ATOM      4  C   UNL     1       1.549   4.774  21.144  0.00  0.00    +0.000 A 
ATOM      5  C   UNL     1       1.859   5.863  20.338  0.00  0.00    +0.000 A 
ATOM      6  O   UNL     1       1.224   7.057  20.363  0.00  0.00    +0.000 OA
ATOM      7  C   UNL     1       1.862   7.814  19.422  0.00  0.00    +0.000 A 
ATOM      8  N   UNL     1       1.454   9.097  19.332  0.00  0.00    +0.000 N 
ATOM      9  C   UNL     1       0.326   9.594  20.127  0.00  0.00    +0.000 C 
ATOM     10  C   UNL     1       0.576  11.067  20.518  0.00  0.00    +0.000 C 
ATOM     11  N   UNL     1       0.851  11.940  19.361  0.00  0.00    +0.000 NA
ATOM     12  C   UNL     1       1.967  11.377  18.569  0.00  0.00    +0.000 C 
ATOM     13  C   UNL     1       1.758   9.899  18.150  0.00  0.00    +0.000 C 
ATOM     14  N   UNL     1       2.829   7.171  18.787  0.00  0.00    +0.000 NA
ATOM     15  C   UNL     1       2.862   5.919  19.381  0.00  0.00    +0.000 A 
ATOM     16  H   UNL     1       1.123  12.862  19.704  0.00  0.00    +0.000 HD
ENDROOT
BRANCH   1  18
ATOM     17  O   UNL     1       4.327   4.705  16.741  0.00  0.00    +0.000 OA
ATOM     18  S   UNL     1       4.952   4.587  18.047  0.00  0.00    +0.000 S 
ATOM     19  O   UNL     1       5.632   3.349  18.398  0.00  0.00    +0.000 OA
BRANCH  18  20
ATOM     20  C   UNL     1       6.178   5.865  18.157  0.00  0.00    +0.000 A 
ATOM     21  C   UNL     1       6.166   6.905  17.223  0.00  0.00    +0.000 A 
ATOM     22  C   UNL     1       7.203   7.840  17.219  0.00  0.00    +0.000 A 
ATOM     23  C   UNL     1       8.253   7.723  18.130  0.00  0.00    +0.000 A 
ATOM     24  C   UNL     1       8.278   6.666  19.042  0.00  0.00    +0.000 A 
ATOM     25  C   UNL     1       7.245   5.729  19.053  0.00  0.00    +0.000 A 
ENDBRANCH  18  20
ENDBRANCH   1  18
TORSDOF 2
ENDMDL
MODEL 9
REMARK VINA RESULT:      -7.2      3.104      7.876
REMARK  Name = 
REMARK  2 active torsions:
REMARK  status: ('A' for Active; 'I' for Inactive)
REMARK    1  A    between atoms: S_2  and  C_4
REMARK    2  A    between atoms: S_2  and  C_10
REMARK                            x       y       z     vdW  Elec       q    Type
REMARK                         _______ _______ _______ _____ _____    ______ ____
ROOT
ATOM      1  C   UNL     1       1.080   9.076  20.279  0.00  0.00    +0.000 A 
ATOM      2  C   UNL     1       1.124  10.223  19.448  0.00  0.00    +0.000 A 
ATOM      3  C   UNL     1       1.718  10.193  18.184  0.00  0.00    +0.000 A 
ATOM      4  C   UNL     1       2.297   9.024  17.703  0.00  0.00    +0.000 A 
ATOM      5  C   UNL     1       2.245   7.926  18.554  0.00  0.00    +0.000 A 
ATOM      6  O   UNL     1       2.765   6.706  18.286  0.00  0.00    +0.000 OA
ATOM      7  C   UNL     1       2.489   5.956  19.395  0.00  0.00    +0.000 A 
ATOM      8  N   UNL     1       3.001   4.708  19.395  0.00  0.00    +0.000 N 
ATOM      9  C   UNL     1       3.712   4.177  18.227  0.00  0.00    +0.000 C 
ATOM     10  C   UNL     1       4.847   3.239  18.692  0.00  0.00    +0.000 C 
ATOM     11  N   UNL     1       4.384   2.159  19.584  0.00  0.00    +0.000 NA
ATOM     12  C   UNL     1       3.638   2.740  20.722  0.00  0.00    +0.000 C 
ATOM     13  C   UNL     1       2.486   3.686  20.302  0.00  0.00    +0.000 C 
ATOM     14  N   UNL     1       1.807   6.608  20.322  0.00  0.00    +0.000 NA
ATOM     15  C   UNL     1       1.661   7.889  19.812  0.00  0.00    +0.000 A 
ATOM     16  H   UNL     1       5.197   1.658  19.943  0.00  0.00    +0.000 HD
ENDROOT
BRANCH   1  18
ATOM     17  O   UNL     1       1.292   9.408  22.819  0.00  0.00    +0.000 OA
ATOM     18  S   UNL     1       0.248   9.265  21.819  0.00  0.00    +0.000 S 
ATOM     19  O   UNL     1      -0.675   8.142  21.913  0.00  0.00    +0.000 OA
BRANCH  18  20
ATOM     20  C   UNL     1      -0.755  10.727  21.896  0.00  0.00    +0.000 A 
ATOM     21  C   UNL     1      -1.313  11.108  23.120  0.00  0.00    +0.000 A 
ATOM     22  C   UNL     1      -2.209  12.177  23.165  0.00  0.00    +0.000 A 
ATOM     23  C   UNL     1      -2.559  12.847  21.992  0.00  0.00    +0.000 A 
ATOM     24  C   UNL     1      -2.024  12.445  20.767  0.00  0.00    +0.000 A 
ATOM     25  C   UNL     1      -1.126  11.378  20.714  0.00  0.00    +0.000 A 
ENDBRANCH  18  20
ENDBRANCH   1  18
TORSDOF 2
ENDMDL
