MODEL 1
REMARK VINA RESULT:      -7.2      0.000      0.000
REMARK  Name = 
REMARK  11 active torsions:
REMARK  status: ('A' for Active; 'I' for Inactive)
REMARK    1  A    between atoms: C_1  and  O_2
REMARK    2  A    between atoms: O_2  and  C_3
REMARK    3  A    between atoms: C_5  and  N_6
REMARK    4  A    between atoms: C_7  and  C_9
REMARK    5  A    between atoms: C_9  and  S_10
REMARK    6  A    between atoms: S_10  and  C_11
REMARK    7  A    between atoms: C_11  and  C_12
REMARK    8  A    between atoms: C_18  and  C_19
REMARK    9  A    between atoms: C_19  and  O_21
REMARK   10  A    between atoms: C_23  and  O_24
REMARK   11  A    between atoms: O_24  and  C_25
REMARK                            x       y       z     vdW  Elec       q    Type
REMARK                         _______ _______ _______ _____ _____    ______ ____
ROOT
ATOM      1  C   UNL     1       3.298   5.343  17.851  0.00  0.00    +0.000 A 
ATOM      2  C   UNL     1       4.234   6.388  17.818  0.00  0.00    +0.000 A 
ATOM      3  C   UNL     1       5.480   6.267  17.199  0.00  0.00    +0.000 A 
ATOM      4  C   UNL     1       5.831   5.011  16.663  0.00  0.00    +0.000 A 
ATOM      5  C   UNL     1       4.938   3.931  16.784  0.00  0.00    +0.000 A 
ATOM      6  C   UNL     1       3.663   4.091  17.348  0.00  0.00    +0.000 A 
ENDROOT
BRANCH   3   7
ATOM      7  N   UNL     1       6.337   7.395  17.052  0.00  0.00    +0.000 N 
ATOM      8  C   UNL     1       7.492   7.669  17.769  0.00  0.00    +0.000 C 
ATOM      9  O   UNL     1       8.065   6.903  18.543  0.00  0.00    +0.000 OA
ATOM     10  H   UNL     1       6.079   8.059  16.318  0.00  0.00    +0.000 HD
BRANCH   8  11
ATOM     11  C   UNL     1       8.048   9.063  17.562  0.00  0.00    +0.000 C 
BRANCH  11  12
ATOM     12  S   UNL     1       9.016   9.608  18.999  0.00  0.00    +0.000 S 
BRANCH  12  13
ATOM     13  C   UNL     1       9.775  11.140  18.325  0.00  0.00    +0.000 C 
BRANCH  13  14
ATOM     14  C   UNL     1       9.733  12.215  19.387  0.00  0.00    +0.000 A 
ATOM     15  C   UNL     1       9.939  13.560  19.042  0.00  0.00    +0.000 A 
ATOM     16  C   UNL     1      10.051  14.538  20.032  0.00  0.00    +0.000 A 
ATOM     17  C   UNL     1       9.949  14.184  21.376  0.00  0.00    +0.000 A 
ATOM     18  C   UNL     1       9.713  12.856  21.731  0.00  0.00    +0.000 A 
ATOM     19  C   UNL     1       9.603  11.877  20.742  0.00  0.00    +0.000 A 
ENDBRANCH  13  14
ENDBRANCH  12  13
ENDBRANCH  11  12
ENDBRANCH   8  11
ENDBRANCH   3   7
BRANCH   1  21
ATOM     20  C   UNL     1       1.897   5.245  19.772  0.00  0.00    +0.000 C 
ATOM     21  O   UNL     1       2.047   5.526  18.380  0.00  0.00    +0.000 OA
ENDBRANCH   1  21
BRANCH   4  22
ATOM     22  C   UNL     1       7.155   4.807  16.021  0.00  0.00    +0.000 C 
ATOM     23  O   UNL     1       7.378   5.148  14.873  0.00  0.00    +0.000 OA
BRANCH  22  24
ATOM     24  O   UNL     1       8.069   4.157  16.774  0.00  0.00    +0.000 OA
ATOM     25  H   UNL     1       8.093   3.187  16.686  0.00  0.00    +0.000 HD
ENDBRANCH  22  24
ENDBRANCH   4  22
BRANCH   6  26
ATOM     26  O   UNL     1       2.930   2.937  17.297  0.00  0.00    +0.000 OA
ATOM     27  C   UNL     1       3.275   1.864  18.161  0.00  0.00    +0.000 C 
ENDBRANCH   6  26
TORSDOF 9
ENDMDL
MODEL 2
REMARK VINA RESULT:      -7.0      1.182      1.597
REMARK  Name = 
REMARK  11 active torsions:
REMARK  status: ('A' for Active; 'I' for Inactive)
REMARK    1  A    between atoms: C_1  and  O_2
REMARK    2  A    between atoms: O_2  and  C_3
REMARK    3  A    between atoms: C_5  and  N_6
REMARK    4  A    between atoms: C_7  and  C_9
REMARK    5  A    between atoms: C_9  and  S_10
REMARK    6  A    between atoms: S_10  and  C_11
REMARK    7  A    between atoms: C_11  and  C_12
REMARK    8  A    between atoms: C_18  and  C_19
REMARK    9  A    between atoms: C_19  and  O_21
REMARK   10  A    between atoms: C_23  and  O_24
REMARK   11  A    between atoms: O_24  and  C_25
REMARK                            x       y       z     vdW  Elec       q    Type
REMARK                         _______ _______ _______ _____ _____    ______ ____
ROOT
ATOM      1  C   UNL     1       3.452   5.322  18.449  0.00  0.00    +0.000 A 
ATOM      2  C   UNL     1       4.484   6.250  18.241  0.00  0.00    +0.000 A 
ATOM      3  C   UNL     1       5.519   6.036  17.327  0.00  0.00    +0.000 A 
ATOM      4  C   UNL     1       5.561   4.798  16.655  0.00  0.00    +0.000 A 
ATOM      5  C   UNL     1       4.587   3.823  16.935  0.00  0.00    +0.000 A 
ATOM      6  C   UNL     1       3.516   4.082  17.805  0.00  0.00    +0.000 A 
ENDROOT
BRANCH   3   7
ATOM      7  N   UNL     1       6.458   7.065  17.033  0.00  0.00    +0.000 N 
ATOM      8  C   UNL     1       7.537   7.463  17.810  0.00  0.00    +0.000 C 
ATOM      9  O   UNL     1       7.964   6.885  18.808  0.00  0.00    +0.000 OA
ATOM     10  H   UNL     1       6.332   7.543  16.137  0.00  0.00    +0.000 HD
BRANCH   8  11
ATOM     11  C   UNL     1       8.202   8.746  17.357  0.00  0.00    +0.000 C 
BRANCH  11  12
ATOM     12  S   UNL     1       8.954   9.630  18.754  0.00  0.00    +0.000 S 
BRANCH  12  13
ATOM     13  C   UNL     1       8.845  11.361  18.150  0.00  0.00    +0.000 C 
BRANCH  13  14
ATOM     14  C   UNL     1      10.094  12.105  18.567  0.00  0.00    +0.000 A 
ATOM     15  C   UNL     1      11.232  11.399  18.986  0.00  0.00    +0.000 A 
ATOM     16  C   UNL     1      12.333  12.077  19.513  0.00  0.00    +0.000 A 
ATOM     17  C   UNL     1      12.313  13.465  19.618  0.00  0.00    +0.000 A 
ATOM     18  C   UNL     1      11.200  14.181  19.175  0.00  0.00    +0.000 A 
ATOM     19  C   UNL     1      10.098  13.505  18.650  0.00  0.00    +0.000 A 
ENDBRANCH  13  14
ENDBRANCH  12  13
ENDBRANCH  11  12
ENDBRANCH   8  11
ENDBRANCH   3   7
BRANCH   1  21
ATOM     20  C   UNL     1       2.276   6.959  19.713  0.00  0.00    +0.000 C 
ATOM     21  O   UNL     1       2.400   5.604  19.279  0.00  0.00    +0.000 OA
ENDBRANCH   1  21
BRANCH   4  22
ATOM     22  C   UNL     1       6.654   4.496  15.696  0.00  0.00    +0.000 C 
ATOM     23  O   UNL     1       7.829   4.575  16.005  0.00  0.00    +0.000 OA
BRANCH  22  24
ATOM     24  O   UNL     1       6.254   4.192  14.441  0.00  0.00    +0.000 OA
ATOM     25  H   UNL     1       6.959   4.074  13.779  0.00  0.00    +0.000 HD
ENDBRANCH  22  24
ENDBRANCH   4  22
BRANCH   6  26
ATOM     26  O   UNL     1       2.645   3.030  17.876  0.00  0.00    +0.000 OA
ATOM     27  C   UNL     1       3.138   1.753  18.256  0.00  0.00    +0.000 C 
ENDBRANCH   6  26
TORSDOF 9
ENDMDL
MODEL 3
REMARK VINA RESULT:      -6.8      4.802      7.592
REMARK  Name = 
REMARK  11 active torsions:
REMARK  status: ('A' for Active; 'I' for Inactive)
REMARK    1  A    between atoms: C_1  and  O_2
REMARK    2  A    between atoms: O_2  and  C_3
REMARK    3  A    between atoms: C_5  and  N_6
REMARK    4  A    between atoms: C_7  and  C_9
REMARK    5  A    between atoms: C_9  and  S_10
REMARK    6  A    between atoms: S_10  and  C_11
REMARK    7  A    between atoms: C_11  and  C_12
REMARK    8  A    between atoms: C_18  and  C_19
REMARK    9  A    between atoms: C_19  and  O_21
REMARK   10  A    between atoms: C_23  and  O_24
REMARK   11  A    between atoms: O_24  and  C_25
REMARK                            x       y       z     vdW  Elec       q    Type
REMARK                         _______ _______ _______ _____ _____    ______ ____
ROOT
ATOM      1  C   UNL     1       5.752   5.898  16.835  0.00  0.00    +0.000 A 
ATOM      2  C   UNL     1       4.842   6.572  17.664  0.00  0.00    +0.000 A 
ATOM      3  C   UNL     1       3.669   5.979  18.138  0.00  0.00    +0.000 A 
ATOM      4  C   UNL     1       3.358   4.680  17.689  0.00  0.00    +0.000 A 
ATOM      5  C   UNL     1       4.215   4.037  16.777  0.00  0.00    +0.000 A 
ATOM      6  C   UNL     1       5.423   4.622  16.366  0.00  0.00    +0.000 A 
ENDROOT
BRANCH   3   7
ATOM      7  N   UNL     1       2.852   6.641  19.099  0.00  0.00    +0.000 N 
ATOM      8  C   UNL     1       2.139   7.818  18.924  0.00  0.00    +0.000 C 
ATOM      9  O   UNL     1       1.958   8.406  17.859  0.00  0.00    +0.000 OA
ATOM     10  H   UNL     1       2.767   6.178  20.007  0.00  0.00    +0.000 HD
BRANCH   8  11
ATOM     11  C   UNL     1       1.569   8.405  20.199  0.00  0.00    +0.000 C 
BRANCH  11  12
ATOM     12  S   UNL     1       0.750   9.996  19.885  0.00  0.00    +0.000 S 
BRANCH  12  13
ATOM     13  C   UNL     1       0.565  10.619  21.603  0.00  0.00    +0.000 C 
BRANCH  13  14
ATOM     14  C   UNL     1      -0.797  11.257  21.749  0.00  0.00    +0.000 A 
ATOM     15  C   UNL     1      -1.400  11.899  20.656  0.00  0.00    +0.000 A 
ATOM     16  C   UNL     1      -2.586  12.617  20.821  0.00  0.00    +0.000 A 
ATOM     17  C   UNL     1      -3.187  12.694  22.075  0.00  0.00    +0.000 A 
ATOM     18  C   UNL     1      -2.615  12.034  23.162  0.00  0.00    +0.000 A 
ATOM     19  C   UNL     1      -1.428  11.316  23.000  0.00  0.00    +0.000 A 
ENDBRANCH  13  14
ENDBRANCH  12  13
ENDBRANCH  11  12
ENDBRANCH   8  11
ENDBRANCH   3   7
BRANCH   1  21
ATOM     20  C   UNL     1       7.560   7.324  17.434  0.00  0.00    +0.000 C 
ATOM     21  O   UNL     1       6.940   6.472  16.469  0.00  0.00    +0.000 OA
ENDBRANCH   1  21
BRANCH   4  22
ATOM     22  C   UNL     1       2.110   4.006  18.129  0.00  0.00    +0.000 C 
ATOM     23  O   UNL     1       1.987   3.532  19.244  0.00  0.00    +0.000 OA
BRANCH  22  24
ATOM     24  O   UNL     1       1.148   3.899  17.187  0.00  0.00    +0.000 OA
ATOM     25  H   UNL     1       0.675   4.719  16.954  0.00  0.00    +0.000 HD
ENDBRANCH  22  24
ENDBRANCH   4  22
BRANCH   6  26
ATOM     26  O   UNL     1       6.139   3.798  15.541  0.00  0.00    +0.000 OA
ATOM     27  C   UNL     1       6.118   4.040  14.142  0.00  0.00    +0.000 C 
ENDBRANCH   6  26
TORSDOF 9
ENDMDL
MODEL 4
REMARK VINA RESULT:      -6.8      4.948      7.550
REMARK  Name = 
REMARK  11 active torsions:
REMARK  status: ('A' for Active; 'I' for Inactive)
REMARK    1  A    between atoms: C_1  and  O_2
REMARK    2  A    between atoms: O_2  and  C_3
REMARK    3  A    between atoms: C_5  and  N_6
REMARK    4  A    between atoms: C_7  and  C_9
REMARK    5  A    between atoms: C_9  and  S_10
REMARK    6  A    between atoms: S_10  and  C_11
REMARK    7  A    between atoms: C_11  and  C_12
REMARK    8  A    between atoms: C_18  and  C_19
REMARK    9  A    between atoms: C_19  and  O_21
REMARK   10  A    between atoms: C_23  and  O_24
REMARK   11  A    between atoms: O_24  and  C_25
REMARK                            x       y       z     vdW  Elec       q    Type
REMARK                         _______ _______ _______ _____ _____    ______ ____
ROOT
ATOM      1  C   UNL     1       5.495   6.271  16.827  0.00  0.00    +0.000 A 
ATOM      2  C   UNL     1       4.489   7.031  17.443  0.00  0.00    +0.000 A 
ATOM      3  C   UNL     1       3.307   6.466  17.930  0.00  0.00    +0.000 A 
ATOM      4  C   UNL     1       3.096   5.090  17.714  0.00  0.00    +0.000 A 
ATOM      5  C   UNL     1       4.056   4.343  17.007  0.00  0.00    +0.000 A 
ATOM      6  C   UNL     1       5.267   4.913  16.585  0.00  0.00    +0.000 A 
ENDROOT
BRANCH   3   7
ATOM      7  N   UNL     1       2.382   7.243  18.683  0.00  0.00    +0.000 N 
ATOM      8  C   UNL     1       1.936   8.525  18.397  0.00  0.00    +0.000 C 
ATOM      9  O   UNL     1       2.137   9.148  17.356  0.00  0.00    +0.000 OA
ATOM     10  H   UNL     1       1.989   6.791  19.513  0.00  0.00    +0.000 HD
BRANCH   8  11
ATOM     11  C   UNL     1       1.151   9.184  19.513  0.00  0.00    +0.000 C 
BRANCH  11  12
ATOM     12  S   UNL     1       0.030  10.459  18.868  0.00  0.00    +0.000 S 
BRANCH  12  13
ATOM     13  C   UNL     1       0.467  11.870  19.961  0.00  0.00    +0.000 C 
BRANCH  13  14
ATOM     14  C   UNL     1      -0.629  12.055  20.985  0.00  0.00    +0.000 A 
ATOM     15  C   UNL     1      -0.535  11.441  22.243  0.00  0.00    +0.000 A 
ATOM     16  C   UNL     1      -1.608  11.482  23.135  0.00  0.00    +0.000 A 
ATOM     17  C   UNL     1      -2.782  12.146  22.785  0.00  0.00    +0.000 A 
ATOM     18  C   UNL     1      -2.877  12.788  21.550  0.00  0.00    +0.000 A 
ATOM     19  C   UNL     1      -1.805  12.745  20.656  0.00  0.00    +0.000 A 
ENDBRANCH  13  14
ENDBRANCH  12  13
ENDBRANCH  11  12
ENDBRANCH   8  11
ENDBRANCH   3   7
BRANCH   1  21
ATOM     20  C   UNL     1       7.624   7.103  17.491  0.00  0.00    +0.000 C 
ATOM     21  O   UNL     1       6.683   6.840  16.449  0.00  0.00    +0.000 OA
ENDBRANCH   1  21
BRANCH   4  22
ATOM     22  C   UNL     1       1.846   4.435  18.178  0.00  0.00    +0.000 C 
ATOM     23  O   UNL     1       1.070   3.899  17.407  0.00  0.00    +0.000 OA
BRANCH  22  24
ATOM     24  O   UNL     1       1.599   4.533  19.502  0.00  0.00    +0.000 OA
ATOM     25  H   UNL     1       1.388   5.423  19.839  0.00  0.00    +0.000 HD
ENDBRANCH  22  24
ENDBRANCH   4  22
BRANCH   6  26
ATOM     26  O   UNL     1       6.088   3.996  15.988  0.00  0.00    +0.000 OA
ATOM     27  C   UNL     1       6.202   3.995  14.573  0.00  0.00    +0.000 C 
ENDBRANCH   6  26
TORSDOF 9
ENDMDL
MODEL 5
REMARK VINA RESULT:      -6.7      4.325      7.093
REMARK  Name = 
REMARK  11 active torsions:
REMARK  status: ('A' for Active; 'I' for Inactive)
REMARK    1  A    between atoms: C_1  and  O_2
REMARK    2  A    between atoms: O_2  and  C_3
REMARK    3  A    between atoms: C_5  and  N_6
REMARK    4  A    between atoms: C_7  and  C_9
REMARK    5  A    between atoms: C_9  and  S_10
REMARK    6  A    between atoms: S_10  and  C_11
REMARK    7  A    between atoms: C_11  and  C_12
REMARK    8  A    between atoms: C_18  and  C_19
REMARK    9  A    between atoms: C_19  and  O_21
REMARK   10  A    between atoms: C_23  and  O_24
REMARK   11  A    between atoms: O_24  and  C_25
REMARK                            x       y       z     vdW  Elec       q    Type
REMARK                         _______ _______ _______ _____ _____    ______ ____
ROOT
ATOM      1  C   UNL     1       5.722   6.154  16.831  0.00  0.00    +0.000 A 
ATOM      2  C   UNL     1       4.709   6.902  17.450  0.00  0.00    +0.000 A 
ATOM      3  C   UNL     1       3.510   6.332  17.887  0.00  0.00    +0.000 A 
ATOM      4  C   UNL     1       3.289   4.968  17.613  0.00  0.00    +0.000 A 
ATOM      5  C   UNL     1       4.258   4.237  16.902  0.00  0.00    +0.000 A 
ATOM      6  C   UNL     1       5.485   4.809  16.531  0.00  0.00    +0.000 A 
ENDROOT
BRANCH   3   7
ATOM      7  N   UNL     1       2.575   7.091  18.648  0.00  0.00    +0.000 N 
ATOM      8  C   UNL     1       2.071   8.347  18.344  0.00  0.00    +0.000 C 
ATOM      9  O   UNL     1       2.220   8.952  17.284  0.00  0.00    +0.000 OA
ATOM     10  H   UNL     1       2.222   6.643  19.497  0.00  0.00    +0.000 HD
BRANCH   8  11
ATOM     11  C   UNL     1       1.291   9.002  19.466  0.00  0.00    +0.000 C 
BRANCH  11  12
ATOM     12  S   UNL     1       1.218   7.932  20.932  0.00  0.00    +0.000 S 
BRANCH  12  13
ATOM     13  C   UNL     1       1.483   9.172  22.262  0.00  0.00    +0.000 C 
BRANCH  13  14
ATOM     14  C   UNL     1       0.358  10.180  22.224  0.00  0.00    +0.000 A 
ATOM     15  C   UNL     1       0.435  11.298  21.380  0.00  0.00    +0.000 A 
ATOM     16  C   UNL     1      -0.527  12.308  21.448  0.00  0.00    +0.000 A 
ATOM     17  C   UNL     1      -1.580  12.207  22.354  0.00  0.00    +0.000 A 
ATOM     18  C   UNL     1      -1.687  11.085  23.176  0.00  0.00    +0.000 A 
ATOM     19  C   UNL     1      -0.725  10.076  23.110  0.00  0.00    +0.000 A 
ENDBRANCH  13  14
ENDBRANCH  12  13
ENDBRANCH  11  12
ENDBRANCH   8  11
ENDBRANCH   3   7
BRANCH   1  21
ATOM     20  C   UNL     1       7.571   7.479  17.527  0.00  0.00    +0.000 C 
ATOM     21  O   UNL     1       6.924   6.723  16.503  0.00  0.00    +0.000 OA
ENDBRANCH   1  21
BRANCH   4  22
ATOM     22  C   UNL     1       2.022   4.310  18.022  0.00  0.00    +0.000 C 
ATOM     23  O   UNL     1       1.030   4.316  17.314  0.00  0.00    +0.000 OA
BRANCH  22  24
ATOM     24  O   UNL     1       2.025   3.764  19.258  0.00  0.00    +0.000 OA
ATOM     25  H   UNL     1       1.154   3.613  19.667  0.00  0.00    +0.000 HD
ENDBRANCH  22  24
ENDBRANCH   4  22
BRANCH   6  26
ATOM     26  O   UNL     1       6.310   3.906  15.919  0.00  0.00    +0.000 OA
ATOM     27  C   UNL     1       6.378   3.889  14.500  0.00  0.00    +0.000 C 
ENDBRANCH   6  26
TORSDOF 9
ENDMDL
MODEL 6
REMARK VINA RESULT:      -6.7      1.968      3.306
REMARK  Name = 
REMARK  11 active torsions:
REMARK  status: ('A' for Active; 'I' for Inactive)
REMARK    1  A    between atoms: C_1  and  O_2
REMARK    2  A    between atoms: O_2  and  C_3
REMARK    3  A    between atoms: C_5  and  N_6
REMARK    4  A    between atoms: C_7  and  C_9
REMARK    5  A    between atoms: C_9  and  S_10
REMARK    6  A    between atoms: S_10  and  C_11
REMARK    7  A    between atoms: C_11  and  C_12
REMARK    8  A    between atoms: C_18  and  C_19
REMARK    9  A    between atoms: C_19  and  O_21
REMARK   10  A    between atoms: C_23  and  O_24
REMARK   11  A    between atoms: O_24  and  C_25
REMARK                            x       y       z     vdW  Elec       q    Type
REMARK                         _______ _______ _______ _____ _____    ______ ____
ROOT
ATOM      1  C   UNL     1       3.528   3.026  17.959  0.00  0.00    +0.000 A 
ATOM      2  C   UNL     1       4.647   3.871  18.011  0.00  0.00    +0.000 A 
ATOM      3  C   UNL     1       4.541   5.259  18.134  0.00  0.00    +0.000 A 
ATOM      4  C   UNL     1       3.251   5.826  18.120  0.00  0.00    +0.000 A 
ATOM      5  C   UNL     1       2.128   4.992  17.966  0.00  0.00    +0.000 A 
ATOM      6  C   UNL     1       2.251   3.595  17.912  0.00  0.00    +0.000 A 
ENDROOT
BRANCH   3   7
ATOM      7  N   UNL     1       5.697   6.065  18.339  0.00  0.00    +0.000 N 
ATOM      8  C   UNL     1       6.511   6.625  17.365  0.00  0.00    +0.000 C 
ATOM      9  O   UNL     1       6.281   6.658  16.158  0.00  0.00    +0.000 OA
ATOM     10  H   UNL     1       5.933   6.269  19.313  0.00  0.00    +0.000 HD
BRANCH   8  11
ATOM     11  C   UNL     1       7.803   7.218  17.888  0.00  0.00    +0.000 C 
BRANCH  11  12
ATOM     12  S   UNL     1       7.849   9.018  17.649  0.00  0.00    +0.000 S 
BRANCH  12  13
ATOM     13  C   UNL     1       9.010   9.502  18.988  0.00  0.00    +0.000 C 
BRANCH  13  14
ATOM     14  C   UNL     1       9.504  10.906  18.724  0.00  0.00    +0.000 A 
ATOM     15  C   UNL     1       8.780  11.766  17.884  0.00  0.00    +0.000 A 
ATOM     16  C   UNL     1       9.304  13.007  17.516  0.00  0.00    +0.000 A 
ATOM     17  C   UNL     1      10.552  13.405  17.990  0.00  0.00    +0.000 A 
ATOM     18  C   UNL     1      11.268  12.573  18.850  0.00  0.00    +0.000 A 
ATOM     19  C   UNL     1      10.746  11.331  19.217  0.00  0.00    +0.000 A 
ENDBRANCH  13  14
ENDBRANCH  12  13
ENDBRANCH  11  12
ENDBRANCH   8  11
ENDBRANCH   3   7
BRANCH   1  21
ATOM     20  C   UNL     1       4.220   1.061  19.109  0.00  0.00    +0.000 C 
ATOM     21  O   UNL     1       3.667   1.664  17.937  0.00  0.00    +0.000 OA
ENDBRANCH   1  21
BRANCH   4  22
ATOM     22  C   UNL     1       3.071   7.297  18.215  0.00  0.00    +0.000 C 
ATOM     23  O   UNL     1       2.434   7.816  19.114  0.00  0.00    +0.000 OA
BRANCH  22  24
ATOM     24  O   UNL     1       3.604   8.011  17.200  0.00  0.00    +0.000 OA
ATOM     25  H   UNL     1       3.554   8.981  17.279  0.00  0.00    +0.000 HD
ENDBRANCH  22  24
ENDBRANCH   4  22
BRANCH   6  26
ATOM     26  O   UNL     1       1.035   2.974  17.839  0.00  0.00    +0.000 OA
ATOM     27  C   UNL     1       0.498   2.374  19.009  0.00  0.00    +0.000 C 
ENDBRANCH   6  26
TORSDOF 9
ENDMDL
MODEL 7
REMARK VINA RESULT:      -6.7      6.148      8.228
REMARK  Name = 
REMARK  11 active torsions:
REMARK  status: ('A' for Active; 'I' for Inactive)
REMARK    1  A    between atoms: C_1  and  O_2
REMARK    2  A    between atoms: O_2  and  C_3
REMARK    3  A    between atoms: C_5  and  N_6
REMARK    4  A    between atoms: C_7  and  C_9
REMARK    5  A    between atoms: C_9  and  S_10
REMARK    6  A    between atoms: S_10  and  C_11
REMARK    7  A    between atoms: C_11  and  C_12
REMARK    8  A    between atoms: C_18  and  C_19
REMARK    9  A    between atoms: C_19  and  O_21
REMARK   10  A    between atoms: C_23  and  O_24
REMARK   11  A    between atoms: O_24  and  C_25
REMARK                            x       y       z     vdW  Elec       q    Type
REMARK                         _______ _______ _______ _____ _____    ______ ____
ROOT
ATOM      1  C   UNL     1       1.446   4.044  19.925  0.00  0.00    +0.000 A 
ATOM      2  C   UNL     1       1.557   5.227  20.671  0.00  0.00    +0.000 A 
ATOM      3  C   UNL     1       1.906   6.452  20.096  0.00  0.00    +0.000 A 
ATOM      4  C   UNL     1       2.237   6.468  18.727  0.00  0.00    +0.000 A 
ATOM      5  C   UNL     1       2.226   5.266  17.996  0.00  0.00    +0.000 A 
ATOM      6  C   UNL     1       1.808   4.058  18.575  0.00  0.00    +0.000 A 
ENDROOT
BRANCH   3   7
ATOM      7  N   UNL     1       1.857   7.656  20.856  0.00  0.00    +0.000 N 
ATOM      8  C   UNL     1       0.725   8.297  21.339  0.00  0.00    +0.000 C 
ATOM      9  O   UNL     1      -0.420   7.849  21.334  0.00  0.00    +0.000 OA
ATOM     10  H   UNL     1       2.761   8.075  21.088  0.00  0.00    +0.000 HD
BRANCH   8  11
ATOM     11  C   UNL     1       0.974   9.685  21.892  0.00  0.00    +0.000 C 
BRANCH  11  12
ATOM     12  S   UNL     1      -0.388  10.222  22.967  0.00  0.00    +0.000 S 
BRANCH  12  13
ATOM     13  C   UNL     1      -1.173  11.493  21.898  0.00  0.00    +0.000 C 
BRANCH  13  14
ATOM     14  C   UNL     1      -1.867  12.510  22.775  0.00  0.00    +0.000 A 
ATOM     15  C   UNL     1      -1.180  13.651  23.217  0.00  0.00    +0.000 A 
ATOM     16  C   UNL     1      -1.763  14.515  24.146  0.00  0.00    +0.000 A 
ATOM     17  C   UNL     1      -3.041  14.254  24.636  0.00  0.00    +0.000 A 
ATOM     18  C   UNL     1      -3.747  13.141  24.181  0.00  0.00    +0.000 A 
ATOM     19  C   UNL     1      -3.165  12.275  23.253  0.00  0.00    +0.000 A 
ENDBRANCH  13  14
ENDBRANCH  12  13
ENDBRANCH  11  12
ENDBRANCH   8  11
ENDBRANCH   3   7
BRANCH   1  21
ATOM     20  C   UNL     1       1.610   2.517  21.743  0.00  0.00    +0.000 C 
ATOM     21  O   UNL     1       1.007   2.881  20.500  0.00  0.00    +0.000 OA
ENDBRANCH   1  21
BRANCH   4  22
ATOM     22  C   UNL     1       2.648   7.731  18.063  0.00  0.00    +0.000 C 
ATOM     23  O   UNL     1       3.771   7.897  17.622  0.00  0.00    +0.000 OA
BRANCH  22  24
ATOM     24  O   UNL     1       1.711   8.705  18.042  0.00  0.00    +0.000 OA
ATOM     25  H   UNL     1       0.798   8.433  18.249  0.00  0.00    +0.000 HD
ENDBRANCH  22  24
ENDBRANCH   4  22
BRANCH   6  26
ATOM     26  O   UNL     1       1.800   3.030  17.672  0.00  0.00    +0.000 OA
ATOM     27  C   UNL     1       2.866   2.092  17.688  0.00  0.00    +0.000 C 
ENDBRANCH   6  26
TORSDOF 9
ENDMDL
MODEL 8
REMARK VINA RESULT:      -6.6      0.982      1.477
REMARK  Name = 
REMARK  11 active torsions:
REMARK  status: ('A' for Active; 'I' for Inactive)
REMARK    1  A    between atoms: C_1  and  O_2
REMARK    2  A    between atoms: O_2  and  C_3
REMARK    3  A    between atoms: C_5  and  N_6
REMARK    4  A    between atoms: C_7  and  C_9
REMARK    5  A    between atoms: C_9  and  S_10
REMARK    6  A    between atoms: S_10  and  C_11
REMARK    7  A    between atoms: C_11  and  C_12
REMARK    8  A    between atoms: C_18  and  C_19
REMARK    9  A    between atoms: C_19  and  O_21
REMARK   10  A    between atoms: C_23  and  O_24
REMARK   11  A    between atoms: O_24  and  C_25
REMARK                            x       y       z     vdW  Elec       q    Type
REMARK                         _______ _______ _______ _____ _____    ______ ____
ROOT
ATOM      1  C   UNL     1       3.967   4.666  19.052  0.00  0.00    +0.000 A 
ATOM      2  C   UNL     1       4.870   5.708  18.790  0.00  0.00    +0.000 A 
ATOM      3  C   UNL     1       5.514   5.858  17.559  0.00  0.00    +0.000 A 
ATOM      4  C   UNL     1       5.301   4.868  16.579  0.00  0.00    +0.000 A 
ATOM      5  C   UNL     1       4.477   3.767  16.872  0.00  0.00    +0.000 A 
ATOM      6  C   UNL     1       3.786   3.669  18.089  0.00  0.00    +0.000 A 
ENDROOT
BRANCH   3   7
ATOM      7  N   UNL     1       6.300   7.012  17.281  0.00  0.00    +0.000 N 
ATOM      8  C   UNL     1       7.473   7.399  17.914  0.00  0.00    +0.000 C 
ATOM      9  O   UNL     1       8.122   6.726  18.713  0.00  0.00    +0.000 OA
ATOM     10  H   UNL     1       5.972   7.603  16.513  0.00  0.00    +0.000 HD
BRANCH   8  11
ATOM     11  C   UNL     1       7.943   8.798  17.572  0.00  0.00    +0.000 C 
BRANCH  11  12
ATOM     12  S   UNL     1       8.935   9.509  18.917  0.00  0.00    +0.000 S 
BRANCH  12  13
ATOM     13  C   UNL     1       9.340  11.151  18.199  0.00  0.00    +0.000 C 
BRANCH  13  14
ATOM     14  C   UNL     1       9.727  12.092  19.316  0.00  0.00    +0.000 A 
ATOM     15  C   UNL     1       9.524  11.724  20.655  0.00  0.00    +0.000 A 
ATOM     16  C   UNL     1       9.738  12.644  21.684  0.00  0.00    +0.000 A 
ATOM     17  C   UNL     1      10.165  13.936  21.387  0.00  0.00    +0.000 A 
ATOM     18  C   UNL     1      10.401  14.304  20.063  0.00  0.00    +0.000 A 
ATOM     19  C   UNL     1      10.186  13.387  19.033  0.00  0.00    +0.000 A 
ENDBRANCH  13  14
ENDBRANCH  12  13
ENDBRANCH  11  12
ENDBRANCH   8  11
ENDBRANCH   3   7
BRANCH   1  21
ATOM     20  C   UNL     1       1.948   5.122  20.225  0.00  0.00    +0.000 C 
ATOM     21  O   UNL     1       3.279   4.604  20.235  0.00  0.00    +0.000 OA
ENDBRANCH   1  21
BRANCH   4  22
ATOM     22  C   UNL     1       5.981   4.951  15.261  0.00  0.00    +0.000 C 
ATOM     23  O   UNL     1       6.629   4.026  14.806  0.00  0.00    +0.000 OA
BRANCH  22  24
ATOM     24  O   UNL     1       5.886   6.145  14.635  0.00  0.00    +0.000 OA
ATOM     25  H   UNL     1       5.196   6.751  14.961  0.00  0.00    +0.000 HD
ENDBRANCH  22  24
ENDBRANCH   4  22
BRANCH   6  26
ATOM     26  O   UNL     1       2.983   2.562  18.138  0.00  0.00    +0.000 OA
ATOM     27  C   UNL     1       3.507   1.356  18.672  0.00  0.00    +0.000 C 
ENDBRANCH   6  26
TORSDOF 9
ENDMDL
MODEL 9
REMARK VINA RESULT:      -6.6      4.344      7.340
REMARK  Name = 
REMARK  11 active torsions:
REMARK  status: ('A' for Active; 'I' for Inactive)
REMARK    1  A    between atoms: C_1  and  O_2
REMARK    2  A    between atoms: O_2  and  C_3
REMARK    3  A    between atoms: C_5  and  N_6
REMARK    4  A    between atoms: C_7  and  C_9
REMARK    5  A    between atoms: C_9  and  S_10
REMARK    6  A    between atoms: S_10  and  C_11
REMARK    7  A    between atoms: C_11  and  C_12
REMARK    8  A    between atoms: C_18  and  C_19
REMARK    9  A    between atoms: C_19  and  O_21
REMARK   10  A    between atoms: C_23  and  O_24
REMARK   11  A    between atoms: O_24  and  C_25
REMARK                            x       y       z     vdW  Elec       q    Type
REMARK                         _______ _______ _______ _____ _____    ______ ____
ROOT
ATOM      1  C   UNL     1       5.730   6.182  16.869  0.00  0.00    +0.000 A 
ATOM      2  C   UNL     1       4.749   6.980  17.478  0.00  0.00    +0.000 A 
ATOM      3  C   UNL     1       3.526   6.468  17.920  0.00  0.00    +0.000 A 
ATOM      4  C   UNL     1       3.247   5.111  17.661  0.00  0.00    +0.000 A 
ATOM      5  C   UNL     1       4.185   4.331  16.961  0.00  0.00    +0.000 A 
ATOM      6  C   UNL     1       5.435   4.845  16.585  0.00  0.00    +0.000 A 
ENDROOT
BRANCH   3   7
ATOM      7  N   UNL     1       2.624   7.275  18.670  0.00  0.00    +0.000 N 
ATOM      8  C   UNL     1       2.083   8.497  18.295  0.00  0.00    +0.000 C 
ATOM      9  O   UNL     1       2.161   9.015  17.183  0.00  0.00    +0.000 OA
ATOM     10  H   UNL     1       2.327   6.895  19.572  0.00  0.00    +0.000 HD
BRANCH   8  11
ATOM     11  C   UNL     1       1.358   9.232  19.404  0.00  0.00    +0.000 C 
BRANCH  11  12
ATOM     12  S   UNL     1       1.404   8.295  20.959  0.00  0.00    +0.000 S 
BRANCH  12  13
ATOM     13  C   UNL     1      -0.334   8.495  21.520  0.00  0.00    +0.000 C 
BRANCH  13  14
ATOM     14  C   UNL     1      -0.629   9.968  21.685  0.00  0.00    +0.000 A 
ATOM     15  C   UNL     1      -0.843  10.509  22.962  0.00  0.00    +0.000 A 
ATOM     16  C   UNL     1      -1.263  11.832  23.112  0.00  0.00    +0.000 A 
ATOM     17  C   UNL     1      -1.463  12.631  21.989  0.00  0.00    +0.000 A 
ATOM     18  C   UNL     1      -1.222  12.116  20.716  0.00  0.00    +0.000 A 
ATOM     19  C   UNL     1      -0.804  10.792  20.564  0.00  0.00    +0.000 A 
ENDBRANCH  13  14
ENDBRANCH  12  13
ENDBRANCH  11  12
ENDBRANCH   8  11
ENDBRANCH   3   7
BRANCH   1  21
ATOM     20  C   UNL     1       7.595   7.508  17.522  0.00  0.00    +0.000 C 
ATOM     21  O   UNL     1       6.956   6.694  16.537  0.00  0.00    +0.000 OA
ENDBRANCH   1  21
BRANCH   4  22
ATOM     22  C   UNL     1       1.952   4.514  18.076  0.00  0.00    +0.000 C 
ATOM     23  O   UNL     1       1.166   4.047  17.271  0.00  0.00    +0.000 OA
BRANCH  22  24
ATOM     24  O   UNL     1       1.679   4.584  19.397  0.00  0.00    +0.000 OA
ATOM     25  H   UNL     1       1.034   5.261  19.671  0.00  0.00    +0.000 HD
ENDBRANCH  22  24
ENDBRANCH   4  22
BRANCH   6  26
ATOM     26  O   UNL     1       6.222   3.900  15.985  0.00  0.00    +0.000 OA
ATOM     27  C   UNL     1       6.237   3.818  14.567  0.00  0.00    +0.000 C 
ENDBRANCH   6  26
TORSDOF 9
ENDMDL
