MODEL 1
REMARK VINA RESULT:      -8.3      0.000      0.000
REMARK  Name = 
REMARK  10 active torsions:
REMARK  status: ('A' for Active; 'I' for Inactive)
REMARK    1  A    between atoms: C_2  and  O_3
REMARK    2  A    between atoms: C_2  and  C_21
REMARK    3  A    between atoms: O_3  and  C_4
REMARK    4  A    between atoms: C_4  and  C_5
REMARK    5  A    between atoms: C_5  and  C_6
REMARK    6  A    between atoms: C_6  and  C_7
REMARK    7  A    between atoms: C_7  and  C_8
REMARK    8  A    between atoms: C_8  and  N_9
REMARK    9  A    between atoms: C_12  and  C_13
REMARK   10  A    between atoms: C_21  and  C_22
REMARK                            x       y       z     vdW  Elec       q    Type
REMARK                         _______ _______ _______ _____ _____    ______ ____
ROOT
ATOM      1  C   UNL     1       7.949   7.105  17.514  0.00  0.00    +0.000 C 
ENDROOT
BRANCH   1   2
ATOM      2  C   UNL     1       7.976   6.342  18.836  0.00  0.00    +0.000 C 
BRANCH   2   3
ATOM      3  O   UNL     1       7.267   5.096  18.740  0.00  0.00    +0.000 OA
BRANCH   3   5
ATOM      4  O   UNL     1       5.274   5.500  19.799  0.00  0.00    +0.000 OA
ATOM      5  C   UNL     1       5.908   5.174  18.796  0.00  0.00    +0.000 C 
BRANCH   5   6
ATOM      6  C   UNL     1       5.254   4.764  17.460  0.00  0.00    +0.000 C 
ATOM      7  C   UNL     1       5.125   6.047  16.603  0.00  0.00    +0.000 C 
ATOM      8  C   UNL     1       5.068   5.583  15.152  0.00  0.00    +0.000 C 
ATOM      9  C   UNL     1       5.806   4.252  15.116  0.00  0.00    +0.000 C 
ATOM     10  C   UNL     1       6.211   3.947  16.558  0.00  0.00    +0.000 C 
BRANCH   6  11
ATOM     11  C   UNL     1       3.950   4.000  17.749  0.00  0.00    +0.000 A 
ATOM     12  C   UNL     1       3.896   2.610  17.937  0.00  0.00    +0.000 A 
ATOM     13  C   UNL     1       2.677   1.950  18.126  0.00  0.00    +0.000 A 
ATOM     14  C   UNL     1       1.483   2.664  18.131  0.00  0.00    +0.000 A 
ATOM     15  C   UNL     1       1.509   4.045  17.961  0.00  0.00    +0.000 A 
ATOM     16  C   UNL     1       2.728   4.703  17.775  0.00  0.00    +0.000 A 
ENDBRANCH   6  11
ENDBRANCH   5   6
ENDBRANCH   3   5
ENDBRANCH   2   3
ENDBRANCH   1   2
BRANCH   1  17
ATOM     17  C   UNL     1       7.762   8.609  17.722  0.00  0.00    +0.000 C 
BRANCH  17  18
ATOM     18  C   UNL     1       8.811   9.203  18.665  0.00  0.00    +0.000 C 
BRANCH  18  19
ATOM     19  C   UNL     1       9.045  10.709  18.470  0.00  0.00    +0.000 C 
BRANCH  19  20
ATOM     20  N   UNL     1       9.957  11.309  19.469  0.00  0.00    +0.000 NA
ATOM     21  C   UNL     1      11.271  11.571  18.865  0.00  0.00    +0.000 C 
ATOM     22  C   UNL     1      12.212  12.397  19.745  0.00  0.00    +0.000 C 
ATOM     23  C   UNL     1      11.571  13.707  20.229  0.00  0.00    +0.000 C 
ATOM     24  C   UNL     1      10.258  13.325  20.934  0.00  0.00    +0.000 C 
ATOM     25  C   UNL     1       9.330  12.518  20.026  0.00  0.00    +0.000 C 
BRANCH  23  26
ATOM     26  C   UNL     1      11.424  14.814  19.183  0.00  0.00    +0.000 A 
ATOM     27  C   UNL     1      12.209  14.880  18.020  0.00  0.00    +0.000 A 
ATOM     28  C   UNL     1      12.073  15.924  17.102  0.00  0.00    +0.000 A 
ATOM     29  C   UNL     1      11.165  16.947  17.342  0.00  0.00    +0.000 A 
ATOM     30  C   UNL     1      10.391  16.920  18.498  0.00  0.00    +0.000 A 
ATOM     31  C   UNL     1      10.518  15.864  19.408  0.00  0.00    +0.000 A 
ENDBRANCH  23  26
ENDBRANCH  19  20
ENDBRANCH  18  19
ENDBRANCH  17  18
ENDBRANCH   1  17
TORSDOF 10
ENDMDL
MODEL 2
REMARK VINA RESULT:      -8.1      1.701      2.809
REMARK  Name = 
REMARK  10 active torsions:
REMARK  status: ('A' for Active; 'I' for Inactive)
REMARK    1  A    between atoms: C_2  and  O_3
REMARK    2  A    between atoms: C_2  and  C_21
REMARK    3  A    between atoms: O_3  and  C_4
REMARK    4  A    between atoms: C_4  and  C_5
REMARK    5  A    between atoms: C_5  and  C_6
REMARK    6  A    between atoms: C_6  and  C_7
REMARK    7  A    between atoms: C_7  and  C_8
REMARK    8  A    between atoms: C_8  and  N_9
REMARK    9  A    between atoms: C_12  and  C_13
REMARK   10  A    between atoms: C_21  and  C_22
REMARK                            x       y       z     vdW  Elec       q    Type
REMARK                         _______ _______ _______ _____ _____    ______ ____
ROOT
ATOM      1  C   UNL     1       6.778   7.257  17.516  0.00  0.00    +0.000 C 
ENDROOT
BRANCH   1   2
ATOM      2  C   UNL     1       7.276   5.820  17.375  0.00  0.00    +0.000 C 
BRANCH   2   3
ATOM      3  O   UNL     1       6.204   4.874  17.510  0.00  0.00    +0.000 OA
BRANCH   3   5
ATOM      4  O   UNL     1       6.145   4.952  19.800  0.00  0.00    +0.000 OA
ATOM      5  C   UNL     1       5.571   4.853  18.716  0.00  0.00    +0.000 C 
BRANCH   5   6
ATOM      6  C   UNL     1       4.049   4.650  18.564  0.00  0.00    +0.000 C 
ATOM      7  C   UNL     1       3.819   3.919  17.219  0.00  0.00    +0.000 C 
ATOM      8  C   UNL     1       2.478   3.207  17.349  0.00  0.00    +0.000 C 
ATOM      9  C   UNL     1       2.290   2.951  18.838  0.00  0.00    +0.000 C 
ATOM     10  C   UNL     1       3.494   3.582  19.537  0.00  0.00    +0.000 C 
BRANCH   6  11
ATOM     11  C   UNL     1       3.339   6.004  18.737  0.00  0.00    +0.000 A 
ATOM     12  C   UNL     1       2.626   6.360  19.892  0.00  0.00    +0.000 A 
ATOM     13  C   UNL     1       1.937   7.574  19.975  0.00  0.00    +0.000 A 
ATOM     14  C   UNL     1       1.943   8.462  18.905  0.00  0.00    +0.000 A 
ATOM     15  C   UNL     1       2.654   8.142  17.753  0.00  0.00    +0.000 A 
ATOM     16  C   UNL     1       3.345   6.929  17.672  0.00  0.00    +0.000 A 
ENDBRANCH   6  11
ENDBRANCH   5   6
ENDBRANCH   3   5
ENDBRANCH   2   3
ENDBRANCH   1   2
BRANCH   1  17
ATOM     17  C   UNL     1       7.890   8.278  17.270  0.00  0.00    +0.000 C 
BRANCH  17  18
ATOM     18  C   UNL     1       8.620   8.668  18.557  0.00  0.00    +0.000 C 
BRANCH  18  19
ATOM     19  C   UNL     1       8.679  10.183  18.808  0.00  0.00    +0.000 C 
BRANCH  19  20
ATOM     20  N   UNL     1      10.051  10.711  18.975  0.00  0.00    +0.000 NA
ATOM     21  C   UNL     1      10.468  11.436  17.767  0.00  0.00    +0.000 C 
ATOM     22  C   UNL     1      11.778  12.212  17.924  0.00  0.00    +0.000 C 
ATOM     23  C   UNL     1      11.767  13.153  19.138  0.00  0.00    +0.000 C 
ATOM     24  C   UNL     1      11.421  12.290  20.364  0.00  0.00    +0.000 C 
ATOM     25  C   UNL     1      10.100  11.541  20.189  0.00  0.00    +0.000 C 
BRANCH  23  26
ATOM     26  C   UNL     1      10.920  14.420  19.003  0.00  0.00    +0.000 A 
ATOM     27  C   UNL     1      10.178  14.963  20.065  0.00  0.00    +0.000 A 
ATOM     28  C   UNL     1       9.387  16.103  19.900  0.00  0.00    +0.000 A 
ATOM     29  C   UNL     1       9.296  16.711  18.655  0.00  0.00    +0.000 A 
ATOM     30  C   UNL     1      10.002  16.181  17.579  0.00  0.00    +0.000 A 
ATOM     31  C   UNL     1      10.806  15.049  17.752  0.00  0.00    +0.000 A 
ENDBRANCH  23  26
ENDBRANCH  19  20
ENDBRANCH  18  19
ENDBRANCH  17  18
ENDBRANCH   1  17
TORSDOF 10
ENDMDL
MODEL 3
REMARK VINA RESULT:      -8.0      1.951      3.235
REMARK  Name = 
REMARK  10 active torsions:
REMARK  status: ('A' for Active; 'I' for Inactive)
REMARK    1  A    between atoms: C_2  and  O_3
REMARK    2  A    between atoms: C_2  and  C_21
REMARK    3  A    between atoms: O_3  and  C_4
REMARK    4  A    between atoms: C_4  and  C_5
REMARK    5  A    between atoms: C_5  and  C_6
REMARK    6  A    between atoms: C_6  and  C_7
REMARK    7  A    between atoms: C_7  and  C_8
REMARK    8  A    between atoms: C_8  and  N_9
REMARK    9  A    between atoms: C_12  and  C_13
REMARK   10  A    between atoms: C_21  and  C_22
REMARK                            x       y       z     vdW  Elec       q    Type
REMARK                         _______ _______ _______ _____ _____    ______ ____
ROOT
ATOM      1  C   UNL     1       7.375   6.120  17.563  0.00  0.00    +0.000 C 
ENDROOT
BRANCH   1   2
ATOM      2  C   UNL     1       6.487   5.822  18.769  0.00  0.00    +0.000 C 
BRANCH   2   3
ATOM      3  O   UNL     1       5.166   5.427  18.367  0.00  0.00    +0.000 OA
BRANCH   3   5
ATOM      4  O   UNL     1       5.252   3.487  19.585  0.00  0.00    +0.000 OA
ATOM      5  C   UNL     1       4.608   4.398  19.065  0.00  0.00    +0.000 C 
BRANCH   5   6
ATOM      6  C   UNL     1       3.069   4.490  19.092  0.00  0.00    +0.000 C 
ATOM      7  C   UNL     1       2.541   3.660  17.897  0.00  0.00    +0.000 C 
ATOM      8  C   UNL     1       1.117   3.255  18.258  0.00  0.00    +0.000 C 
ATOM      9  C   UNL     1       1.070   3.228  19.779  0.00  0.00    +0.000 C 
ATOM     10  C   UNL     1       2.448   3.684  20.259  0.00  0.00    +0.000 C 
BRANCH   6  11
ATOM     11  C   UNL     1       2.651   5.970  19.135  0.00  0.00    +0.000 A 
ATOM     12  C   UNL     1       2.180   6.606  20.294  0.00  0.00    +0.000 A 
ATOM     13  C   UNL     1       1.744   7.935  20.267  0.00  0.00    +0.000 A 
ATOM     14  C   UNL     1       1.769   8.661  19.081  0.00  0.00    +0.000 A 
ATOM     15  C   UNL     1       2.245   8.060  17.920  0.00  0.00    +0.000 A 
ATOM     16  C   UNL     1       2.683   6.733  17.949  0.00  0.00    +0.000 A 
ENDBRANCH   6  11
ENDBRANCH   5   6
ENDBRANCH   3   5
ENDBRANCH   2   3
ENDBRANCH   1   2
BRANCH   1  17
ATOM     17  C   UNL     1       7.545   7.622  17.329  0.00  0.00    +0.000 C 
BRANCH  17  18
ATOM     18  C   UNL     1       8.379   8.293  18.423  0.00  0.00    +0.000 C 
BRANCH  18  19
ATOM     19  C   UNL     1       8.473   9.820  18.289  0.00  0.00    +0.000 C 
BRANCH  19  20
ATOM     20  N   UNL     1       9.728  10.393  18.825  0.00  0.00    +0.000 NA
ATOM     21  C   UNL     1      10.329  11.308  17.843  0.00  0.00    +0.000 C 
ATOM     22  C   UNL     1      11.503  12.125  18.386  0.00  0.00    +0.000 C 
ATOM     23  C   UNL     1      11.154  12.877  19.679  0.00  0.00    +0.000 C 
ATOM     24  C   UNL     1      10.631  11.828  20.675  0.00  0.00    +0.000 C 
ATOM     25  C   UNL     1       9.446  11.041  20.116  0.00  0.00    +0.000 C 
BRANCH  23  26
ATOM     26  C   UNL     1      10.249  14.102  19.524  0.00  0.00    +0.000 A 
ATOM     27  C   UNL     1      10.073  14.776  18.306  0.00  0.00    +0.000 A 
ATOM     28  C   UNL     1       9.267  15.913  18.205  0.00  0.00    +0.000 A 
ATOM     29  C   UNL     1       8.640  16.422  19.336  0.00  0.00    +0.000 A 
ATOM     30  C   UNL     1       8.816  15.788  20.562  0.00  0.00    +0.000 A 
ATOM     31  C   UNL     1       9.611  14.639  20.655  0.00  0.00    +0.000 A 
ENDBRANCH  23  26
ENDBRANCH  19  20
ENDBRANCH  18  19
ENDBRANCH  17  18
ENDBRANCH   1  17
TORSDOF 10
ENDMDL
MODEL 4
REMARK VINA RESULT:      -8.0      1.977      3.103
REMARK  Name = 
REMARK  10 active torsions:
REMARK  status: ('A' for Active; 'I' for Inactive)
REMARK    1  A    between atoms: C_2  and  O_3
REMARK    2  A    between atoms: C_2  and  C_21
REMARK    3  A    between atoms: O_3  and  C_4
REMARK    4  A    between atoms: C_4  and  C_5
REMARK    5  A    between atoms: C_5  and  C_6
REMARK    6  A    between atoms: C_6  and  C_7
REMARK    7  A    between atoms: C_7  and  C_8
REMARK    8  A    between atoms: C_8  and  N_9
REMARK    9  A    between atoms: C_12  and  C_13
REMARK   10  A    between atoms: C_21  and  C_22
REMARK                            x       y       z     vdW  Elec       q    Type
REMARK                         _______ _______ _______ _____ _____    ______ ____
ROOT
ATOM      1  C   UNL     1       7.558   6.759  17.581  0.00  0.00    +0.000 C 
ENDROOT
BRANCH   1   2
ATOM      2  C   UNL     1       6.187   6.153  17.287  0.00  0.00    +0.000 C 
BRANCH   2   3
ATOM      3  O   UNL     1       5.197   6.609  18.223  0.00  0.00    +0.000 OA
BRANCH   3   5
ATOM      4  O   UNL     1       5.373   5.010  19.856  0.00  0.00    +0.000 OA
ATOM      5  C   UNL     1       4.693   5.667  19.069  0.00  0.00    +0.000 C 
BRANCH   5   6
ATOM      6  C   UNL     1       3.170   5.495  18.894  0.00  0.00    +0.000 C 
ATOM      7  C   UNL     1       2.951   4.633  17.627  0.00  0.00    +0.000 C 
ATOM      8  C   UNL     1       1.584   3.978  17.791  0.00  0.00    +0.000 C 
ATOM      9  C   UNL     1       1.350   3.886  19.293  0.00  0.00    +0.000 C 
ATOM     10  C   UNL     1       2.555   4.551  19.957  0.00  0.00    +0.000 C 
BRANCH   6  11
ATOM     11  C   UNL     1       2.500   6.879  18.904  0.00  0.00    +0.000 A 
ATOM     12  C   UNL     1       2.429   7.711  17.776  0.00  0.00    +0.000 A 
ATOM     13  C   UNL     1       1.873   8.993  17.852  0.00  0.00    +0.000 A 
ATOM     14  C   UNL     1       1.374   9.473  19.059  0.00  0.00    +0.000 A 
ATOM     15  C   UNL     1       1.418   8.664  20.189  0.00  0.00    +0.000 A 
ATOM     16  C   UNL     1       1.971   7.383  20.111  0.00  0.00    +0.000 A 
ENDBRANCH   6  11
ENDBRANCH   5   6
ENDBRANCH   3   5
ENDBRANCH   2   3
ENDBRANCH   1   2
BRANCH   1  17
ATOM     17  C   UNL     1       7.537   8.287  17.519  0.00  0.00    +0.000 C 
BRANCH  17  18
ATOM     18  C   UNL     1       8.516   8.925  18.509  0.00  0.00    +0.000 C 
BRANCH  18  19
ATOM     19  C   UNL     1       8.748  10.426  18.278  0.00  0.00    +0.000 C 
BRANCH  19  20
ATOM     20  N   UNL     1       9.895  10.979  19.030  0.00  0.00    +0.000 NA
ATOM     21  C   UNL     1      10.958  11.395  18.104  0.00  0.00    +0.000 C 
ATOM     22  C   UNL     1      12.089  12.186  18.765  0.00  0.00    +0.000 C 
ATOM     23  C   UNL     1      11.577  13.389  19.571  0.00  0.00    +0.000 C 
ATOM     24  C   UNL     1      10.549  12.843  20.578  0.00  0.00    +0.000 C 
ATOM     25  C   UNL     1       9.421  12.075  19.891  0.00  0.00    +0.000 C 
BRANCH  23  26
ATOM     26  C   UNL     1      11.085  14.588  18.758  0.00  0.00    +0.000 A 
ATOM     27  C   UNL     1      11.566  14.894  17.475  0.00  0.00    +0.000 A 
ATOM     28  C   UNL     1      11.121  16.016  16.772  0.00  0.00    +0.000 A 
ATOM     29  C   UNL     1      10.201  16.880  17.353  0.00  0.00    +0.000 A 
ATOM     30  C   UNL     1       9.725  16.615  18.634  0.00  0.00    +0.000 A 
ATOM     31  C   UNL     1      10.161  15.480  19.328  0.00  0.00    +0.000 A 
ENDBRANCH  23  26
ENDBRANCH  19  20
ENDBRANCH  18  19
ENDBRANCH  17  18
ENDBRANCH   1  17
TORSDOF 10
ENDMDL
MODEL 5
REMARK VINA RESULT:      -8.0      1.690      2.785
REMARK  Name = 
REMARK  10 active torsions:
REMARK  status: ('A' for Active; 'I' for Inactive)
REMARK    1  A    between atoms: C_2  and  O_3
REMARK    2  A    between atoms: C_2  and  C_21
REMARK    3  A    between atoms: O_3  and  C_4
REMARK    4  A    between atoms: C_4  and  C_5
REMARK    5  A    between atoms: C_5  and  C_6
REMARK    6  A    between atoms: C_6  and  C_7
REMARK    7  A    between atoms: C_7  and  C_8
REMARK    8  A    between atoms: C_8  and  N_9
REMARK    9  A    between atoms: C_12  and  C_13
REMARK   10  A    between atoms: C_21  and  C_22
REMARK                            x       y       z     vdW  Elec       q    Type
REMARK                         _______ _______ _______ _____ _____    ______ ____
ROOT
ATOM      1  C   UNL     1       7.275   6.524  18.199  0.00  0.00    +0.000 C 
ENDROOT
BRANCH   1   2
ATOM      2  C   UNL     1       6.944   5.546  17.073  0.00  0.00    +0.000 C 
BRANCH   2   3
ATOM      3  O   UNL     1       6.156   4.442  17.547  0.00  0.00    +0.000 OA
BRANCH   3   5
ATOM      4  O   UNL     1       4.884   4.206  15.655  0.00  0.00    +0.000 OA
ATOM      5  C   UNL     1       4.992   4.207  16.881  0.00  0.00    +0.000 C 
BRANCH   5   6
ATOM      6  C   UNL     1       3.812   3.979  17.849  0.00  0.00    +0.000 C 
ATOM      7  C   UNL     1       2.784   3.087  17.113  0.00  0.00    +0.000 C 
ATOM      8  C   UNL     1       1.974   2.390  18.199  0.00  0.00    +0.000 C 
ATOM      9  C   UNL     1       2.890   2.317  19.413  0.00  0.00    +0.000 C 
ATOM     10  C   UNL     1       4.181   3.035  19.020  0.00  0.00    +0.000 C 
BRANCH   6  11
ATOM     11  C   UNL     1       3.302   5.340  18.353  0.00  0.00    +0.000 A 
ATOM     12  C   UNL     1       2.727   5.528  19.620  0.00  0.00    +0.000 A 
ATOM     13  C   UNL     1       2.212   6.771  20.006  0.00  0.00    +0.000 A 
ATOM     14  C   UNL     1       2.259   7.854  19.135  0.00  0.00    +0.000 A 
ATOM     15  C   UNL     1       2.837   7.699  17.879  0.00  0.00    +0.000 A 
ATOM     16  C   UNL     1       3.353   6.459  17.495  0.00  0.00    +0.000 A 
ENDBRANCH   6  11
ENDBRANCH   5   6
ENDBRANCH   3   5
ENDBRANCH   2   3
ENDBRANCH   1   2
BRANCH   1  17
ATOM     17  C   UNL     1       7.620   7.916  17.669  0.00  0.00    +0.000 C 
BRANCH  17  18
ATOM     18  C   UNL     1       8.624   8.649  18.563  0.00  0.00    +0.000 C 
BRANCH  18  19
ATOM     19  C   UNL     1       8.809  10.133  18.210  0.00  0.00    +0.000 C 
BRANCH  19  20
ATOM     20  N   UNL     1       9.951  10.776  18.896  0.00  0.00    +0.000 NA
ATOM     21  C   UNL     1      10.744  11.559  17.938  0.00  0.00    +0.000 C 
ATOM     22  C   UNL     1      11.812  12.444  18.586  0.00  0.00    +0.000 C 
ATOM     23  C   UNL     1      11.239  13.355  19.681  0.00  0.00    +0.000 C 
ATOM     24  C   UNL     1      10.516  12.441  20.686  0.00  0.00    +0.000 C 
ATOM     25  C   UNL     1       9.443  11.583  20.017  0.00  0.00    +0.000 C 
BRANCH  23  26
ATOM     26  C   UNL     1      10.405  14.546  19.203  0.00  0.00    +0.000 A 
ATOM     27  C   UNL     1      10.586  15.155  17.950  0.00  0.00    +0.000 A 
ATOM     28  C   UNL     1       9.831  16.263  17.557  0.00  0.00    +0.000 A 
ATOM     29  C   UNL     1       8.895  16.809  18.426  0.00  0.00    +0.000 A 
ATOM     30  C   UNL     1       8.711  16.241  19.683  0.00  0.00    +0.000 A 
ATOM     31  C   UNL     1       9.458  15.121  20.067  0.00  0.00    +0.000 A 
ENDBRANCH  23  26
ENDBRANCH  19  20
ENDBRANCH  18  19
ENDBRANCH  17  18
ENDBRANCH   1  17
TORSDOF 10
ENDMDL
MODEL 6
REMARK VINA RESULT:      -7.9      6.217     10.139
REMARK  Name = 
REMARK  10 active torsions:
REMARK  status: ('A' for Active; 'I' for Inactive)
REMARK    1  A    between atoms: C_2  and  O_3
REMARK    2  A    between atoms: C_2  and  C_21
REMARK    3  A    between atoms: O_3  and  C_4
REMARK    4  A    between atoms: C_4  and  C_5
REMARK    5  A    between atoms: C_5  and  C_6
REMARK    6  A    between atoms: C_6  and  C_7
REMARK    7  A    between atoms: C_7  and  C_8
REMARK    8  A    between atoms: C_8  and  N_9
REMARK    9  A    between atoms: C_12  and  C_13
REMARK   10  A    between atoms: C_21  and  C_22
REMARK                            x       y       z     vdW  Elec       q    Type
REMARK                         _______ _______ _______ _____ _____    ______ ____
ROOT
ATOM      1  C   UNL     1       0.174   8.269  21.500  0.00  0.00    +0.000 C 
ENDROOT
BRANCH   1   2
ATOM      2  C   UNL     1      -0.135   9.513  22.331  0.00  0.00    +0.000 C 
BRANCH   2   3
ATOM      3  O   UNL     1      -0.913  10.464  21.587  0.00  0.00    +0.000 OA
BRANCH   3   5
ATOM      4  O   UNL     1      -0.198  12.484  22.400  0.00  0.00    +0.000 OA
ATOM      5  C   UNL     1      -0.377  11.710  21.461  0.00  0.00    +0.000 C 
BRANCH   5   6
ATOM      6  C   UNL     1      -0.058  12.052  19.991  0.00  0.00    +0.000 C 
ATOM      7  C   UNL     1       0.096  13.589  19.903  0.00  0.00    +0.000 C 
ATOM      8  C   UNL     1       0.966  13.859  18.681  0.00  0.00    +0.000 C 
ATOM      9  C   UNL     1       1.820  12.611  18.501  0.00  0.00    +0.000 C 
ATOM     10  C   UNL     1       1.373  11.626  19.581  0.00  0.00    +0.000 C 
BRANCH   6  11
ATOM     11  C   UNL     1      -1.125  11.417  19.081  0.00  0.00    +0.000 A 
ATOM     12  C   UNL     1      -0.868  10.329  18.232  0.00  0.00    +0.000 A 
ATOM     13  C   UNL     1      -1.852   9.832  17.371  0.00  0.00    +0.000 A 
ATOM     14  C   UNL     1      -3.116  10.411  17.337  0.00  0.00    +0.000 A 
ATOM     15  C   UNL     1      -3.403  11.481  18.179  0.00  0.00    +0.000 A 
ATOM     16  C   UNL     1      -2.420  11.975  19.041  0.00  0.00    +0.000 A 
ENDBRANCH   6  11
ENDBRANCH   5   6
ENDBRANCH   3   5
ENDBRANCH   2   3
ENDBRANCH   1   2
BRANCH   1  17
ATOM     17  C   UNL     1       1.644   8.205  21.082  0.00  0.00    +0.000 C 
BRANCH  17  18
ATOM     18  C   UNL     1       1.916   7.086  20.074  0.00  0.00    +0.000 C 
BRANCH  18  19
ATOM     19  C   UNL     1       1.670   5.674  20.626  0.00  0.00    +0.000 C 
BRANCH  19  20
ATOM     20  N   UNL     1       2.108   4.590  19.720  0.00  0.00    +0.000 NA
ATOM     21  C   UNL     1       2.121   5.063  18.329  0.00  0.00    +0.000 C 
ATOM     22  C   UNL     1       2.775   4.092  17.343  0.00  0.00    +0.000 C 
ATOM     23  C   UNL     1       4.184   3.667  17.779  0.00  0.00    +0.000 C 
ATOM     24  C   UNL     1       4.055   3.093  19.201  0.00  0.00    +0.000 C 
ATOM     25  C   UNL     1       3.417   4.090  20.169  0.00  0.00    +0.000 C 
BRANCH  23  26
ATOM     26  C   UNL     1       5.286   4.717  17.623  0.00  0.00    +0.000 A 
ATOM     27  C   UNL     1       6.515   4.645  18.299  0.00  0.00    +0.000 A 
ATOM     28  C   UNL     1       7.487   5.639  18.161  0.00  0.00    +0.000 A 
ATOM     29  C   UNL     1       7.238   6.749  17.364  0.00  0.00    +0.000 A 
ATOM     30  C   UNL     1       6.020   6.858  16.701  0.00  0.00    +0.000 A 
ATOM     31  C   UNL     1       5.055   5.852  16.828  0.00  0.00    +0.000 A 
ENDBRANCH  23  26
ENDBRANCH  19  20
ENDBRANCH  18  19
ENDBRANCH  17  18
ENDBRANCH   1  17
TORSDOF 10
ENDMDL
MODEL 7
REMARK VINA RESULT:      -7.9      1.573      2.743
REMARK  Name = 
REMARK  10 active torsions:
REMARK  status: ('A' for Active; 'I' for Inactive)
REMARK    1  A    between atoms: C_2  and  O_3
REMARK    2  A    between atoms: C_2  and  C_21
REMARK    3  A    between atoms: O_3  and  C_4
REMARK    4  A    between atoms: C_4  and  C_5
REMARK    5  A    between atoms: C_5  and  C_6
REMARK    6  A    between atoms: C_6  and  C_7
REMARK    7  A    between atoms: C_7  and  C_8
REMARK    8  A    between atoms: C_8  and  N_9
REMARK    9  A    between atoms: C_12  and  C_13
REMARK   10  A    between atoms: C_21  and  C_22
REMARK                            x       y       z     vdW  Elec       q    Type
REMARK                         _______ _______ _______ _____ _____    ______ ____
ROOT
ATOM      1  C   UNL     1       7.913   6.471  18.421  0.00  0.00    +0.000 C 
ENDROOT
BRANCH   1   2
ATOM      2  C   UNL     1       6.881   5.752  19.288  0.00  0.00    +0.000 C 
BRANCH   2   3
ATOM      3  O   UNL     1       6.625   4.422  18.808  0.00  0.00    +0.000 OA
BRANCH   3   5
ATOM      4  O   UNL     1       6.151   4.471  16.566  0.00  0.00    +0.000 OA
ATOM      5  C   UNL     1       5.793   4.323  17.734  0.00  0.00    +0.000 C 
BRANCH   5   6
ATOM      6  C   UNL     1       4.337   4.040  18.159  0.00  0.00    +0.000 C 
ATOM      7  C   UNL     1       3.724   3.101  17.093  0.00  0.00    +0.000 C 
ATOM      8  C   UNL     1       2.580   2.367  17.782  0.00  0.00    +0.000 C 
ATOM      9  C   UNL     1       2.942   2.338  19.260  0.00  0.00    +0.000 C 
ATOM     10  C   UNL     1       4.251   3.115  19.398  0.00  0.00    +0.000 C 
BRANCH   6  11
ATOM     11  C   UNL     1       3.611   5.376  18.393  0.00  0.00    +0.000 A 
ATOM     12  C   UNL     1       3.648   6.445  17.483  0.00  0.00    +0.000 A 
ATOM     13  C   UNL     1       3.030   7.666  17.773  0.00  0.00    +0.000 A 
ATOM     14  C   UNL     1       2.361   7.849  18.978  0.00  0.00    +0.000 A 
ATOM     15  C   UNL     1       2.296   6.802  19.892  0.00  0.00    +0.000 A 
ATOM     16  C   UNL     1       2.911   5.581  19.600  0.00  0.00    +0.000 A 
ENDBRANCH   6  11
ENDBRANCH   5   6
ENDBRANCH   3   5
ENDBRANCH   2   3
ENDBRANCH   1   2
BRANCH   1  17
ATOM     17  C   UNL     1       7.323   7.696  17.721  0.00  0.00    +0.000 C 
BRANCH  17  18
ATOM     18  C   UNL     1       8.356   8.808  17.519  0.00  0.00    +0.000 C 
BRANCH  18  19
ATOM     19  C   UNL     1       8.328   9.892  18.607  0.00  0.00    +0.000 C 
BRANCH  19  20
ATOM     20  N   UNL     1       9.665  10.404  18.979  0.00  0.00    +0.000 NA
ATOM     21  C   UNL     1      10.243  11.174  17.868  0.00  0.00    +0.000 C 
ATOM     22  C   UNL     1      11.520  11.935  18.231  0.00  0.00    +0.000 C 
ATOM     23  C   UNL     1      11.346  12.827  19.469  0.00  0.00    +0.000 C 
ATOM     24  C   UNL     1      10.837  11.918  20.602  0.00  0.00    +0.000 C 
ATOM     25  C   UNL     1       9.551  11.186  20.221  0.00  0.00    +0.000 C 
BRANCH  23  26
ATOM     26  C   UNL     1      10.527  14.104  19.272  0.00  0.00    +0.000 A 
ATOM     27  C   UNL     1      10.226  14.635  18.007  0.00  0.00    +0.000 A 
ATOM     28  C   UNL     1       9.505  15.823  17.862  0.00  0.00    +0.000 A 
ATOM     29  C   UNL     1       9.093  16.527  18.986  0.00  0.00    +0.000 A 
ATOM     30  C   UNL     1       9.397  16.036  20.253  0.00  0.00    +0.000 A 
ATOM     31  C   UNL     1      10.106  14.837  20.394  0.00  0.00    +0.000 A 
ENDBRANCH  23  26
ENDBRANCH  19  20
ENDBRANCH  18  19
ENDBRANCH  17  18
ENDBRANCH   1  17
TORSDOF 10
ENDMDL
MODEL 8
REMARK VINA RESULT:      -7.8      2.065      3.128
REMARK  Name = 
REMARK  10 active torsions:
REMARK  status: ('A' for Active; 'I' for Inactive)
REMARK    1  A    between atoms: C_2  and  O_3
REMARK    2  A    between atoms: C_2  and  C_21
REMARK    3  A    between atoms: O_3  and  C_4
REMARK    4  A    between atoms: C_4  and  C_5
REMARK    5  A    between atoms: C_5  and  C_6
REMARK    6  A    between atoms: C_6  and  C_7
REMARK    7  A    between atoms: C_7  and  C_8
REMARK    8  A    between atoms: C_8  and  N_9
REMARK    9  A    between atoms: C_12  and  C_13
REMARK   10  A    between atoms: C_21  and  C_22
REMARK                            x       y       z     vdW  Elec       q    Type
REMARK                         _______ _______ _______ _____ _____    ______ ____
ROOT
ATOM      1  C   UNL     1       7.741   7.064  17.745  0.00  0.00    +0.000 C 
ENDROOT
BRANCH   1   2
ATOM      2  C   UNL     1       6.893   6.099  16.919  0.00  0.00    +0.000 C 
BRANCH   2   3
ATOM      3  O   UNL     1       6.687   4.855  17.609  0.00  0.00    +0.000 OA
BRANCH   3   5
ATOM      4  O   UNL     1       6.434   5.216  19.859  0.00  0.00    +0.000 OA
ATOM      5  C   UNL     1       5.962   4.921  18.761  0.00  0.00    +0.000 C 
BRANCH   5   6
ATOM      6  C   UNL     1       4.485   4.542  18.532  0.00  0.00    +0.000 C 
ATOM      7  C   UNL     1       4.410   3.788  17.183  0.00  0.00    +0.000 C 
ATOM      8  C   UNL     1       3.156   2.924  17.248  0.00  0.00    +0.000 C 
ATOM      9  C   UNL     1       2.923   2.649  18.727  0.00  0.00    +0.000 C 
ATOM     10  C   UNL     1       4.008   3.417  19.483  0.00  0.00    +0.000 C 
BRANCH   6  11
ATOM     11  C   UNL     1       3.614   5.804  18.660  0.00  0.00    +0.000 A 
ATOM     12  C   UNL     1       3.602   6.834  17.706  0.00  0.00    +0.000 A 
ATOM     13  C   UNL     1       2.847   7.995  17.901  0.00  0.00    +0.000 A 
ATOM     14  C   UNL     1       2.086   8.155  19.054  0.00  0.00    +0.000 A 
ATOM     15  C   UNL     1       2.068   7.144  20.009  0.00  0.00    +0.000 A 
ATOM     16  C   UNL     1       2.820   5.983  19.812  0.00  0.00    +0.000 A 
ENDBRANCH   6  11
ENDBRANCH   5   6
ENDBRANCH   3   5
ENDBRANCH   2   3
ENDBRANCH   1   2
BRANCH   1  17
ATOM     17  C   UNL     1       7.250   8.508  17.625  0.00  0.00    +0.000 C 
BRANCH  17  18
ATOM     18  C   UNL     1       8.383   9.525  17.788  0.00  0.00    +0.000 C 
BRANCH  18  19
ATOM     19  C   UNL     1       8.994   9.559  19.196  0.00  0.00    +0.000 C 
BRANCH  19  20
ATOM     20  N   UNL     1       9.925  10.687  19.420  0.00  0.00    +0.000 NA
ATOM     21  C   UNL     1      10.085  11.467  18.185  0.00  0.00    +0.000 C 
ATOM     22  C   UNL     1      10.845  12.782  18.369  0.00  0.00    +0.000 C 
ATOM     23  C   UNL     1      10.253  13.657  19.484  0.00  0.00    +0.000 C 
ATOM     24  C   UNL     1      10.219  12.791  20.756  0.00  0.00    +0.000 C 
ATOM     25  C   UNL     1       9.438  11.494  20.550  0.00  0.00    +0.000 C 
BRANCH  23  26
ATOM     26  C   UNL     1       8.930  14.356  19.164  0.00  0.00    +0.000 A 
ATOM     27  C   UNL     1       8.357  15.331  19.997  0.00  0.00    +0.000 A 
ATOM     28  C   UNL     1       7.129  15.925  19.693  0.00  0.00    +0.000 A 
ATOM     29  C   UNL     1       6.429  15.533  18.560  0.00  0.00    +0.000 A 
ATOM     30  C   UNL     1       6.962  14.552  17.729  0.00  0.00    +0.000 A 
ATOM     31  C   UNL     1       8.199  13.970  18.027  0.00  0.00    +0.000 A 
ENDBRANCH  23  26
ENDBRANCH  19  20
ENDBRANCH  18  19
ENDBRANCH  17  18
ENDBRANCH   1  17
TORSDOF 10
ENDMDL
MODEL 9
REMARK VINA RESULT:      -7.8      2.229      3.623
REMARK  Name = 
REMARK  10 active torsions:
REMARK  status: ('A' for Active; 'I' for Inactive)
REMARK    1  A    between atoms: C_2  and  O_3
REMARK    2  A    between atoms: C_2  and  C_21
REMARK    3  A    between atoms: O_3  and  C_4
REMARK    4  A    between atoms: C_4  and  C_5
REMARK    5  A    between atoms: C_5  and  C_6
REMARK    6  A    between atoms: C_6  and  C_7
REMARK    7  A    between atoms: C_7  and  C_8
REMARK    8  A    between atoms: C_8  and  N_9
REMARK    9  A    between atoms: C_12  and  C_13
REMARK   10  A    between atoms: C_21  and  C_22
REMARK                            x       y       z     vdW  Elec       q    Type
REMARK                         _______ _______ _______ _____ _____    ______ ____
ROOT
ATOM      1  C   UNL     1       7.856   6.762  18.486  0.00  0.00    +0.000 C 
ENDROOT
BRANCH   1   2
ATOM      2  C   UNL     1       6.874   5.803  17.815  0.00  0.00    +0.000 C 
BRANCH   2   3
ATOM      3  O   UNL     1       5.583   5.845  18.443  0.00  0.00    +0.000 OA
BRANCH   3   5
ATOM      4  O   UNL     1       4.560   5.793  16.393  0.00  0.00    +0.000 OA
ATOM      5  C   UNL     1       4.509   5.696  17.619  0.00  0.00    +0.000 C 
BRANCH   5   6
ATOM      6  C   UNL     1       3.211   5.430  18.408  0.00  0.00    +0.000 C 
ATOM      7  C   UNL     1       2.378   4.416  17.587  0.00  0.00    +0.000 C 
ATOM      8  C   UNL     1       1.459   3.719  18.583  0.00  0.00    +0.000 C 
ATOM      9  C   UNL     1       2.174   3.791  19.925  0.00  0.00    +0.000 C 
ATOM     10  C   UNL     1       3.456   4.588  19.685  0.00  0.00    +0.000 C 
BRANCH   6  11
ATOM     11  C   UNL     1       2.531   6.772  18.731  0.00  0.00    +0.000 A 
ATOM     12  C   UNL     1       2.356   7.795  17.787  0.00  0.00    +0.000 A 
ATOM     13  C   UNL     1       1.797   9.026  18.146  0.00  0.00    +0.000 A 
ATOM     14  C   UNL     1       1.398   9.263  19.458  0.00  0.00    +0.000 A 
ATOM     15  C   UNL     1       1.547   8.261  20.411  0.00  0.00    +0.000 A 
ATOM     16  C   UNL     1       2.104   7.031  20.050  0.00  0.00    +0.000 A 
ENDBRANCH   6  11
ENDBRANCH   5   6
ENDBRANCH   3   5
ENDBRANCH   2   3
ENDBRANCH   1   2
BRANCH   1  17
ATOM     17  C   UNL     1       7.886   8.129  17.799  0.00  0.00    +0.000 C 
BRANCH  17  18
ATOM     18  C   UNL     1       8.655   9.173  18.611  0.00  0.00    +0.000 C 
BRANCH  18  19
ATOM     19  C   UNL     1       8.767  10.542  17.922  0.00  0.00    +0.000 C 
BRANCH  19  20
ATOM     20  N   UNL     1      10.059  11.225  18.149  0.00  0.00    +0.000 NA
ATOM     21  C   UNL     1      10.011  12.595  17.617  0.00  0.00    +0.000 C 
ATOM     22  C   UNL     1      11.214  13.459  18.004  0.00  0.00    +0.000 C 
ATOM     23  C   UNL     1      11.465  13.479  19.519  0.00  0.00    +0.000 C 
ATOM     24  C   UNL     1      11.602  12.013  19.966  0.00  0.00    +0.000 C 
ATOM     25  C   UNL     1      10.380  11.178  19.585  0.00  0.00    +0.000 C 
BRANCH  23  26
ATOM     26  C   UNL     1      10.484  14.303  20.356  0.00  0.00    +0.000 A 
ATOM     27  C   UNL     1      10.002  13.883  21.606  0.00  0.00    +0.000 A 
ATOM     28  C   UNL     1       9.080  14.642  22.330  0.00  0.00    +0.000 A 
ATOM     29  C   UNL     1       8.592  15.830  21.802  0.00  0.00    +0.000 A 
ATOM     30  C   UNL     1       9.033  16.259  20.554  0.00  0.00    +0.000 A 
ATOM     31  C   UNL     1       9.970  15.504  19.839  0.00  0.00    +0.000 A 
ENDBRANCH  23  26
ENDBRANCH  19  20
ENDBRANCH  18  19
ENDBRANCH  17  18
ENDBRANCH   1  17
TORSDOF 10
ENDMDL
