MODEL 1
REMARK VINA RESULT:      -8.2      0.000      0.000
REMARK  Name = 
REMARK  3 active torsions:
REMARK  status: ('A' for Active; 'I' for Inactive)
REMARK    1  A    between atoms: C_1  and  C_2
REMARK    2  A    between atoms: C_10  and  C_11
REMARK    3  A    between atoms: N_13  and  C_14
REMARK                            x       y       z     vdW  Elec       q    Type
REMARK                         _______ _______ _______ _____ _____    ______ ____
ROOT
ATOM      1  C   UNL     1       1.821   8.271  18.944  0.00  0.00    +0.000 C 
ATOM      2  O   UNL     1       1.554   8.585  17.788  0.00  0.00    +0.000 OA
ATOM      3  N   UNL     1       2.513   7.134  19.313  0.00  0.00    +0.000 N 
ATOM      4  H   UNL     1       2.329   6.719  20.225  0.00  0.00    +0.000 HD
ENDROOT
BRANCH   1  14
ATOM      5  C   UNL     1      -3.095  13.462  20.895  0.00  0.00    +0.000 C 
ATOM      6  C   UNL     1      -2.122  12.427  21.347  0.00  0.00    +0.000 A 
ATOM      7  C   UNL     1      -1.832  12.152  22.617  0.00  0.00    +0.000 A 
ATOM      8  N   UNL     1      -0.945  11.206  23.032  0.00  0.00    +0.000 NA
ATOM      9  C   UNL     1      -0.310  10.536  22.125  0.00  0.00    +0.000 A 
ATOM     10  N   UNL     1      -0.464  10.727  20.768  0.00  0.00    +0.000 N 
ATOM     11  C   UNL     1      -1.420  11.626  20.317  0.00  0.00    +0.000 A 
ATOM     12  O   UNL     1      -1.708  11.776  19.131  0.00  0.00    +0.000 OA
ATOM     13  C   UNL     1       0.162   9.918  19.723  0.00  0.00    +0.000 C 
ATOM     14  C   UNL     1       1.421   9.162  20.112  0.00  0.00    +0.000 C 
ATOM     15  C   UNL     1       1.110   8.306  21.324  0.00  0.00    +0.000 C 
ATOM     16  S   UNL     1       0.841   9.375  22.740  0.00  0.00    +0.000 S 
ENDBRANCH   1  14
BRANCH   3  17
ATOM     17  C   UNL     1       3.118   6.231  18.396  0.00  0.00    +0.000 A 
ATOM     18  C   UNL     1       4.165   6.639  17.559  0.00  0.00    +0.000 A 
ATOM     19  C   UNL     1       4.763   5.732  16.689  0.00  0.00    +0.000 A 
ATOM     20  C   UNL     1       4.319   4.415  16.657  0.00  0.00    +0.000 A 
ATOM     21  C   UNL     1       3.279   3.995  17.501  0.00  0.00    +0.000 A 
ATOM     22  C   UNL     1       2.828   2.670  17.482  0.00  0.00    +0.000 A 
ATOM     23  C   UNL     1       1.774   2.285  18.298  0.00  0.00    +0.000 A 
ATOM     24  C   UNL     1       1.204   3.245  19.113  0.00  0.00    +0.000 A 
ATOM     25  N   UNL     1       1.630   4.528  19.187  0.00  0.00    +0.000 NA
ATOM     26  C   UNL     1       2.658   4.904  18.389  0.00  0.00    +0.000 A 
ENDBRANCH   3  17
TORSDOF 2
ENDMDL
MODEL 2
REMARK VINA RESULT:      -7.9      2.642      8.322
REMARK  Name = 
REMARK  3 active torsions:
REMARK  status: ('A' for Active; 'I' for Inactive)
REMARK    1  A    between atoms: C_1  and  C_2
REMARK    2  A    between atoms: C_10  and  C_11
REMARK    3  A    between atoms: N_13  and  C_14
REMARK                            x       y       z     vdW  Elec       q    Type
REMARK                         _______ _______ _______ _____ _____    ______ ____
ROOT
ATOM      1  C   UNL     1       1.835   8.930  18.378  0.00  0.00    +0.000 C 
ATOM      2  O   UNL     1       2.175   9.792  17.572  0.00  0.00    +0.000 OA
ATOM      3  N   UNL     1       1.056   9.159  19.495  0.00  0.00    +0.000 N 
ATOM      4  H   UNL     1       1.171   8.556  20.308  0.00  0.00    +0.000 HD
ENDROOT
BRANCH   1  14
ATOM      5  C   UNL     1       6.790   4.660  14.897  0.00  0.00    +0.000 C 
ATOM      6  C   UNL     1       5.802   4.780  16.006  0.00  0.00    +0.000 A 
ATOM      7  C   UNL     1       5.499   3.813  16.869  0.00  0.00    +0.000 A 
ATOM      8  N   UNL     1       4.598   3.921  17.884  0.00  0.00    +0.000 NA
ATOM      9  C   UNL     1       3.963   5.042  18.009  0.00  0.00    +0.000 A 
ATOM     10  N   UNL     1       4.130   6.127  17.175  0.00  0.00    +0.000 N 
ATOM     11  C   UNL     1       5.100   6.073  16.184  0.00  0.00    +0.000 A 
ATOM     12  O   UNL     1       5.400   7.030  15.471  0.00  0.00    +0.000 OA
ATOM     13  C   UNL     1       3.504   7.437  17.354  0.00  0.00    +0.000 C 
ATOM     14  C   UNL     1       2.234   7.474  18.186  0.00  0.00    +0.000 C 
ATOM     15  C   UNL     1       2.525   6.843  19.533  0.00  0.00    +0.000 C 
ATOM     16  S   UNL     1       2.795   5.083  19.306  0.00  0.00    +0.000 S 
ENDBRANCH   1  14
BRANCH   3  17
ATOM     17  C   UNL     1       0.439  10.403  19.802  0.00  0.00    +0.000 A 
ATOM     18  C   UNL     1       1.059  11.331  20.651  0.00  0.00    +0.000 A 
ATOM     19  C   UNL     1       0.451  12.555  20.915  0.00  0.00    +0.000 A 
ATOM     20  C   UNL     1      -0.772  12.857  20.329  0.00  0.00    +0.000 A 
ATOM     21  C   UNL     1      -1.393  11.939  19.468  0.00  0.00    +0.000 A 
ATOM     22  C   UNL     1      -2.622  12.234  18.867  0.00  0.00    +0.000 A 
ATOM     23  C   UNL     1      -3.237  11.297  18.048  0.00  0.00    +0.000 A 
ATOM     24  C   UNL     1      -2.595  10.088  17.855  0.00  0.00    +0.000 A 
ATOM     25  N   UNL     1      -1.391   9.774  18.390  0.00  0.00    +0.000 NA
ATOM     26  C   UNL     1      -0.792  10.689  19.191  0.00  0.00    +0.000 A 
ENDBRANCH   3  17
TORSDOF 2
ENDMDL
MODEL 3
REMARK VINA RESULT:      -7.8      2.103      2.430
REMARK  Name = 
REMARK  3 active torsions:
REMARK  status: ('A' for Active; 'I' for Inactive)
REMARK    1  A    between atoms: C_1  and  C_2
REMARK    2  A    between atoms: C_10  and  C_11
REMARK    3  A    between atoms: N_13  and  C_14
REMARK                            x       y       z     vdW  Elec       q    Type
REMARK                         _______ _______ _______ _____ _____    ______ ____
ROOT
ATOM      1  C   UNL     1       2.184   8.401  18.162  0.00  0.00    +0.000 C 
ATOM      2  O   UNL     1       2.750   8.436  17.074  0.00  0.00    +0.000 OA
ATOM      3  N   UNL     1       2.280   7.362  19.068  0.00  0.00    +0.000 N 
ATOM      4  H   UNL     1       1.501   7.185  19.700  0.00  0.00    +0.000 HD
ENDROOT
BRANCH   1  14
ATOM      5  C   UNL     1      -4.376  11.634  16.970  0.00  0.00    +0.000 C 
ATOM      6  C   UNL     1      -3.231  11.434  17.903  0.00  0.00    +0.000 A 
ATOM      7  C   UNL     1      -3.110  12.005  19.099  0.00  0.00    +0.000 A 
ATOM      8  N   UNL     1      -2.065  11.822  19.953  0.00  0.00    +0.000 NA
ATOM      9  C   UNL     1      -1.097  11.057  19.565  0.00  0.00    +0.000 A 
ATOM     10  N   UNL     1      -1.049  10.425  18.342  0.00  0.00    +0.000 N 
ATOM     11  C   UNL     1      -2.136  10.526  17.486  0.00  0.00    +0.000 A 
ATOM     12  O   UNL     1      -2.232   9.905  16.428  0.00  0.00    +0.000 OA
ATOM     13  C   UNL     1      -0.019   9.475  17.919  0.00  0.00    +0.000 C 
ATOM     14  C   UNL     1       1.318   9.560  18.635  0.00  0.00    +0.000 C 
ATOM     15  C   UNL     1       1.070   9.438  20.126  0.00  0.00    +0.000 C 
ATOM     16  S   UNL     1       0.224  10.912  20.699  0.00  0.00    +0.000 S 
ENDBRANCH   1  14
BRANCH   3  17
ATOM     17  C   UNL     1       3.146   6.245  18.917  0.00  0.00    +0.000 A 
ATOM     18  C   UNL     1       4.287   6.315  18.106  0.00  0.00    +0.000 A 
ATOM     19  C   UNL     1       5.137   5.218  17.994  0.00  0.00    +0.000 A 
ATOM     20  C   UNL     1       4.852   4.053  18.696  0.00  0.00    +0.000 A 
ATOM     21  C   UNL     1       3.719   3.979  19.521  0.00  0.00    +0.000 A 
ATOM     22  C   UNL     1       3.425   2.813  20.237  0.00  0.00    +0.000 A 
ATOM     23  C   UNL     1       2.279   2.748  21.018  0.00  0.00    +0.000 A 
ATOM     24  C   UNL     1       1.461   3.862  21.056  0.00  0.00    +0.000 A 
ATOM     25  N   UNL     1       1.724   5.020  20.406  0.00  0.00    +0.000 NA
ATOM     26  C   UNL     1       2.843   5.082  19.643  0.00  0.00    +0.000 A 
ENDBRANCH   3  17
TORSDOF 2
ENDMDL
MODEL 4
REMARK VINA RESULT:      -7.8      2.406      8.348
REMARK  Name = 
REMARK  3 active torsions:
REMARK  status: ('A' for Active; 'I' for Inactive)
REMARK    1  A    between atoms: C_1  and  C_2
REMARK    2  A    between atoms: C_10  and  C_11
REMARK    3  A    between atoms: N_13  and  C_14
REMARK                            x       y       z     vdW  Elec       q    Type
REMARK                         _______ _______ _______ _____ _____    ______ ____
ROOT
ATOM      1  C   UNL     1       1.664   8.912  18.284  0.00  0.00    +0.000 C 
ATOM      2  O   UNL     1       2.053   9.765  17.491  0.00  0.00    +0.000 OA
ATOM      3  N   UNL     1       0.716   9.123  19.267  0.00  0.00    +0.000 N 
ATOM      4  H   UNL     1       0.757   8.565  20.118  0.00  0.00    +0.000 HD
ENDROOT
BRANCH   1  14
ATOM      5  C   UNL     1       6.869   4.760  15.032  0.00  0.00    +0.000 C 
ATOM      6  C   UNL     1       5.918   4.910  16.170  0.00  0.00    +0.000 A 
ATOM      7  C   UNL     1       5.744   4.019  17.144  0.00  0.00    +0.000 A 
ATOM      8  N   UNL     1       4.878   4.155  18.185  0.00  0.00    +0.000 NA
ATOM      9  C   UNL     1       4.143   5.219  18.223  0.00  0.00    +0.000 A 
ATOM     10  N   UNL     1       4.172   6.217  17.272  0.00  0.00    +0.000 N 
ATOM     11  C   UNL     1       5.102   6.144  16.245  0.00  0.00    +0.000 A 
ATOM     12  O   UNL     1       5.280   7.040  15.422  0.00  0.00    +0.000 OA
ATOM     13  C   UNL     1       3.429   7.475  17.342  0.00  0.00    +0.000 C 
ATOM     14  C   UNL     1       2.195   7.487  18.227  0.00  0.00    +0.000 C 
ATOM     15  C   UNL     1       2.599   7.036  19.617  0.00  0.00    +0.000 C 
ATOM     16  S   UNL     1       3.028   5.295  19.565  0.00  0.00    +0.000 S 
ENDBRANCH   1  14
BRANCH   3  17
ATOM     17  C   UNL     1      -0.030  10.324  19.417  0.00  0.00    +0.000 A 
ATOM     18  C   UNL     1      -0.309  11.147  18.318  0.00  0.00    +0.000 A 
ATOM     19  C   UNL     1      -1.065  12.304  18.482  0.00  0.00    +0.000 A 
ATOM     20  C   UNL     1      -1.547  12.638  19.742  0.00  0.00    +0.000 A 
ATOM     21  C   UNL     1      -1.283  11.812  20.845  0.00  0.00    +0.000 A 
ATOM     22  C   UNL     1      -1.768  12.135  22.118  0.00  0.00    +0.000 A 
ATOM     23  C   UNL     1      -1.463  11.324  23.203  0.00  0.00    +0.000 A 
ATOM     24  C   UNL     1      -0.679  10.209  22.975  0.00  0.00    +0.000 A 
ATOM     25  N   UNL     1      -0.216   9.842  21.756  0.00  0.00    +0.000 NA
ATOM     26  C   UNL     1      -0.513  10.635  20.698  0.00  0.00    +0.000 A 
ENDBRANCH   3  17
TORSDOF 2
ENDMDL
MODEL 5
REMARK VINA RESULT:      -7.5      2.755      7.983
REMARK  Name = 
REMARK  3 active torsions:
REMARK  status: ('A' for Active; 'I' for Inactive)
REMARK    1  A    between atoms: C_1  and  C_2
REMARK    2  A    between atoms: C_10  and  C_11
REMARK    3  A    between atoms: N_13  and  C_14
REMARK                            x       y       z     vdW  Elec       q    Type
REMARK                         _______ _______ _______ _____ _____    ______ ____
ROOT
ATOM      1  C   UNL     1       2.210   8.803  18.135  0.00  0.00    +0.000 C 
ATOM      2  O   UNL     1       2.431   9.358  17.062  0.00  0.00    +0.000 OA
ATOM      3  N   UNL     1       1.177   9.128  18.993  0.00  0.00    +0.000 N 
ATOM      4  H   UNL     1       1.296   8.966  19.991  0.00  0.00    +0.000 HD
ENDROOT
BRANCH   1  14
ATOM      5  C   UNL     1       1.791   2.271  21.608  0.00  0.00    +0.000 C 
ATOM      6  C   UNL     1       2.577   3.161  20.707  0.00  0.00    +0.000 A 
ATOM      7  C   UNL     1       3.768   2.867  20.190  0.00  0.00    +0.000 A 
ATOM      8  N   UNL     1       4.487   3.678  19.366  0.00  0.00    +0.000 NA
ATOM      9  C   UNL     1       3.991   4.838  19.079  0.00  0.00    +0.000 A 
ATOM     10  N   UNL     1       2.790   5.311  19.564  0.00  0.00    +0.000 N 
ATOM     11  C   UNL     1       1.999   4.475  20.340  0.00  0.00    +0.000 A 
ATOM     12  O   UNL     1       0.866   4.767  20.717  0.00  0.00    +0.000 OA
ATOM     13  C   UNL     1       2.159   6.572  19.178  0.00  0.00    +0.000 C 
ATOM     14  C   UNL     1       3.074   7.645  18.614  0.00  0.00    +0.000 C 
ATOM     15  C   UNL     1       3.835   7.057  17.441  0.00  0.00    +0.000 C 
ATOM     16  S   UNL     1       4.995   5.833  18.053  0.00  0.00    +0.000 S 
ENDBRANCH   1  14
BRANCH   3  17
ATOM     17  C   UNL     1       0.153  10.069  18.694  0.00  0.00    +0.000 A 
ATOM     18  C   UNL     1      -0.892   9.750  17.816  0.00  0.00    +0.000 A 
ATOM     19  C   UNL     1      -1.899  10.675  17.559  0.00  0.00    +0.000 A 
ATOM     20  C   UNL     1      -1.868  11.917  18.182  0.00  0.00    +0.000 A 
ATOM     21  C   UNL     1      -0.832  12.239  19.073  0.00  0.00    +0.000 A 
ATOM     22  C   UNL     1      -0.793  13.485  19.711  0.00  0.00    +0.000 A 
ATOM     23  C   UNL     1       0.260  13.797  20.559  0.00  0.00    +0.000 A 
ATOM     24  C   UNL     1       1.245  12.845  20.742  0.00  0.00    +0.000 A 
ATOM     25  N   UNL     1       1.230  11.617  20.172  0.00  0.00    +0.000 NA
ATOM     26  C   UNL     1       0.202  11.313  19.343  0.00  0.00    +0.000 A 
ENDBRANCH   3  17
TORSDOF 2
ENDMDL
MODEL 6
REMARK VINA RESULT:      -7.5      2.951      8.342
REMARK  Name = 
REMARK  3 active torsions:
REMARK  status: ('A' for Active; 'I' for Inactive)
REMARK    1  A    between atoms: C_1  and  C_2
REMARK    2  A    between atoms: C_10  and  C_11
REMARK    3  A    between atoms: N_13  and  C_14
REMARK                            x       y       z     vdW  Elec       q    Type
REMARK                         _______ _______ _______ _____ _____    ______ ____
ROOT
ATOM      1  C   UNL     1       1.967   8.225  18.897  0.00  0.00    +0.000 C 
ATOM      2  O   UNL     1       1.889   8.442  20.103  0.00  0.00    +0.000 OA
ATOM      3  N   UNL     1       1.738   9.164  17.910  0.00  0.00    +0.000 N 
ATOM      4  H   UNL     1       1.395   8.852  17.003  0.00  0.00    +0.000 HD
ENDROOT
BRANCH   1  14
ATOM      5  C   UNL     1       6.814   4.917  14.373  0.00  0.00    +0.000 C 
ATOM      6  C   UNL     1       5.869   4.771  15.516  0.00  0.00    +0.000 A 
ATOM      7  C   UNL     1       5.606   3.631  16.150  0.00  0.00    +0.000 A 
ATOM      8  N   UNL     1       4.744   3.496  17.196  0.00  0.00    +0.000 NA
ATOM      9  C   UNL     1       4.107   4.550  17.591  0.00  0.00    +0.000 A 
ATOM     10  N   UNL     1       4.234   5.796  17.016  0.00  0.00    +0.000 N 
ATOM     11  C   UNL     1       5.165   5.981  16.004  0.00  0.00    +0.000 A 
ATOM     12  O   UNL     1       5.431   7.077  15.513  0.00  0.00    +0.000 OA
ATOM     13  C   UNL     1       3.607   7.023  17.506  0.00  0.00    +0.000 C 
ATOM     14  C   UNL     1       2.369   6.855  18.370  0.00  0.00    +0.000 C 
ATOM     15  C   UNL     1       2.717   5.943  19.530  0.00  0.00    +0.000 C 
ATOM     16  S   UNL     1       2.989   4.283  18.906  0.00  0.00    +0.000 S 
ENDBRANCH   1  14
BRANCH   3  17
ATOM     17  C   UNL     1       1.498  10.544  18.157  0.00  0.00    +0.000 A 
ATOM     18  C   UNL     1       2.548  11.473  18.162  0.00  0.00    +0.000 A 
ATOM     19  C   UNL     1       2.288  12.823  18.378  0.00  0.00    +0.000 A 
ATOM     20  C   UNL     1       0.981  13.249  18.582  0.00  0.00    +0.000 A 
ATOM     21  C   UNL     1      -0.077  12.326  18.565  0.00  0.00    +0.000 A 
ATOM     22  C   UNL     1      -1.398  12.744  18.765  0.00  0.00    +0.000 A 
ATOM     23  C   UNL     1      -2.425  11.810  18.781  0.00  0.00    +0.000 A 
ATOM     24  C   UNL     1      -2.093  10.481  18.595  0.00  0.00    +0.000 A 
ATOM     25  N   UNL     1      -0.834  10.038  18.367  0.00  0.00    +0.000 NA
ATOM     26  C   UNL     1       0.169  10.950  18.352  0.00  0.00    +0.000 A 
ENDBRANCH   3  17
TORSDOF 2
ENDMDL
MODEL 7
REMARK VINA RESULT:      -7.5      2.603      8.312
REMARK  Name = 
REMARK  3 active torsions:
REMARK  status: ('A' for Active; 'I' for Inactive)
REMARK    1  A    between atoms: C_1  and  C_2
REMARK    2  A    between atoms: C_10  and  C_11
REMARK    3  A    between atoms: N_13  and  C_14
REMARK                            x       y       z     vdW  Elec       q    Type
REMARK                         _______ _______ _______ _____ _____    ______ ____
ROOT
ATOM      1  C   UNL     1       1.522   8.272  20.084  0.00  0.00    +0.000 C 
ATOM      2  O   UNL     1       1.032   7.891  21.143  0.00  0.00    +0.000 OA
ATOM      3  N   UNL     1       1.173   9.437  19.428  0.00  0.00    +0.000 N 
ATOM      4  H   UNL     1       1.267   9.479  18.415  0.00  0.00    +0.000 HD
ENDROOT
BRANCH   1  14
ATOM      5  C   UNL     1       3.551   1.329  18.480  0.00  0.00    +0.000 C 
ATOM      6  C   UNL     1       3.688   2.778  18.160  0.00  0.00    +0.000 A 
ATOM      7  C   UNL     1       4.486   3.282  17.220  0.00  0.00    +0.000 A 
ATOM      8  N   UNL     1       4.611   4.605  16.926  0.00  0.00    +0.000 NA
ATOM      9  C   UNL     1       3.925   5.447  17.629  0.00  0.00    +0.000 A 
ATOM     10  N   UNL     1       3.086   5.093  18.663  0.00  0.00    +0.000 N 
ATOM     11  C   UNL     1       2.875   3.747  18.931  0.00  0.00    +0.000 A 
ATOM     12  O   UNL     1       2.059   3.336  19.754  0.00  0.00    +0.000 OA
ATOM     13  C   UNL     1       2.222   6.010  19.406  0.00  0.00    +0.000 C 
ATOM     14  C   UNL     1       2.621   7.476  19.395  0.00  0.00    +0.000 C 
ATOM     15  C   UNL     1       2.750   7.926  17.953  0.00  0.00    +0.000 C 
ATOM     16  S   UNL     1       4.177   7.125  17.217  0.00  0.00    +0.000 S 
ENDBRANCH   1  14
BRANCH   3  17
ATOM     17  C   UNL     1       0.284  10.416  19.951  0.00  0.00    +0.000 A 
ATOM     18  C   UNL     1       0.578  11.104  21.136  0.00  0.00    +0.000 A 
ATOM     19  C   UNL     1      -0.291  12.079  21.616  0.00  0.00    +0.000 A 
ATOM     20  C   UNL     1      -1.453  12.373  20.910  0.00  0.00    +0.000 A 
ATOM     21  C   UNL     1      -1.748  11.697  19.716  0.00  0.00    +0.000 A 
ATOM     22  C   UNL     1      -2.912  11.988  18.994  0.00  0.00    +0.000 A 
ATOM     23  C   UNL     1      -3.203  11.282  17.835  0.00  0.00    +0.000 A 
ATOM     24  C   UNL     1      -2.313  10.303  17.434  0.00  0.00    +0.000 A 
ATOM     25  N   UNL     1      -1.161  10.012  18.084  0.00  0.00    +0.000 NA
ATOM     26  C   UNL     1      -0.878  10.701  19.216  0.00  0.00    +0.000 A 
ENDBRANCH   3  17
TORSDOF 2
ENDMDL
MODEL 8
REMARK VINA RESULT:      -7.4      1.851      3.075
REMARK  Name = 
REMARK  3 active torsions:
REMARK  status: ('A' for Active; 'I' for Inactive)
REMARK    1  A    between atoms: C_1  and  C_2
REMARK    2  A    between atoms: C_10  and  C_11
REMARK    3  A    between atoms: N_13  and  C_14
REMARK                            x       y       z     vdW  Elec       q    Type
REMARK                         _______ _______ _______ _____ _____    ______ ____
ROOT
ATOM      1  C   UNL     1       1.796   6.786  20.496  0.00  0.00    +0.000 C 
ATOM      2  O   UNL     1       1.545   5.762  21.127  0.00  0.00    +0.000 OA
ATOM      3  N   UNL     1       2.389   6.818  19.249  0.00  0.00    +0.000 N 
ATOM      4  H   UNL     1       2.945   7.630  18.988  0.00  0.00    +0.000 HD
ENDROOT
BRANCH   1  14
ATOM      5  C   UNL     1       1.143  13.886  18.480  0.00  0.00    +0.000 C 
ATOM      6  C   UNL     1       0.773  12.824  19.459  0.00  0.00    +0.000 A 
ATOM      7  C   UNL     1       0.015  13.008  20.537  0.00  0.00    +0.000 A 
ATOM      8  N   UNL     1      -0.325  12.039  21.431  0.00  0.00    +0.000 NA
ATOM      9  C   UNL     1       0.146  10.849  21.238  0.00  0.00    +0.000 A 
ATOM     10  N   UNL     1       0.978  10.502  20.195  0.00  0.00    +0.000 N 
ATOM     11  C   UNL     1       1.274  11.449  19.224  0.00  0.00    +0.000 A 
ATOM     12  O   UNL     1       1.908  11.200  18.201  0.00  0.00    +0.000 OA
ATOM     13  C   UNL     1       1.441   9.148  19.895  0.00  0.00    +0.000 C 
ATOM     14  C   UNL     1       1.431   8.157  21.047  0.00  0.00    +0.000 C 
ATOM     15  C   UNL     1       0.033   8.117  21.632  0.00  0.00    +0.000 C 
ATOM     16  S   UNL     1      -0.300   9.677  22.454  0.00  0.00    +0.000 S 
ENDBRANCH   1  14
BRANCH   3  17
ATOM     17  C   UNL     1       2.680   5.665  18.469  0.00  0.00    +0.000 A 
ATOM     18  C   UNL     1       1.819   4.559  18.459  0.00  0.00    +0.000 A 
ATOM     19  C   UNL     1       2.108   3.451  17.668  0.00  0.00    +0.000 A 
ATOM     20  C   UNL     1       3.254   3.448  16.881  0.00  0.00    +0.000 A 
ATOM     21  C   UNL     1       4.115   4.557  16.875  0.00  0.00    +0.000 A 
ATOM     22  C   UNL     1       5.269   4.568  16.083  0.00  0.00    +0.000 A 
ATOM     23  C   UNL     1       6.125   5.659  16.120  0.00  0.00    +0.000 A 
ATOM     24  C   UNL     1       5.796   6.710  16.955  0.00  0.00    +0.000 A 
ATOM     25  N   UNL     1       4.675   6.755  17.713  0.00  0.00    +0.000 NA
ATOM     26  C   UNL     1       3.839   5.689  17.676  0.00  0.00    +0.000 A 
ENDBRANCH   3  17
TORSDOF 2
ENDMDL
MODEL 9
REMARK VINA RESULT:      -7.4      1.278      1.338
REMARK  Name = 
REMARK  3 active torsions:
REMARK  status: ('A' for Active; 'I' for Inactive)
REMARK    1  A    between atoms: C_1  and  C_2
REMARK    2  A    between atoms: C_10  and  C_11
REMARK    3  A    between atoms: N_13  and  C_14
REMARK                            x       y       z     vdW  Elec       q    Type
REMARK                         _______ _______ _______ _____ _____    ______ ____
ROOT
ATOM      1  C   UNL     1       1.587   8.603  19.747  0.00  0.00    +0.000 C 
ATOM      2  O   UNL     1       1.700   9.005  18.592  0.00  0.00    +0.000 OA
ATOM      3  N   UNL     1       1.990   7.359  20.192  0.00  0.00    +0.000 N 
ATOM      4  H   UNL     1       1.503   6.936  20.981  0.00  0.00    +0.000 HD
ENDROOT
BRANCH   1  14
ATOM      5  C   UNL     1      -3.292  14.085  20.776  0.00  0.00    +0.000 C 
ATOM      6  C   UNL     1      -2.513  12.971  21.389  0.00  0.00    +0.000 A 
ATOM      7  C   UNL     1      -2.531  12.645  22.679  0.00  0.00    +0.000 A 
ATOM      8  N   UNL     1      -1.821  11.628  23.240  0.00  0.00    +0.000 NA
ATOM      9  C   UNL     1      -1.046  10.937  22.469  0.00  0.00    +0.000 A 
ATOM     10  N   UNL     1      -0.881  11.171  21.121  0.00  0.00    +0.000 N 
ATOM     11  C   UNL     1      -1.653  12.148  20.507  0.00  0.00    +0.000 A 
ATOM     12  O   UNL     1      -1.660  12.347  19.293  0.00  0.00    +0.000 OA
ATOM     13  C   UNL     1      -0.093  10.345  20.207  0.00  0.00    +0.000 C 
ATOM     14  C   UNL     1       0.997   9.491  20.833  0.00  0.00    +0.000 C 
ATOM     15  C   UNL     1       0.369   8.630  21.912  0.00  0.00    +0.000 C 
ATOM     16  S   UNL     1      -0.138   9.681  23.275  0.00  0.00    +0.000 S 
ENDBRANCH   1  14
BRANCH   3  17
ATOM     17  C   UNL     1       2.703   6.417  19.402  0.00  0.00    +0.000 A 
ATOM     18  C   UNL     1       3.312   6.793  18.197  0.00  0.00    +0.000 A 
ATOM     19  C   UNL     1       4.030   5.862  17.452  0.00  0.00    +0.000 A 
ATOM     20  C   UNL     1       4.144   4.555  17.911  0.00  0.00    +0.000 A 
ATOM     21  C   UNL     1       3.548   4.173  19.123  0.00  0.00    +0.000 A 
ATOM     22  C   UNL     1       3.661   2.861  19.598  0.00  0.00    +0.000 A 
ATOM     23  C   UNL     1       3.033   2.495  20.780  0.00  0.00    +0.000 A 
ATOM     24  C   UNL     1       2.308   3.462  21.452  0.00  0.00    +0.000 A 
ATOM     25  N   UNL     1       2.199   4.749  21.046  0.00  0.00    +0.000 NA
ATOM     26  C   UNL     1       2.812   5.105  19.890  0.00  0.00    +0.000 A 
ENDBRANCH   3  17
TORSDOF 2
ENDMDL
