MODEL 1
REMARK VINA RESULT:      -7.7      0.000      0.000
REMARK  Name = 
REMARK  3 active torsions:
REMARK  status: ('A' for Active; 'I' for Inactive)
REMARK    1  A    between atoms: C_1  and  C_2
REMARK    2  A    between atoms: C_5  and  C_6
REMARK    3  A    between atoms: C_11  and  C_13
REMARK                            x       y       z     vdW  Elec       q    Type
REMARK                         _______ _______ _______ _____ _____    ______ ____
ROOT
ATOM      1  C   UNL     1       5.206   6.606  15.500  0.00  0.00    +0.000 C 
ATOM      2  C   UNL     1       4.808   5.624  16.567  0.00  0.00    +0.000 A 
ATOM      3  C   UNL     1       5.348   4.324  16.543  0.00  0.00    +0.000 A 
ATOM      4  C   UNL     1       5.014   3.382  17.511  0.00  0.00    +0.000 A 
ATOM      5  C   UNL     1       4.134   3.688  18.559  0.00  0.00    +0.000 A 
ATOM      6  C   UNL     1       3.791   2.655  19.593  0.00  0.00    +0.000 C 
ATOM      7  C   UNL     1       3.605   4.997  18.586  0.00  0.00    +0.000 A 
ATOM      8  S   UNL     1       2.539   5.703  19.752  0.00  0.00    +0.000 S 
ATOM      9  C   UNL     1       2.547   7.157  18.879  0.00  0.00    +0.000 A 
ATOM     10  N   UNL     1       1.769   8.131  19.438  0.00  0.00    +0.000 N 
ATOM     11  C   UNL     1       1.468   9.313  18.799  0.00  0.00    +0.000 C 
ATOM     12  O   UNL     1       1.856   9.623  17.675  0.00  0.00    +0.000 OA
ATOM     13  N   UNL     1       3.274   7.185  17.793  0.00  0.00    +0.000 NA
ATOM     14  C   UNL     1       3.909   5.958  17.614  0.00  0.00    +0.000 A 
ATOM     15  H   UNL     1       1.340   7.945  20.336  0.00  0.00    +0.000 HD
ENDROOT
BRANCH  11  16
ATOM     16  C   UNL     1       0.578  10.162  19.598  0.00  0.00    +0.000 A 
ATOM     17  N   UNL     1       0.417  10.027  20.904  0.00  0.00    +0.000 NA
ATOM     18  C   UNL     1      -0.514  10.962  21.351  0.00  0.00    +0.000 A 
ATOM     19  C   UNL     1      -0.948  11.140  22.682  0.00  0.00    +0.000 A 
ATOM     20  C   UNL     1      -1.917  12.107  22.979  0.00  0.00    +0.000 A 
ATOM     21  C   UNL     1      -2.458  12.899  21.971  0.00  0.00    +0.000 A 
ATOM     22  C   UNL     1      -2.036  12.753  20.647  0.00  0.00    +0.000 A 
ATOM     23  C   UNL     1      -1.061  11.783  20.360  0.00  0.00    +0.000 A 
ATOM     24  S   UNL     1      -0.351  11.387  18.846  0.00  0.00    +0.000 S 
ENDBRANCH  11  16
TORSDOF 1
ENDMDL
MODEL 2
REMARK VINA RESULT:      -7.7      1.523      8.854
REMARK  Name = 
REMARK  3 active torsions:
REMARK  status: ('A' for Active; 'I' for Inactive)
REMARK    1  A    between atoms: C_1  and  C_2
REMARK    2  A    between atoms: C_5  and  C_6
REMARK    3  A    between atoms: C_11  and  C_13
REMARK                            x       y       z     vdW  Elec       q    Type
REMARK                         _______ _______ _______ _____ _____    ______ ____
ROOT
ATOM      1  C   UNL     1      -0.286   9.559  23.455  0.00  0.00    +0.000 C 
ATOM      2  C   UNL     1      -0.457  10.440  22.248  0.00  0.00    +0.000 A 
ATOM      3  C   UNL     1      -1.243  11.603  22.350  0.00  0.00    +0.000 A 
ATOM      4  C   UNL     1      -1.426  12.454  21.264  0.00  0.00    +0.000 A 
ATOM      5  C   UNL     1      -0.827  12.195  20.022  0.00  0.00    +0.000 A 
ATOM      6  C   UNL     1      -1.036  13.129  18.866  0.00  0.00    +0.000 C 
ATOM      7  C   UNL     1      -0.028  11.034  19.929  0.00  0.00    +0.000 A 
ATOM      8  S   UNL     1       0.876  10.457  18.571  0.00  0.00    +0.000 S 
ATOM      9  C   UNL     1       1.387   9.119  19.480  0.00  0.00    +0.000 A 
ATOM     10  N   UNL     1       2.195   8.266  18.784  0.00  0.00    +0.000 N 
ATOM     11  C   UNL     1       2.560   7.023  19.253  0.00  0.00    +0.000 C 
ATOM     12  O   UNL     1       2.207   6.547  20.329  0.00  0.00    +0.000 OA
ATOM     13  N   UNL     1       0.957   9.049  20.713  0.00  0.00    +0.000 NA
ATOM     14  C   UNL     1       0.157  10.152  21.001  0.00  0.00    +0.000 A 
ATOM     15  H   UNL     1       2.486   8.534  17.852  0.00  0.00    +0.000 HD
ENDROOT
BRANCH  11  16
ATOM     16  C   UNL     1       3.394   6.293  18.293  0.00  0.00    +0.000 A 
ATOM     17  N   UNL     1       4.068   6.878  17.317  0.00  0.00    +0.000 NA
ATOM     18  C   UNL     1       4.729   5.906  16.568  0.00  0.00    +0.000 A 
ATOM     19  C   UNL     1       5.559   6.133  15.449  0.00  0.00    +0.000 A 
ATOM     20  C   UNL     1       6.137   5.050  14.775  0.00  0.00    +0.000 A 
ATOM     21  C   UNL     1       5.902   3.746  15.201  0.00  0.00    +0.000 A 
ATOM     22  C   UNL     1       5.096   3.494  16.314  0.00  0.00    +0.000 A 
ATOM     23  C   UNL     1       4.524   4.588  16.985  0.00  0.00    +0.000 A 
ATOM     24  S   UNL     1       3.509   4.587  18.372  0.00  0.00    +0.000 S 
ENDBRANCH  11  16
TORSDOF 1
ENDMDL
MODEL 3
REMARK VINA RESULT:      -7.7      1.990      2.744
REMARK  Name = 
REMARK  3 active torsions:
REMARK  status: ('A' for Active; 'I' for Inactive)
REMARK    1  A    between atoms: C_1  and  C_2
REMARK    2  A    between atoms: C_5  and  C_6
REMARK    3  A    between atoms: C_11  and  C_13
REMARK                            x       y       z     vdW  Elec       q    Type
REMARK                         _______ _______ _______ _____ _____    ______ ____
ROOT
ATOM      1  C   UNL     1       4.515   4.087  16.572  0.00  0.00    +0.000 C 
ATOM      2  C   UNL     1       3.817   3.804  17.873  0.00  0.00    +0.000 A 
ATOM      3  C   UNL     1       3.851   2.500  18.403  0.00  0.00    +0.000 A 
ATOM      4  C   UNL     1       3.226   2.189  19.607  0.00  0.00    +0.000 A 
ATOM      5  C   UNL     1       2.543   3.163  20.350  0.00  0.00    +0.000 A 
ATOM      6  C   UNL     1       1.878   2.804  21.648  0.00  0.00    +0.000 C 
ATOM      7  C   UNL     1       2.523   4.472  19.821  0.00  0.00    +0.000 A 
ATOM      8  S   UNL     1       1.815   5.897  20.502  0.00  0.00    +0.000 S 
ATOM      9  C   UNL     1       2.324   6.793  19.154  0.00  0.00    +0.000 A 
ATOM     10  N   UNL     1       1.964   8.109  19.210  0.00  0.00    +0.000 N 
ATOM     11  C   UNL     1       2.093   8.971  18.144  0.00  0.00    +0.000 C 
ATOM     12  O   UNL     1       2.538   8.662  17.041  0.00  0.00    +0.000 OA
ATOM     13  N   UNL     1       2.983   6.142  18.232  0.00  0.00    +0.000 NA
ATOM     14  C   UNL     1       3.128   4.807  18.604  0.00  0.00    +0.000 A 
ATOM     15  H   UNL     1       1.521   8.450  20.054  0.00  0.00    +0.000 HD
ENDROOT
BRANCH  11  16
ATOM     16  C   UNL     1       1.591  10.314  18.453  0.00  0.00    +0.000 A 
ATOM     17  N   UNL     1       2.244  11.425  18.154  0.00  0.00    +0.000 NA
ATOM     18  C   UNL     1       1.516  12.522  18.610  0.00  0.00    +0.000 A 
ATOM     19  C   UNL     1       1.876  13.880  18.474  0.00  0.00    +0.000 A 
ATOM     20  C   UNL     1       1.054  14.879  19.010  0.00  0.00    +0.000 A 
ATOM     21  C   UNL     1      -0.121  14.546  19.677  0.00  0.00    +0.000 A 
ATOM     22  C   UNL     1      -0.508  13.210  19.814  0.00  0.00    +0.000 A 
ATOM     23  C   UNL     1       0.322  12.216  19.269  0.00  0.00    +0.000 A 
ATOM     24  S   UNL     1       0.102  10.511  19.275  0.00  0.00    +0.000 S 
ENDBRANCH  11  16
TORSDOF 1
ENDMDL
MODEL 4
REMARK VINA RESULT:      -7.7      0.883      1.328
REMARK  Name = 
REMARK  3 active torsions:
REMARK  status: ('A' for Active; 'I' for Inactive)
REMARK    1  A    between atoms: C_1  and  C_2
REMARK    2  A    between atoms: C_5  and  C_6
REMARK    3  A    between atoms: C_11  and  C_13
REMARK                            x       y       z     vdW  Elec       q    Type
REMARK                         _______ _______ _______ _____ _____    ______ ____
ROOT
ATOM      1  C   UNL     1       5.210   6.661  15.510  0.00  0.00    +0.000 C 
ATOM      2  C   UNL     1       4.814   5.581  16.478  0.00  0.00    +0.000 A 
ATOM      3  C   UNL     1       5.344   4.287  16.322  0.00  0.00    +0.000 A 
ATOM      4  C   UNL     1       5.013   3.255  17.195  0.00  0.00    +0.000 A 
ATOM      5  C   UNL     1       4.143   3.462  18.276  0.00  0.00    +0.000 A 
ATOM      6  C   UNL     1       3.803   2.334  19.207  0.00  0.00    +0.000 C 
ATOM      7  C   UNL     1       3.624   4.765  18.437  0.00  0.00    +0.000 A 
ATOM      8  S   UNL     1       2.573   5.359  19.676  0.00  0.00    +0.000 S 
ATOM      9  C   UNL     1       2.583   6.892  18.951  0.00  0.00    +0.000 A 
ATOM     10  N   UNL     1       1.816   7.810  19.610  0.00  0.00    +0.000 N 
ATOM     11  C   UNL     1       1.518   9.051  19.093  0.00  0.00    +0.000 C 
ATOM     12  O   UNL     1       1.899   9.468  18.002  0.00  0.00    +0.000 OA
ATOM     13  N   UNL     1       3.301   7.022  17.866  0.00  0.00    +0.000 NA
ATOM     14  C   UNL     1       3.926   5.816  17.562  0.00  0.00    +0.000 A 
ATOM     15  H   UNL     1       1.394   7.540  20.489  0.00  0.00    +0.000 HD
ENDROOT
BRANCH  11  16
ATOM     16  C   UNL     1       0.641   9.823  19.980  0.00  0.00    +0.000 A 
ATOM     17  N   UNL     1      -0.058  10.874  19.582  0.00  0.00    +0.000 NA
ATOM     18  C   UNL     1      -0.759  11.396  20.668  0.00  0.00    +0.000 A 
ATOM     19  C   UNL     1      -1.623  12.512  20.647  0.00  0.00    +0.000 A 
ATOM     20  C   UNL     1      -2.240  12.942  21.829  0.00  0.00    +0.000 A 
ATOM     21  C   UNL     1      -2.010  12.277  23.029  0.00  0.00    +0.000 A 
ATOM     22  C   UNL     1      -1.169  11.161  23.075  0.00  0.00    +0.000 A 
ATOM     23  C   UNL     1      -0.559  10.736  21.883  0.00  0.00    +0.000 A 
ATOM     24  S   UNL     1       0.503   9.407  21.634  0.00  0.00    +0.000 S 
ENDBRANCH  11  16
TORSDOF 1
ENDMDL
MODEL 5
REMARK VINA RESULT:      -7.6      1.972      3.040
REMARK  Name = 
REMARK  3 active torsions:
REMARK  status: ('A' for Active; 'I' for Inactive)
REMARK    1  A    between atoms: C_1  and  C_2
REMARK    2  A    between atoms: C_5  and  C_6
REMARK    3  A    between atoms: C_11  and  C_13
REMARK                            x       y       z     vdW  Elec       q    Type
REMARK                         _______ _______ _______ _____ _____    ______ ____
ROOT
ATOM      1  C   UNL     1       1.851   3.304  21.624  0.00  0.00    +0.000 C 
ATOM      2  C   UNL     1       2.655   3.578  20.383  0.00  0.00    +0.000 A 
ATOM      3  C   UNL     1       3.388   2.531  19.793  0.00  0.00    +0.000 A 
ATOM      4  C   UNL     1       4.143   2.732  18.641  0.00  0.00    +0.000 A 
ATOM      5  C   UNL     1       4.198   3.984  18.011  0.00  0.00    +0.000 A 
ATOM      6  C   UNL     1       5.016   4.176  16.767  0.00  0.00    +0.000 C 
ATOM      7  C   UNL     1       3.450   5.027  18.599  0.00  0.00    +0.000 A 
ATOM      8  S   UNL     1       3.269   6.660  18.055  0.00  0.00    +0.000 S 
ATOM      9  C   UNL     1       2.274   6.994  19.387  0.00  0.00    +0.000 A 
ATOM     10  N   UNL     1       1.833   8.286  19.427  0.00  0.00    +0.000 N 
ATOM     11  C   UNL     1       1.186   8.828  20.514  0.00  0.00    +0.000 C 
ATOM     12  O   UNL     1       0.935   8.225  21.555  0.00  0.00    +0.000 OA
ATOM     13  N   UNL     1       2.048   6.005  20.213  0.00  0.00    +0.000 NA
ATOM     14  C   UNL     1       2.698   4.857  19.768  0.00  0.00    +0.000 A 
ATOM     15  H   UNL     1       2.052   8.891  18.645  0.00  0.00    +0.000 HD
ENDROOT
BRANCH  11  16
ATOM     16  C   UNL     1       0.862  10.245  20.316  0.00  0.00    +0.000 A 
ATOM     17  N   UNL     1       1.008  11.167  21.253  0.00  0.00    +0.000 NA
ATOM     18  C   UNL     1       0.583  12.398  20.757  0.00  0.00    +0.000 A 
ATOM     19  C   UNL     1       0.590  13.626  21.451  0.00  0.00    +0.000 A 
ATOM     20  C   UNL     1       0.102  14.783  20.830  0.00  0.00    +0.000 A 
ATOM     21  C   UNL     1      -0.391  14.734  19.530  0.00  0.00    +0.000 A 
ATOM     22  C   UNL     1      -0.397  13.533  18.816  0.00  0.00    +0.000 A 
ATOM     23  C   UNL     1       0.098  12.379  19.446  0.00  0.00    +0.000 A 
ATOM     24  S   UNL     1       0.223  10.783  18.821  0.00  0.00    +0.000 S 
ENDBRANCH  11  16
TORSDOF 1
ENDMDL
MODEL 6
REMARK VINA RESULT:      -7.5      1.613      2.266
REMARK  Name = 
REMARK  3 active torsions:
REMARK  status: ('A' for Active; 'I' for Inactive)
REMARK    1  A    between atoms: C_1  and  C_2
REMARK    2  A    between atoms: C_5  and  C_6
REMARK    3  A    between atoms: C_11  and  C_13
REMARK                            x       y       z     vdW  Elec       q    Type
REMARK                         _______ _______ _______ _____ _____    ______ ____
ROOT
ATOM      1  C   UNL     1       4.595   4.412  16.590  0.00  0.00    +0.000 C 
ATOM      2  C   UNL     1       3.916   4.052  17.884  0.00  0.00    +0.000 A 
ATOM      3  C   UNL     1       4.022   2.737  18.374  0.00  0.00    +0.000 A 
ATOM      4  C   UNL     1       3.417   2.357  19.568  0.00  0.00    +0.000 A 
ATOM      5  C   UNL     1       2.684   3.269  20.341  0.00  0.00    +0.000 A 
ATOM      6  C   UNL     1       2.043   2.837  21.628  0.00  0.00    +0.000 C 
ATOM      7  C   UNL     1       2.593   4.591  19.851  0.00  0.00    +0.000 A 
ATOM      8  S   UNL     1       1.810   5.954  20.575  0.00  0.00    +0.000 S 
ATOM      9  C   UNL     1       2.266   6.917  19.255  0.00  0.00    +0.000 A 
ATOM     10  N   UNL     1       1.836   8.209  19.350  0.00  0.00    +0.000 N 
ATOM     11  C   UNL     1       1.916   9.108  18.310  0.00  0.00    +0.000 C 
ATOM     12  O   UNL     1       2.374   8.857  17.198  0.00  0.00    +0.000 OA
ATOM     13  N   UNL     1       2.958   6.330  18.313  0.00  0.00    +0.000 NA
ATOM     14  C   UNL     1       3.176   4.995  18.644  0.00  0.00    +0.000 A 
ATOM     15  H   UNL     1       1.377   8.500  20.204  0.00  0.00    +0.000 HD
ENDROOT
BRANCH  11  16
ATOM     16  C   UNL     1       1.343  10.412  18.660  0.00  0.00    +0.000 A 
ATOM     17  N   UNL     1       0.187  10.558  19.288  0.00  0.00    +0.000 NA
ATOM     18  C   UNL     1      -0.085  11.916  19.440  0.00  0.00    +0.000 A 
ATOM     19  C   UNL     1      -1.218  12.476  20.067  0.00  0.00    +0.000 A 
ATOM     20  C   UNL     1      -1.371  13.868  20.120  0.00  0.00    +0.000 A 
ATOM     21  C   UNL     1      -0.413  14.707  19.561  0.00  0.00    +0.000 A 
ATOM     22  C   UNL     1       0.725  14.178  18.945  0.00  0.00    +0.000 A 
ATOM     23  C   UNL     1       0.871  12.781  18.900  0.00  0.00    +0.000 A 
ATOM     24  S   UNL     1       2.153  11.856  18.227  0.00  0.00    +0.000 S 
ENDBRANCH  11  16
TORSDOF 1
ENDMDL
MODEL 7
REMARK VINA RESULT:      -7.3      2.062      3.271
REMARK  Name = 
REMARK  3 active torsions:
REMARK  status: ('A' for Active; 'I' for Inactive)
REMARK    1  A    between atoms: C_1  and  C_2
REMARK    2  A    between atoms: C_5  and  C_6
REMARK    3  A    between atoms: C_11  and  C_13
REMARK                            x       y       z     vdW  Elec       q    Type
REMARK                         _______ _______ _______ _____ _____    ______ ____
ROOT
ATOM      1  C   UNL     1       1.670   3.198  21.412  0.00  0.00    +0.000 C 
ATOM      2  C   UNL     1       2.530   3.524  20.222  0.00  0.00    +0.000 A 
ATOM      3  C   UNL     1       3.284   2.502  19.616  0.00  0.00    +0.000 A 
ATOM      4  C   UNL     1       4.090   2.753  18.510  0.00  0.00    +0.000 A 
ATOM      5  C   UNL     1       4.178   4.032  17.943  0.00  0.00    +0.000 A 
ATOM      6  C   UNL     1       5.052   4.278  16.747  0.00  0.00    +0.000 C 
ATOM      7  C   UNL     1       3.409   5.052  18.547  0.00  0.00    +0.000 A 
ATOM      8  S   UNL     1       3.260   6.710  18.073  0.00  0.00    +0.000 S 
ATOM      9  C   UNL     1       2.208   6.986  19.375  0.00  0.00    +0.000 A 
ATOM     10  N   UNL     1       1.772   8.278  19.456  0.00  0.00    +0.000 N 
ATOM     11  C   UNL     1       1.079   8.772  20.539  0.00  0.00    +0.000 C 
ATOM     12  O   UNL     1       0.780   8.122  21.537  0.00  0.00    +0.000 OA
ATOM     13  N   UNL     1       1.941   5.961  20.141  0.00  0.00    +0.000 NA
ATOM     14  C   UNL     1       2.605   4.831  19.672  0.00  0.00    +0.000 A 
ATOM     15  H   UNL     1       2.027   8.918  18.715  0.00  0.00    +0.000 HD
ENDROOT
BRANCH  11  16
ATOM     16  C   UNL     1       0.770  10.198  20.394  0.00  0.00    +0.000 A 
ATOM     17  N   UNL     1       1.107  10.915  19.334  0.00  0.00    +0.000 NA
ATOM     18  C   UNL     1       0.698  12.234  19.522  0.00  0.00    +0.000 A 
ATOM     19  C   UNL     1       0.868  13.300  18.613  0.00  0.00    +0.000 A 
ATOM     20  C   UNL     1       0.428  14.586  18.953  0.00  0.00    +0.000 A 
ATOM     21  C   UNL     1      -0.179  14.824  20.182  0.00  0.00    +0.000 A 
ATOM     22  C   UNL     1      -0.372  13.783  21.095  0.00  0.00    +0.000 A 
ATOM     23  C   UNL     1       0.070  12.497  20.743  0.00  0.00    +0.000 A 
ATOM     24  S   UNL     1      -0.039  11.039  21.646  0.00  0.00    +0.000 S 
ENDBRANCH  11  16
TORSDOF 1
ENDMDL
MODEL 8
REMARK VINA RESULT:      -7.3      1.882      2.864
REMARK  Name = 
REMARK  3 active torsions:
REMARK  status: ('A' for Active; 'I' for Inactive)
REMARK    1  A    between atoms: C_1  and  C_2
REMARK    2  A    between atoms: C_5  and  C_6
REMARK    3  A    between atoms: C_11  and  C_13
REMARK                            x       y       z     vdW  Elec       q    Type
REMARK                         _______ _______ _______ _____ _____    ______ ____
ROOT
ATOM      1  C   UNL     1       2.492   2.754  19.734  0.00  0.00    +0.000 C 
ATOM      2  C   UNL     1       3.229   3.576  18.713  0.00  0.00    +0.000 A 
ATOM      3  C   UNL     1       4.070   2.931  17.787  0.00  0.00    +0.000 A 
ATOM      4  C   UNL     1       4.769   3.648  16.819  0.00  0.00    +0.000 A 
ATOM      5  C   UNL     1       4.658   5.042  16.718  0.00  0.00    +0.000 A 
ATOM      6  C   UNL     1       5.419   5.793  15.664  0.00  0.00    +0.000 C 
ATOM      7  C   UNL     1       3.802   5.682  17.641  0.00  0.00    +0.000 A 
ATOM      8  S   UNL     1       3.412   7.365  17.758  0.00  0.00    +0.000 S 
ATOM      9  C   UNL     1       2.414   7.040  19.091  0.00  0.00    +0.000 A 
ATOM     10  N   UNL     1       1.821   8.156  19.610  0.00  0.00    +0.000 N 
ATOM     11  C   UNL     1       1.137   8.158  20.805  0.00  0.00    +0.000 C 
ATOM     12  O   UNL     1       0.984   7.177  21.529  0.00  0.00    +0.000 OA
ATOM     13  N   UNL     1       2.328   5.791  19.468  0.00  0.00    +0.000 NA
ATOM     14  C   UNL     1       3.103   4.988  18.635  0.00  0.00    +0.000 A 
ATOM     15  H   UNL     1       1.947   9.035  19.125  0.00  0.00    +0.000 HD
ENDROOT
BRANCH  11  16
ATOM     16  C   UNL     1       0.639   9.492  21.155  0.00  0.00    +0.000 A 
ATOM     17  N   UNL     1       0.958  10.590  20.488  0.00  0.00    +0.000 NA
ATOM     18  C   UNL     1       0.348  11.688  21.092  0.00  0.00    +0.000 A 
ATOM     19  C   UNL     1       0.440  13.031  20.671  0.00  0.00    +0.000 A 
ATOM     20  C   UNL     1      -0.209  14.038  21.398  0.00  0.00    +0.000 A 
ATOM     21  C   UNL     1      -0.947  13.726  22.535  0.00  0.00    +0.000 A 
ATOM     22  C   UNL     1      -1.064  12.401  22.966  0.00  0.00    +0.000 A 
ATOM     23  C   UNL     1      -0.413  11.399  22.228  0.00  0.00    +0.000 A 
ATOM     24  S   UNL     1      -0.387   9.703  22.509  0.00  0.00    +0.000 S 
ENDBRANCH  11  16
TORSDOF 1
ENDMDL
MODEL 9
REMARK VINA RESULT:      -7.2      1.530      2.539
REMARK  Name = 
REMARK  3 active torsions:
REMARK  status: ('A' for Active; 'I' for Inactive)
REMARK    1  A    between atoms: C_1  and  C_2
REMARK    2  A    between atoms: C_5  and  C_6
REMARK    3  A    between atoms: C_11  and  C_13
REMARK                            x       y       z     vdW  Elec       q    Type
REMARK                         _______ _______ _______ _____ _____    ______ ____
ROOT
ATOM      1  C   UNL     1       2.897   3.459  20.410  0.00  0.00    +0.000 C 
ATOM      2  C   UNL     1       3.478   4.148  19.206  0.00  0.00    +0.000 A 
ATOM      3  C   UNL     1       4.323   3.427  18.341  0.00  0.00    +0.000 A 
ATOM      4  C   UNL     1       4.880   4.019  17.211  0.00  0.00    +0.000 A 
ATOM      5  C   UNL     1       4.616   5.355  16.879  0.00  0.00    +0.000 A 
ATOM      6  C   UNL     1       5.226   5.971  15.652  0.00  0.00    +0.000 C 
ATOM      7  C   UNL     1       3.757   6.070  17.742  0.00  0.00    +0.000 A 
ATOM      8  S   UNL     1       3.200   7.702  17.597  0.00  0.00    +0.000 S 
ATOM      9  C   UNL     1       2.327   7.533  19.042  0.00  0.00    +0.000 A 
ATOM     10  N   UNL     1       1.653   8.664  19.405  0.00  0.00    +0.000 N 
ATOM     11  C   UNL     1       1.050   8.818  20.633  0.00  0.00    +0.000 C 
ATOM     12  O   UNL     1       1.047   7.974  21.526  0.00  0.00    +0.000 OA
ATOM     13  N   UNL     1       2.397   6.370  19.636  0.00  0.00    +0.000 NA
ATOM     14  C   UNL     1       3.198   5.505  18.895  0.00  0.00    +0.000 A 
ATOM     15  H   UNL     1       1.655   9.449  18.767  0.00  0.00    +0.000 HD
ENDROOT
BRANCH  11  16
ATOM     16  C   UNL     1       0.436  10.142  20.785  0.00  0.00    +0.000 A 
ATOM     17  N   UNL     1       0.210  10.712  21.957  0.00  0.00    +0.000 NA
ATOM     18  C   UNL     1      -0.409  11.944  21.756  0.00  0.00    +0.000 A 
ATOM     19  C   UNL     1      -0.803  12.856  22.759  0.00  0.00    +0.000 A 
ATOM     20  C   UNL     1      -1.445  14.050  22.407  0.00  0.00    +0.000 A 
ATOM     21  C   UNL     1      -1.698  14.349  21.072  0.00  0.00    +0.000 A 
ATOM     22  C   UNL     1      -1.307  13.470  20.058  0.00  0.00    +0.000 A 
ATOM     23  C   UNL     1      -0.661  12.277  20.422  0.00  0.00    +0.000 A 
ATOM     24  S   UNL     1      -0.064  11.025  19.407  0.00  0.00    +0.000 S 
ENDBRANCH  11  16
TORSDOF 1
ENDMDL
