MODEL 1
REMARK VINA RESULT:      -7.4      0.000      0.000
REMARK  Name = 
REMARK  6 active torsions:
REMARK  status: ('A' for Active; 'I' for Inactive)
REMARK    1  A    between atoms: C_1  and  C_2
REMARK    2  A    between atoms: C_2  and  O_3
REMARK    3  A    between atoms: O_3  and  C_4
REMARK    4  A    between atoms: N_9  and  C_10
REMARK    5  A    between atoms: N_14  and  C_15
REMARK    6  A    between atoms: C_15  and  C_16
REMARK                            x       y       z     vdW  Elec       q    Type
REMARK                         _______ _______ _______ _____ _____    ______ ____
ROOT
ATOM      1  C   UNL     1       8.241   8.496  18.359  0.00  0.00    +0.000 A 
ATOM      2  C   UNL     1       7.437   8.284  17.308  0.00  0.00    +0.000 A 
ATOM      3  C   UNL     1       6.894   6.942  17.021  0.00  0.00    +0.000 A 
ATOM      4  O   UNL     1       6.210   6.793  16.010  0.00  0.00    +0.000 OA
ATOM      5  N   UNL     1       7.194   5.948  17.925  0.00  0.00    +0.000 N 
ATOM      6  C   UNL     1       8.040   6.151  18.993  0.00  0.00    +0.000 A 
ATOM      7  O   UNL     1       8.369   5.277  19.795  0.00  0.00    +0.000 OA
ATOM      8  N   UNL     1       8.534   7.417  19.143  0.00  0.00    +0.000 N 
ATOM      9  H   UNL     1       9.114   7.547  19.957  0.00  0.00    +0.000 HD
ENDROOT
BRANCH   1  15
ATOM     10  C   UNL     1      10.750  13.259  19.520  0.00  0.00    +0.000 C 
ATOM     11  O   UNL     1      10.948  13.569  20.690  0.00  0.00    +0.000 OA
ATOM     12  N   UNL     1      10.541  11.967  19.099  0.00  0.00    +0.000 N 
ATOM     13  C   UNL     1      10.419  10.901  20.090  0.00  0.00    +0.000 C 
ATOM     14  C   UNL     1       9.035  10.234  20.016  0.00  0.00    +0.000 C 
ATOM     15  N   UNL     1       8.786   9.746  18.639  0.00  0.00    +0.000 N 
ATOM     16  C   UNL     1       8.876  10.835  17.629  0.00  0.00    +0.000 C 
ATOM     17  C   UNL     1      10.227  11.573  17.721  0.00  0.00    +0.000 C 
BRANCH  10  18
ATOM     18  O   UNL     1      10.629  14.163  18.512  0.00  0.00    +0.000 OA
BRANCH  18  20
ATOM     19  C   UNL     1      10.017  16.454  18.816  0.00  0.00    +0.000 C 
ATOM     20  C   UNL     1       9.500  15.041  18.621  0.00  0.00    +0.000 C 
ENDBRANCH  18  20
ENDBRANCH  10  18
ENDBRANCH   1  15
BRANCH   5  21
ATOM     21  C   UNL     1       6.568   4.644  17.762  0.00  0.00    +0.000 C 
BRANCH  21  22
ATOM     22  C   UNL     1       5.097   4.700  18.133  0.00  0.00    +0.000 A 
ATOM     23  C   UNL     1       4.702   5.186  19.390  0.00  0.00    +0.000 A 
ATOM     24  C   UNL     1       3.365   5.126  19.784  0.00  0.00    +0.000 A 
ATOM     25  C   UNL     1       2.420   4.590  18.917  0.00  0.00    +0.000 A 
ATOM     26  F   UNL     1       1.142   4.502  19.308  0.00  0.00    +0.000 F 
ATOM     27  C   UNL     1       2.785   4.129  17.657  0.00  0.00    +0.000 A 
ATOM     28  C   UNL     1       4.123   4.182  17.264  0.00  0.00    +0.000 A 
ENDBRANCH  21  22
ENDBRANCH   5  21
TORSDOF 5
ENDMDL
MODEL 2
REMARK VINA RESULT:      -7.4      0.466      1.041
REMARK  Name = 
REMARK  6 active torsions:
REMARK  status: ('A' for Active; 'I' for Inactive)
REMARK    1  A    between atoms: C_1  and  C_2
REMARK    2  A    between atoms: C_2  and  O_3
REMARK    3  A    between atoms: O_3  and  C_4
REMARK    4  A    between atoms: N_9  and  C_10
REMARK    5  A    between atoms: N_14  and  C_15
REMARK    6  A    between atoms: C_15  and  C_16
REMARK                            x       y       z     vdW  Elec       q    Type
REMARK                         _______ _______ _______ _____ _____    ______ ____
ROOT
ATOM      1  C   UNL     1       8.209   8.444  18.333  0.00  0.00    +0.000 A 
ATOM      2  C   UNL     1       7.464   8.173  17.252  0.00  0.00    +0.000 A 
ATOM      3  C   UNL     1       7.005   6.801  16.966  0.00  0.00    +0.000 A 
ATOM      4  O   UNL     1       6.376   6.599  15.929  0.00  0.00    +0.000 OA
ATOM      5  N   UNL     1       7.315   5.838  17.900  0.00  0.00    +0.000 N 
ATOM      6  C   UNL     1       8.102   6.102  19.000  0.00  0.00    +0.000 A 
ATOM      7  O   UNL     1       8.440   5.260  19.831  0.00  0.00    +0.000 OA
ATOM      8  N   UNL     1       8.522   7.394  19.148  0.00  0.00    +0.000 N 
ATOM      9  H   UNL     1       9.058   7.567  19.984  0.00  0.00    +0.000 HD
ENDROOT
BRANCH   1  15
ATOM     10  C   UNL     1      10.426  13.371  19.398  0.00  0.00    +0.000 C 
ATOM     11  O   UNL     1      10.856  13.610  20.522  0.00  0.00    +0.000 OA
ATOM     12  N   UNL     1      10.257  12.100  18.903  0.00  0.00    +0.000 N 
ATOM     13  C   UNL     1      10.474  10.953  19.781  0.00  0.00    +0.000 C 
ATOM     14  C   UNL     1       9.184  10.131  19.945  0.00  0.00    +0.000 C 
ATOM     15  N   UNL     1       8.676   9.725  18.614  0.00  0.00    +0.000 N 
ATOM     16  C   UNL     1       8.421  10.892  17.727  0.00  0.00    +0.000 C 
ATOM     17  C   UNL     1       9.676  11.779  17.595  0.00  0.00    +0.000 C 
BRANCH  10  18
ATOM     18  O   UNL     1       9.987  14.329  18.540  0.00  0.00    +0.000 OA
BRANCH  18  20
ATOM     19  C   UNL     1      10.900  16.539  18.566  0.00  0.00    +0.000 C 
ATOM     20  C   UNL     1      11.019  15.148  17.972  0.00  0.00    +0.000 C 
ENDBRANCH  18  20
ENDBRANCH  10  18
ENDBRANCH   1  15
BRANCH   5  21
ATOM     21  C   UNL     1       6.766   4.500  17.734  0.00  0.00    +0.000 C 
BRANCH  21  22
ATOM     22  C   UNL     1       5.300   4.465  18.129  0.00  0.00    +0.000 A 
ATOM     23  C   UNL     1       4.341   3.943  17.246  0.00  0.00    +0.000 A 
ATOM     24  C   UNL     1       2.982   4.020  17.551  0.00  0.00    +0.000 A 
ATOM     25  C   UNL     1       2.581   4.610  18.743  0.00  0.00    +0.000 A 
ATOM     26  F   UNL     1       1.275   4.714  19.021  0.00  0.00    +0.000 F 
ATOM     27  C   UNL     1       3.515   5.109  19.645  0.00  0.00    +0.000 A 
ATOM     28  C   UNL     1       4.876   5.038  19.338  0.00  0.00    +0.000 A 
ENDBRANCH  21  22
ENDBRANCH   5  21
TORSDOF 5
ENDMDL
MODEL 3
REMARK VINA RESULT:      -7.3      6.764     10.293
REMARK  Name = 
REMARK  6 active torsions:
REMARK  status: ('A' for Active; 'I' for Inactive)
REMARK    1  A    between atoms: C_1  and  C_2
REMARK    2  A    between atoms: C_2  and  O_3
REMARK    3  A    between atoms: O_3  and  C_4
REMARK    4  A    between atoms: N_9  and  C_10
REMARK    5  A    between atoms: N_14  and  C_15
REMARK    6  A    between atoms: C_15  and  C_16
REMARK                            x       y       z     vdW  Elec       q    Type
REMARK                         _______ _______ _______ _____ _____    ______ ____
ROOT
ATOM      1  C   UNL     1       1.654   8.337  20.022  0.00  0.00    +0.000 A 
ATOM      2  C   UNL     1       1.373   9.339  19.178  0.00  0.00    +0.000 A 
ATOM      3  C   UNL     1       0.856  10.630  19.672  0.00  0.00    +0.000 A 
ATOM      4  O   UNL     1       0.558  11.493  18.848  0.00  0.00    +0.000 OA
ATOM      5  N   UNL     1       0.750  10.772  21.037  0.00  0.00    +0.000 N 
ATOM      6  C   UNL     1       1.013   9.739  21.910  0.00  0.00    +0.000 A 
ATOM      7  O   UNL     1       0.886   9.812  23.132  0.00  0.00    +0.000 OA
ATOM      8  N   UNL     1       1.436   8.566  21.351  0.00  0.00    +0.000 N 
ATOM      9  H   UNL     1       1.663   7.842  22.015  0.00  0.00    +0.000 HD
ENDROOT
BRANCH   1  15
ATOM     10  C   UNL     1       3.874   3.578  18.360  0.00  0.00    +0.000 C 
ATOM     11  O   UNL     1       4.347   3.494  17.232  0.00  0.00    +0.000 OA
ATOM     12  N   UNL     1       3.694   4.770  19.023  0.00  0.00    +0.000 N 
ATOM     13  C   UNL     1       3.956   6.025  18.325  0.00  0.00    +0.000 C 
ATOM     14  C   UNL     1       2.681   6.879  18.228  0.00  0.00    +0.000 C 
ATOM     15  N   UNL     1       2.122   7.101  19.582  0.00  0.00    +0.000 N 
ATOM     16  C   UNL     1       1.821   5.825  20.285  0.00  0.00    +0.000 C 
ATOM     17  C   UNL     1       3.063   4.911  20.340  0.00  0.00    +0.000 C 
BRANCH  10  18
ATOM     18  O   UNL     1       3.392   2.515  19.057  0.00  0.00    +0.000 OA
BRANCH  18  20
ATOM     19  C   UNL     1       1.025   2.319  18.776  0.00  0.00    +0.000 C 
ATOM     20  C   UNL     1       2.379   1.759  18.379  0.00  0.00    +0.000 C 
ENDBRANCH  18  20
ENDBRANCH  10  18
ENDBRANCH   1  15
BRANCH   5  21
ATOM     21  C   UNL     1       0.379  12.072  21.578  0.00  0.00    +0.000 C 
BRANCH  21  22
ATOM     22  C   UNL     1      -1.122  12.163  21.782  0.00  0.00    +0.000 A 
ATOM     23  C   UNL     1      -1.962  12.523  20.715  0.00  0.00    +0.000 A 
ATOM     24  C   UNL     1      -3.325  12.729  20.925  0.00  0.00    +0.000 A 
ATOM     25  C   UNL     1      -3.853  12.565  22.200  0.00  0.00    +0.000 A 
ATOM     26  F   UNL     1      -5.155  12.795  22.409  0.00  0.00    +0.000 F 
ATOM     27  C   UNL     1      -3.045  12.182  23.265  0.00  0.00    +0.000 A 
ATOM     28  C   UNL     1      -1.679  11.982  23.058  0.00  0.00    +0.000 A 
ENDBRANCH  21  22
ENDBRANCH   5  21
TORSDOF 5
ENDMDL
MODEL 4
REMARK VINA RESULT:      -7.2      0.868      1.482
REMARK  Name = 
REMARK  6 active torsions:
REMARK  status: ('A' for Active; 'I' for Inactive)
REMARK    1  A    between atoms: C_1  and  C_2
REMARK    2  A    between atoms: C_2  and  O_3
REMARK    3  A    between atoms: O_3  and  C_4
REMARK    4  A    between atoms: N_9  and  C_10
REMARK    5  A    between atoms: N_14  and  C_15
REMARK    6  A    between atoms: C_15  and  C_16
REMARK                            x       y       z     vdW  Elec       q    Type
REMARK                         _______ _______ _______ _____ _____    ______ ____
ROOT
ATOM      1  C   UNL     1       8.264   8.478  18.349  0.00  0.00    +0.000 A 
ATOM      2  C   UNL     1       7.446   8.287  17.305  0.00  0.00    +0.000 A 
ATOM      3  C   UNL     1       6.874   6.958  17.018  0.00  0.00    +0.000 A 
ATOM      4  O   UNL     1       6.177   6.827  16.012  0.00  0.00    +0.000 OA
ATOM      5  N   UNL     1       7.164   5.954  17.913  0.00  0.00    +0.000 N 
ATOM      6  C   UNL     1       8.024   6.134  18.974  0.00  0.00    +0.000 A 
ATOM      7  O   UNL     1       8.344   5.251  19.768  0.00  0.00    +0.000 OA
ATOM      8  N   UNL     1       8.544   7.390  19.125  0.00  0.00    +0.000 N 
ATOM      9  H   UNL     1       9.135   7.505  19.934  0.00  0.00    +0.000 HD
ENDROOT
BRANCH   1  15
ATOM     10  C   UNL     1      10.163  13.538  19.413  0.00  0.00    +0.000 C 
ATOM     11  O   UNL     1      10.419  14.295  18.483  0.00  0.00    +0.000 OA
ATOM     12  N   UNL     1       9.313  12.462  19.307  0.00  0.00    +0.000 N 
ATOM     13  C   UNL     1       8.768  12.104  18.000  0.00  0.00    +0.000 C 
ATOM     14  C   UNL     1       9.216  10.693  17.583  0.00  0.00    +0.000 C 
ATOM     15  N   UNL     1       8.836   9.717  18.630  0.00  0.00    +0.000 N 
ATOM     16  C   UNL     1       9.416  10.058  19.957  0.00  0.00    +0.000 C 
ATOM     17  C   UNL     1       9.045  11.495  20.377  0.00  0.00    +0.000 C 
BRANCH  10  18
ATOM     18  O   UNL     1      10.752  13.619  20.635  0.00  0.00    +0.000 OA
BRANCH  18  20
ATOM     19  C   UNL     1      10.997  15.870  21.405  0.00  0.00    +0.000 C 
ATOM     20  C   UNL     1      10.180  14.596  21.516  0.00  0.00    +0.000 C 
ENDBRANCH  18  20
ENDBRANCH  10  18
ENDBRANCH   1  15
BRANCH   5  21
ATOM     21  C   UNL     1       6.511   4.663  17.751  0.00  0.00    +0.000 C 
BRANCH  21  22
ATOM     22  C   UNL     1       5.048   4.742  18.149  0.00  0.00    +0.000 A 
ATOM     23  C   UNL     1       4.685   5.231  19.415  0.00  0.00    +0.000 A 
ATOM     24  C   UNL     1       3.355   5.192  19.834  0.00  0.00    +0.000 A 
ATOM     25  C   UNL     1       2.386   4.674  18.984  0.00  0.00    +0.000 A 
ATOM     26  F   UNL     1       1.114   4.606  19.399  0.00  0.00    +0.000 F 
ATOM     27  C   UNL     1       2.719   4.211  17.717  0.00  0.00    +0.000 A 
ATOM     28  C   UNL     1       4.050   4.243  17.298  0.00  0.00    +0.000 A 
ENDBRANCH  21  22
ENDBRANCH   5  21
TORSDOF 5
ENDMDL
MODEL 5
REMARK VINA RESULT:      -7.1      0.777      1.031
REMARK  Name = 
REMARK  6 active torsions:
REMARK  status: ('A' for Active; 'I' for Inactive)
REMARK    1  A    between atoms: C_1  and  C_2
REMARK    2  A    between atoms: C_2  and  O_3
REMARK    3  A    between atoms: O_3  and  C_4
REMARK    4  A    between atoms: N_9  and  C_10
REMARK    5  A    between atoms: N_14  and  C_15
REMARK    6  A    between atoms: C_15  and  C_16
REMARK                            x       y       z     vdW  Elec       q    Type
REMARK                         _______ _______ _______ _____ _____    ______ ____
ROOT
ATOM      1  C   UNL     1       8.220   8.568  18.354  0.00  0.00    +0.000 A 
ATOM      2  C   UNL     1       7.402   8.357  17.313  0.00  0.00    +0.000 A 
ATOM      3  C   UNL     1       6.843   7.019  17.042  0.00  0.00    +0.000 A 
ATOM      4  O   UNL     1       6.147   6.870  16.038  0.00  0.00    +0.000 OA
ATOM      5  N   UNL     1       7.142   6.028  17.948  0.00  0.00    +0.000 N 
ATOM      6  C   UNL     1       8.002   6.230  19.006  0.00  0.00    +0.000 A 
ATOM      7  O   UNL     1       8.331   5.358  19.810  0.00  0.00    +0.000 OA
ATOM      8  N   UNL     1       8.510   7.492  19.142  0.00  0.00    +0.000 N 
ATOM      9  H   UNL     1       9.101   7.621  19.949  0.00  0.00    +0.000 HD
ENDROOT
BRANCH   1  15
ATOM     10  C   UNL     1      10.798  13.324  19.391  0.00  0.00    +0.000 C 
ATOM     11  O   UNL     1      11.170  13.572  20.533  0.00  0.00    +0.000 OA
ATOM     12  N   UNL     1      10.548  12.051  18.933  0.00  0.00    +0.000 N 
ATOM     13  C   UNL     1      10.599  10.929  19.866  0.00  0.00    +0.000 C 
ATOM     14  C   UNL     1       9.232  10.232  19.967  0.00  0.00    +0.000 C 
ATOM     15  N   UNL     1       8.781   9.815  18.620  0.00  0.00    +0.000 N 
ATOM     16  C   UNL     1       8.694  10.960  17.674  0.00  0.00    +0.000 C 
ATOM     17  C   UNL     1      10.030  11.726  17.599  0.00  0.00    +0.000 C 
BRANCH  10  18
ATOM     18  O   UNL     1      10.506  14.278  18.468  0.00  0.00    +0.000 OA
BRANCH  18  20
ATOM     19  C   UNL     1       8.207  14.725  18.948  0.00  0.00    +0.000 C 
ATOM     20  C   UNL     1       9.610  15.302  18.923  0.00  0.00    +0.000 C 
ENDBRANCH  18  20
ENDBRANCH  10  18
ENDBRANCH   1  15
BRANCH   5  21
ATOM     21  C   UNL     1       6.501   4.729  17.802  0.00  0.00    +0.000 C 
BRANCH  21  22
ATOM     22  C   UNL     1       5.251   4.644  18.659  0.00  0.00    +0.000 A 
ATOM     23  C   UNL     1       4.844   3.411  19.195  0.00  0.00    +0.000 A 
ATOM     24  C   UNL     1       3.632   3.302  19.878  0.00  0.00    +0.000 A 
ATOM     25  C   UNL     1       2.833   4.428  20.036  0.00  0.00    +0.000 A 
ATOM     26  F   UNL     1       1.655   4.317  20.663  0.00  0.00    +0.000 F 
ATOM     27  C   UNL     1       3.230   5.663  19.538  0.00  0.00    +0.000 A 
ATOM     28  C   UNL     1       4.439   5.773  18.848  0.00  0.00    +0.000 A 
ENDBRANCH  21  22
ENDBRANCH   5  21
TORSDOF 5
ENDMDL
MODEL 6
REMARK VINA RESULT:      -7.1      5.625      7.675
REMARK  Name = 
REMARK  6 active torsions:
REMARK  status: ('A' for Active; 'I' for Inactive)
REMARK    1  A    between atoms: C_1  and  C_2
REMARK    2  A    between atoms: C_2  and  O_3
REMARK    3  A    between atoms: O_3  and  C_4
REMARK    4  A    between atoms: N_9  and  C_10
REMARK    5  A    between atoms: N_14  and  C_15
REMARK    6  A    between atoms: C_15  and  C_16
REMARK                            x       y       z     vdW  Elec       q    Type
REMARK                         _______ _______ _______ _____ _____    ______ ____
ROOT
ATOM      1  C   UNL     1       3.465   6.700  18.048  0.00  0.00    +0.000 A 
ATOM      2  C   UNL     1       3.343   5.374  17.901  0.00  0.00    +0.000 A 
ATOM      3  C   UNL     1       4.417   4.572  17.286  0.00  0.00    +0.000 A 
ATOM      4  O   UNL     1       4.226   3.368  17.120  0.00  0.00    +0.000 OA
ATOM      5  N   UNL     1       5.570   5.242  16.944  0.00  0.00    +0.000 N 
ATOM      6  C   UNL     1       5.695   6.609  17.068  0.00  0.00    +0.000 A 
ATOM      7  O   UNL     1       6.690   7.249  16.731  0.00  0.00    +0.000 OA
ATOM      8  N   UNL     1       4.623   7.269  17.601  0.00  0.00    +0.000 N 
ATOM      9  H   UNL     1       4.759   8.261  17.721  0.00  0.00    +0.000 HD
ENDROOT
BRANCH   1  15
ATOM     10  C   UNL     1      -0.239   9.981  20.467  0.00  0.00    +0.000 C 
ATOM     11  O   UNL     1      -0.662   9.695  21.582  0.00  0.00    +0.000 OA
ATOM     12  N   UNL     1       0.951   9.512  19.962  0.00  0.00    +0.000 N 
ATOM     13  C   UNL     1       1.711   8.521  20.719  0.00  0.00    +0.000 C 
ATOM     14  C   UNL     1       1.850   7.209  19.927  0.00  0.00    +0.000 C 
ATOM     15  N   UNL     1       2.457   7.484  18.604  0.00  0.00    +0.000 N 
ATOM     16  C   UNL     1       1.668   8.468  17.815  0.00  0.00    +0.000 C 
ATOM     17  C   UNL     1       1.449   9.774  18.607  0.00  0.00    +0.000 C 
BRANCH  10  18
ATOM     18  O   UNL     1      -0.931  10.727  19.566  0.00  0.00    +0.000 OA
BRANCH  18  20
ATOM     19  C   UNL     1      -0.712  13.057  19.074  0.00  0.00    +0.000 C 
ATOM     20  C   UNL     1      -1.304  12.034  20.026  0.00  0.00    +0.000 C 
ENDBRANCH  18  20
ENDBRANCH  10  18
ENDBRANCH   1  15
BRANCH   5  21
ATOM     21  C   UNL     1       6.709   4.474  16.464  0.00  0.00    +0.000 C 
BRANCH  21  22
ATOM     22  C   UNL     1       6.785   4.508  14.948  0.00  0.00    +0.000 A 
ATOM     23  C   UNL     1       5.954   3.678  14.179  0.00  0.00    +0.000 A 
ATOM     24  C   UNL     1       6.104   3.615  12.793  0.00  0.00    +0.000 A 
ATOM     25  C   UNL     1       7.078   4.389  12.175  0.00  0.00    +0.000 A 
ATOM     26  F   UNL     1       7.245   4.304  10.849  0.00  0.00    +0.000 F 
ATOM     27  C   UNL     1       7.894   5.239  12.915  0.00  0.00    +0.000 A 
ATOM     28  C   UNL     1       7.749   5.299  14.302  0.00  0.00    +0.000 A 
ENDBRANCH  21  22
ENDBRANCH   5  21
TORSDOF 5
ENDMDL
MODEL 7
REMARK VINA RESULT:      -7.1      0.671      1.658
REMARK  Name = 
REMARK  6 active torsions:
REMARK  status: ('A' for Active; 'I' for Inactive)
REMARK    1  A    between atoms: C_1  and  C_2
REMARK    2  A    between atoms: C_2  and  O_3
REMARK    3  A    between atoms: O_3  and  C_4
REMARK    4  A    between atoms: N_9  and  C_10
REMARK    5  A    between atoms: N_14  and  C_15
REMARK    6  A    between atoms: C_15  and  C_16
REMARK                            x       y       z     vdW  Elec       q    Type
REMARK                         _______ _______ _______ _____ _____    ______ ____
ROOT
ATOM      1  C   UNL     1       8.238   8.583  18.396  0.00  0.00    +0.000 A 
ATOM      2  C   UNL     1       8.553   7.525  19.155  0.00  0.00    +0.000 A 
ATOM      3  C   UNL     1       7.952   6.201  18.905  0.00  0.00    +0.000 A 
ATOM      4  O   UNL     1       8.231   5.279  19.670  0.00  0.00    +0.000 OA
ATOM      5  N   UNL     1       7.119   6.096  17.816  0.00  0.00    +0.000 N 
ATOM      6  C   UNL     1       6.769   7.184  17.045  0.00  0.00    +0.000 A 
ATOM      7  O   UNL     1       5.991   7.140  16.093  0.00  0.00    +0.000 OA
ATOM      8  N   UNL     1       7.338   8.378  17.390  0.00  0.00    +0.000 N 
ATOM      9  H   UNL     1       7.099   9.147  16.783  0.00  0.00    +0.000 HD
ENDROOT
BRANCH   1  15
ATOM     10  C   UNL     1      10.713  13.422  19.286  0.00  0.00    +0.000 C 
ATOM     11  O   UNL     1      11.091  13.709  20.417  0.00  0.00    +0.000 OA
ATOM     12  N   UNL     1      10.488  12.133  18.862  0.00  0.00    +0.000 N 
ATOM     13  C   UNL     1      10.576  11.037  19.822  0.00  0.00    +0.000 C 
ATOM     14  C   UNL     1       9.227  10.311  19.956  0.00  0.00    +0.000 C 
ATOM     15  N   UNL     1       8.772   9.849  18.625  0.00  0.00    +0.000 N 
ATOM     16  C   UNL     1       8.648  10.967  17.651  0.00  0.00    +0.000 C 
ATOM     17  C   UNL     1       9.965  11.763  17.543  0.00  0.00    +0.000 C 
BRANCH  10  18
ATOM     18  O   UNL     1      10.390  14.346  18.342  0.00  0.00    +0.000 OA
BRANCH  18  20
ATOM     19  C   UNL     1       8.052  14.815  18.518  0.00  0.00    +0.000 C 
ATOM     20  C   UNL     1       9.452  15.343  18.772  0.00  0.00    +0.000 C 
ENDBRANCH  18  20
ENDBRANCH  10  18
ENDBRANCH   1  15
BRANCH   5  21
ATOM     21  C   UNL     1       6.614   4.782  17.445  0.00  0.00    +0.000 C 
BRANCH  21  22
ATOM     22  C   UNL     1       5.159   4.627  17.852  0.00  0.00    +0.000 A 
ATOM     23  C   UNL     1       4.749   4.963  19.153  0.00  0.00    +0.000 A 
ATOM     24  C   UNL     1       3.442   4.707  19.570  0.00  0.00    +0.000 A 
ATOM     25  C   UNL     1       2.543   4.126  18.685  0.00  0.00    +0.000 A 
ATOM     26  F   UNL     1       1.298   3.851  19.096  0.00  0.00    +0.000 F 
ATOM     27  C   UNL     1       2.920   3.811  17.384  0.00  0.00    +0.000 A 
ATOM     28  C   UNL     1       4.229   4.060  16.967  0.00  0.00    +0.000 A 
ENDBRANCH  21  22
ENDBRANCH   5  21
TORSDOF 5
ENDMDL
MODEL 8
REMARK VINA RESULT:      -7.1      0.701      1.868
REMARK  Name = 
REMARK  6 active torsions:
REMARK  status: ('A' for Active; 'I' for Inactive)
REMARK    1  A    between atoms: C_1  and  C_2
REMARK    2  A    between atoms: C_2  and  O_3
REMARK    3  A    between atoms: O_3  and  C_4
REMARK    4  A    between atoms: N_9  and  C_10
REMARK    5  A    between atoms: N_14  and  C_15
REMARK    6  A    between atoms: C_15  and  C_16
REMARK                            x       y       z     vdW  Elec       q    Type
REMARK                         _______ _______ _______ _____ _____    ______ ____
ROOT
ATOM      1  C   UNL     1       8.217   8.588  18.365  0.00  0.00    +0.000 A 
ATOM      2  C   UNL     1       8.553   7.536  19.124  0.00  0.00    +0.000 A 
ATOM      3  C   UNL     1       7.977   6.201  18.875  0.00  0.00    +0.000 A 
ATOM      4  O   UNL     1       8.275   5.284  19.639  0.00  0.00    +0.000 OA
ATOM      5  N   UNL     1       7.143   6.081  17.787  0.00  0.00    +0.000 N 
ATOM      6  C   UNL     1       6.771   7.162  17.018  0.00  0.00    +0.000 A 
ATOM      7  O   UNL     1       5.992   7.104  16.067  0.00  0.00    +0.000 OA
ATOM      8  N   UNL     1       7.318   8.367  17.362  0.00  0.00    +0.000 N 
ATOM      9  H   UNL     1       7.064   9.131  16.755  0.00  0.00    +0.000 HD
ENDROOT
BRANCH   1  15
ATOM     10  C   UNL     1      10.601  13.485  19.189  0.00  0.00    +0.000 C 
ATOM     11  O   UNL     1      11.125  13.727  20.271  0.00  0.00    +0.000 OA
ATOM     12  N   UNL     1      10.369  12.211  18.724  0.00  0.00    +0.000 N 
ATOM     13  C   UNL     1      10.637  11.070  19.594  0.00  0.00    +0.000 C 
ATOM     14  C   UNL     1       9.350  10.274  19.872  0.00  0.00    +0.000 C 
ATOM     15  N   UNL     1       8.727   9.864  18.593  0.00  0.00    +0.000 N 
ATOM     16  C   UNL     1       8.421  11.026  17.716  0.00  0.00    +0.000 C 
ATOM     17  C   UNL     1       9.677  11.888  17.471  0.00  0.00    +0.000 C 
BRANCH  10  18
ATOM     18  O   UNL     1      10.109  14.442  18.359  0.00  0.00    +0.000 OA
BRANCH  18  20
ATOM     19  C   UNL     1       8.769  16.375  17.931  0.00  0.00    +0.000 C 
ATOM     20  C   UNL     1       9.161  15.334  18.962  0.00  0.00    +0.000 C 
ENDBRANCH  18  20
ENDBRANCH  10  18
ENDBRANCH   1  15
BRANCH   5  21
ATOM     21  C   UNL     1       6.662   4.757  17.418  0.00  0.00    +0.000 C 
BRANCH  21  22
ATOM     22  C   UNL     1       5.236   4.547  17.896  0.00  0.00    +0.000 A 
ATOM     23  C   UNL     1       4.279   3.978  17.040  0.00  0.00    +0.000 A 
ATOM     24  C   UNL     1       2.942   3.896  17.430  0.00  0.00    +0.000 A 
ATOM     25  C   UNL     1       2.563   4.373  18.678  0.00  0.00    +0.000 A 
ATOM     26  F   UNL     1       1.274   4.324  19.039  0.00  0.00    +0.000 F 
ATOM     27  C   UNL     1       3.498   4.915  19.552  0.00  0.00    +0.000 A 
ATOM     28  C   UNL     1       4.836   5.004  19.162  0.00  0.00    +0.000 A 
ENDBRANCH  21  22
ENDBRANCH   5  21
TORSDOF 5
ENDMDL
MODEL 9
REMARK VINA RESULT:      -7.0      6.931     10.462
REMARK  Name = 
REMARK  6 active torsions:
REMARK  status: ('A' for Active; 'I' for Inactive)
REMARK    1  A    between atoms: C_1  and  C_2
REMARK    2  A    between atoms: C_2  and  O_3
REMARK    3  A    between atoms: O_3  and  C_4
REMARK    4  A    between atoms: N_9  and  C_10
REMARK    5  A    between atoms: N_14  and  C_15
REMARK    6  A    between atoms: C_15  and  C_16
REMARK                            x       y       z     vdW  Elec       q    Type
REMARK                         _______ _______ _______ _____ _____    ______ ____
ROOT
ATOM      1  C   UNL     1       1.449   8.689  20.194  0.00  0.00    +0.000 A 
ATOM      2  C   UNL     1       1.037   8.774  21.467  0.00  0.00    +0.000 A 
ATOM      3  C   UNL     1       0.590  10.058  22.040  0.00  0.00    +0.000 A 
ATOM      4  O   UNL     1       0.280  10.091  23.230  0.00  0.00    +0.000 OA
ATOM      5  N   UNL     1       0.549  11.135  21.184  0.00  0.00    +0.000 N 
ATOM      6  C   UNL     1       0.994  11.063  19.882  0.00  0.00    +0.000 A 
ATOM      7  O   UNL     1       1.017  12.014  19.101  0.00  0.00    +0.000 OA
ATOM      8  N   UNL     1       1.438   9.841  19.461  0.00  0.00    +0.000 N 
ATOM      9  H   UNL     1       1.716   9.807  18.493  0.00  0.00    +0.000 HD
ENDROOT
BRANCH   1  15
ATOM     10  C   UNL     1       3.595   4.108  18.016  0.00  0.00    +0.000 C 
ATOM     11  O   UNL     1       3.907   4.092  16.830  0.00  0.00    +0.000 OA
ATOM     12  N   UNL     1       3.465   5.263  18.752  0.00  0.00    +0.000 N 
ATOM     13  C   UNL     1       3.576   6.556  18.085  0.00  0.00    +0.000 C 
ATOM     14  C   UNL     1       2.267   7.355  18.207  0.00  0.00    +0.000 C 
ATOM     15  N   UNL     1       1.897   7.495  19.635  0.00  0.00    +0.000 N 
ATOM     16  C   UNL     1       1.750   6.178  20.312  0.00  0.00    +0.000 C 
ATOM     17  C   UNL     1       3.022   5.321  20.150  0.00  0.00    +0.000 C 
BRANCH  10  18
ATOM     18  O   UNL     1       3.259   2.997  18.722  0.00  0.00    +0.000 OA
BRANCH  18  20
ATOM     19  C   UNL     1       0.910   2.551  18.747  0.00  0.00    +0.000 C 
ATOM     20  C   UNL     1       2.242   2.185  18.119  0.00  0.00    +0.000 C 
ENDBRANCH  18  20
ENDBRANCH  10  18
ENDBRANCH   1  15
BRANCH   5  21
ATOM     21  C   UNL     1      -0.017  12.388  21.664  0.00  0.00    +0.000 C 
BRANCH  21  22
ATOM     22  C   UNL     1      -1.530  12.378  21.549  0.00  0.00    +0.000 A 
ATOM     23  C   UNL     1      -2.145  12.474  20.289  0.00  0.00    +0.000 A 
ATOM     24  C   UNL     1      -3.531  12.590  20.185  0.00  0.00    +0.000 A 
ATOM     25  C   UNL     1      -4.305  12.597  21.339  0.00  0.00    +0.000 A 
ATOM     26  F   UNL     1      -5.633  12.741  21.242  0.00  0.00    +0.000 F 
ATOM     27  C   UNL     1      -3.720  12.475  22.595  0.00  0.00    +0.000 A 
ATOM     28  C   UNL     1      -2.332  12.366  22.701  0.00  0.00    +0.000 A 
ENDBRANCH  21  22
ENDBRANCH   5  21
TORSDOF 5
ENDMDL
