MODEL 1
REMARK VINA RESULT:      -7.4      0.000      0.000
REMARK  Name = 
REMARK  7 active torsions:
REMARK  status: ('A' for Active; 'I' for Inactive)
REMARK    1  A    between atoms: C_1  and  C_2
REMARK    2  A    between atoms: C_2  and  C_3
REMARK    3  A    between atoms: C_2  and  C_4
REMARK    4  A    between atoms: C_2  and  N_5
REMARK    5  A    between atoms: C_9  and  C_10
REMARK    6  A    between atoms: C_14  and  C_15
REMARK    7  A    between atoms: C_14  and  C_16
REMARK                            x       y       z     vdW  Elec       q    Type
REMARK                         _______ _______ _______ _____ _____    ______ ____
ROOT
ATOM      1  C   UNL     1       1.119   8.506  20.265  0.00  0.00    +0.000 C 
ATOM      2  O   UNL     1       0.370   8.100  21.152  0.00  0.00    +0.000 OA
ATOM      3  N   UNL     1       1.190   9.826  19.857  0.00  0.00    +0.000 N 
ATOM      4  C   UNL     1       0.384  10.923  20.380  0.00  0.00    +0.000 C 
ATOM      5  C   UNL     1       0.012  11.294  18.922  0.00  0.00    +0.000 C 
ATOM      6  C   UNL     1       0.388  12.739  18.565  0.00  0.00    +0.000 C 
ATOM      7  C   UNL     1       1.096  10.286  18.465  0.00  0.00    +0.000 C 
ENDROOT
BRANCH   1  12
ATOM      8  N   UNL     1       4.745   5.066  17.626  0.00  0.00    +0.000 N 
ATOM      9  C   UNL     1       3.898   5.931  18.327  0.00  0.00    +0.000 A 
ATOM     10  C   UNL     1       3.264   5.490  19.490  0.00  0.00    +0.000 A 
ATOM     11  C   UNL     1       2.361   6.324  20.162  0.00  0.00    +0.000 A 
ATOM     12  C   UNL     1       2.070   7.570  19.622  0.00  0.00    +0.000 A 
ATOM     13  C   UNL     1       2.743   7.939  18.475  0.00  0.00    +0.000 A 
ATOM     14  N   UNL     1       3.635   7.154  17.834  0.00  0.00    +0.000 NA
ATOM     15  H   UNL     1       5.184   4.431  18.287  0.00  0.00    +0.000 HD
BRANCH   8  17
ATOM     16  C   UNL     1       6.644   6.644  17.472  0.00  0.00    +0.000 C 
ATOM     17  C   UNL     1       5.766   5.635  16.711  0.00  0.00    +0.000 C 
ATOM     18  C   UNL     1       5.183   6.252  15.429  0.00  0.00    +0.000 C 
ATOM     19  C   UNL     1       6.664   4.460  16.261  0.00  0.00    +0.000 C 
ENDBRANCH   8  17
ENDBRANCH   1  12
BRANCH   5  20
ATOM     20  C   UNL     1      -1.474  11.008  18.454  0.00  0.00    +0.000 A 
ATOM     21  C   UNL     1      -1.872   9.941  17.644  0.00  0.00    +0.000 A 
ATOM     22  C   UNL     1      -3.215   9.797  17.299  0.00  0.00    +0.000 A 
ATOM     23  C   UNL     1      -4.138  10.709  17.775  0.00  0.00    +0.000 A 
ATOM     24  C   UNL     1      -3.681  11.733  18.584  0.00  0.00    +0.000 A 
ATOM     25  N   UNL     1      -2.385  11.898  18.931  0.00  0.00    +0.000 NA
ENDBRANCH   5  20
TORSDOF 3
ENDMDL
MODEL 2
REMARK VINA RESULT:      -7.3      2.029      3.250
REMARK  Name = 
REMARK  7 active torsions:
REMARK  status: ('A' for Active; 'I' for Inactive)
REMARK    1  A    between atoms: C_1  and  C_2
REMARK    2  A    between atoms: C_2  and  C_3
REMARK    3  A    between atoms: C_2  and  C_4
REMARK    4  A    between atoms: C_2  and  N_5
REMARK    5  A    between atoms: C_9  and  C_10
REMARK    6  A    between atoms: C_14  and  C_15
REMARK    7  A    between atoms: C_14  and  C_16
REMARK                            x       y       z     vdW  Elec       q    Type
REMARK                         _______ _______ _______ _____ _____    ______ ____
ROOT
ATOM      1  C   UNL     1       0.539  10.979  18.965  0.00  0.00    +0.000 C 
ATOM      2  O   UNL     1       1.109  11.971  19.416  0.00  0.00    +0.000 OA
ATOM      3  N   UNL     1      -0.613  11.032  18.199  0.00  0.00    +0.000 N 
ATOM      4  C   UNL     1      -1.338  12.243  17.834  0.00  0.00    +0.000 C 
ATOM      5  C   UNL     1      -2.636  11.577  18.358  0.00  0.00    +0.000 C 
ATOM      6  C   UNL     1      -3.735  11.501  17.289  0.00  0.00    +0.000 C 
ATOM      7  C   UNL     1      -1.833  10.256  18.455  0.00  0.00    +0.000 C 
ENDROOT
BRANCH   1  12
ATOM      8  N   UNL     1       2.790   5.825  19.522  0.00  0.00    +0.000 N 
ATOM      9  C   UNL     1       2.291   7.127  19.413  0.00  0.00    +0.000 A 
ATOM     10  C   UNL     1       1.735   7.753  20.530  0.00  0.00    +0.000 A 
ATOM     11  C   UNL     1       1.171   9.030  20.419  0.00  0.00    +0.000 A 
ATOM     12  C   UNL     1       1.128   9.636  19.170  0.00  0.00    +0.000 A 
ATOM     13  C   UNL     1       1.705   8.959  18.114  0.00  0.00    +0.000 A 
ATOM     14  N   UNL     1       2.275   7.740  18.217  0.00  0.00    +0.000 NA
ATOM     15  H   UNL     1       3.144   5.688  20.463  0.00  0.00    +0.000 HD
BRANCH   8  17
ATOM     16  C   UNL     1       4.828   4.455  19.224  0.00  0.00    +0.000 C 
ATOM     17  C   UNL     1       3.783   5.344  18.528  0.00  0.00    +0.000 C 
ATOM     18  C   UNL     1       4.453   6.467  17.718  0.00  0.00    +0.000 C 
ATOM     19  C   UNL     1       3.009   4.474  17.513  0.00  0.00    +0.000 C 
ENDBRANCH   8  17
ENDBRANCH   1  12
BRANCH   5  20
ATOM     20  C   UNL     1      -3.252  12.141  19.704  0.00  0.00    +0.000 A 
ATOM     21  C   UNL     1      -2.516  12.521  20.829  0.00  0.00    +0.000 A 
ATOM     22  C   UNL     1      -3.176  13.004  21.958  0.00  0.00    +0.000 A 
ATOM     23  C   UNL     1      -4.554  13.109  21.943  0.00  0.00    +0.000 A 
ATOM     24  C   UNL     1      -5.221  12.730  20.793  0.00  0.00    +0.000 A 
ATOM     25  N   UNL     1      -4.606  12.256  19.686  0.00  0.00    +0.000 NA
ENDBRANCH   5  20
TORSDOF 3
ENDMDL
MODEL 3
REMARK VINA RESULT:      -7.2      1.508      2.189
REMARK  Name = 
REMARK  7 active torsions:
REMARK  status: ('A' for Active; 'I' for Inactive)
REMARK    1  A    between atoms: C_1  and  C_2
REMARK    2  A    between atoms: C_2  and  C_3
REMARK    3  A    between atoms: C_2  and  C_4
REMARK    4  A    between atoms: C_2  and  N_5
REMARK    5  A    between atoms: C_9  and  C_10
REMARK    6  A    between atoms: C_14  and  C_15
REMARK    7  A    between atoms: C_14  and  C_16
REMARK                            x       y       z     vdW  Elec       q    Type
REMARK                         _______ _______ _______ _____ _____    ______ ____
ROOT
ATOM      1  C   UNL     1       0.560   9.384  20.619  0.00  0.00    +0.000 C 
ATOM      2  O   UNL     1      -0.139   8.805  21.449  0.00  0.00    +0.000 OA
ATOM      3  N   UNL     1       0.639  10.761  20.503  0.00  0.00    +0.000 N 
ATOM      4  C   UNL     1      -0.097  11.728  21.308  0.00  0.00    +0.000 C 
ATOM      5  C   UNL     1      -0.558  12.412  19.996  0.00  0.00    +0.000 C 
ATOM      6  C   UNL     1      -0.166  13.895  19.933  0.00  0.00    +0.000 C 
ATOM      7  C   UNL     1       0.464  11.514  19.254  0.00  0.00    +0.000 C 
ENDROOT
BRANCH   1  12
ATOM      8  N   UNL     1       3.980   6.267  17.373  0.00  0.00    +0.000 N 
ATOM      9  C   UNL     1       3.078   7.014  18.140  0.00  0.00    +0.000 A 
ATOM     10  C   UNL     1       2.559   8.207  17.634  0.00  0.00    +0.000 A 
ATOM     11  C   UNL     1       1.709   8.997  18.419  0.00  0.00    +0.000 A 
ATOM     12  C   UNL     1       1.438   8.600  19.722  0.00  0.00    +0.000 A 
ATOM     13  C   UNL     1       1.982   7.405  20.148  0.00  0.00    +0.000 A 
ATOM     14  N   UNL     1       2.780   6.622  19.391  0.00  0.00    +0.000 NA
ATOM     15  H   UNL     1       3.762   6.402  16.391  0.00  0.00    +0.000 HD
BRANCH   8  17
ATOM     16  C   UNL     1       2.782   4.130  17.713  0.00  0.00    +0.000 C 
ATOM     17  C   UNL     1       4.155   4.822  17.664  0.00  0.00    +0.000 C 
ATOM     18  C   UNL     1       4.974   4.534  18.934  0.00  0.00    +0.000 C 
ATOM     19  C   UNL     1       4.954   4.226  16.484  0.00  0.00    +0.000 C 
ENDBRANCH   8  17
ENDBRANCH   1  12
BRANCH   5  20
ATOM     20  C   UNL     1      -2.080  12.253  19.587  0.00  0.00    +0.000 A 
ATOM     21  C   UNL     1      -2.547  11.526  18.489  0.00  0.00    +0.000 A 
ATOM     22  C   UNL     1      -3.916  11.462  18.232  0.00  0.00    +0.000 A 
ATOM     23  C   UNL     1      -4.794  12.114  19.078  0.00  0.00    +0.000 A 
ATOM     24  C   UNL     1      -4.268  12.803  20.154  0.00  0.00    +0.000 A 
ATOM     25  N   UNL     1      -2.945  12.884  20.424  0.00  0.00    +0.000 NA
ENDBRANCH   5  20
TORSDOF 3
ENDMDL
MODEL 4
REMARK VINA RESULT:      -7.2      2.316      3.857
REMARK  Name = 
REMARK  7 active torsions:
REMARK  status: ('A' for Active; 'I' for Inactive)
REMARK    1  A    between atoms: C_1  and  C_2
REMARK    2  A    between atoms: C_2  and  C_3
REMARK    3  A    between atoms: C_2  and  C_4
REMARK    4  A    between atoms: C_2  and  N_5
REMARK    5  A    between atoms: C_9  and  C_10
REMARK    6  A    between atoms: C_14  and  C_15
REMARK    7  A    between atoms: C_14  and  C_16
REMARK                            x       y       z     vdW  Elec       q    Type
REMARK                         _______ _______ _______ _____ _____    ______ ____
ROOT
ATOM      1  C   UNL     1       1.032  11.005  19.019  0.00  0.00    +0.000 C 
ATOM      2  O   UNL     1       1.726  11.900  19.497  0.00  0.00    +0.000 OA
ATOM      3  N   UNL     1      -0.250  11.196  18.537  0.00  0.00    +0.000 N 
ATOM      4  C   UNL     1      -0.983  12.456  18.542  0.00  0.00    +0.000 C 
ATOM      5  C   UNL     1      -2.170  11.719  19.212  0.00  0.00    +0.000 C 
ATOM      6  C   UNL     1      -3.470  11.836  18.405  0.00  0.00    +0.000 C 
ATOM      7  C   UNL     1      -1.423  10.395  18.914  0.00  0.00    +0.000 C 
ENDROOT
BRANCH   1  12
ATOM      8  N   UNL     1       3.143   5.774  18.657  0.00  0.00    +0.000 N 
ATOM      9  C   UNL     1       2.568   7.048  18.704  0.00  0.00    +0.000 A 
ATOM     10  C   UNL     1       2.758   7.935  17.643  0.00  0.00    +0.000 A 
ATOM     11  C   UNL     1       2.244   9.237  17.708  0.00  0.00    +0.000 A 
ATOM     12  C   UNL     1       1.593   9.643  18.866  0.00  0.00    +0.000 A 
ATOM     13  C   UNL     1       1.438   8.708  19.869  0.00  0.00    +0.000 A 
ATOM     14  N   UNL     1       1.905   7.443  19.805  0.00  0.00    +0.000 NA
ATOM     15  H   UNL     1       3.191   5.473  17.689  0.00  0.00    +0.000 HD
BRANCH   8  17
ATOM     16  C   UNL     1       1.386   4.037  18.780  0.00  0.00    +0.000 C 
ATOM     17  C   UNL     1       2.577   4.692  19.501  0.00  0.00    +0.000 C 
ATOM     18  C   UNL     1       2.195   5.141  20.922  0.00  0.00    +0.000 C 
ATOM     19  C   UNL     1       3.686   3.628  19.662  0.00  0.00    +0.000 C 
ENDBRANCH   8  17
ENDBRANCH   1  12
BRANCH   5  20
ATOM     20  C   UNL     1      -2.467  12.047  20.733  0.00  0.00    +0.000 A 
ATOM     21  C   UNL     1      -1.573  11.847  21.789  0.00  0.00    +0.000 A 
ATOM     22  C   UNL     1      -1.952  12.175  23.089  0.00  0.00    +0.000 A 
ATOM     23  C   UNL     1      -3.209  12.705  23.314  0.00  0.00    +0.000 A 
ATOM     24  C   UNL     1      -4.039  12.891  22.224  0.00  0.00    +0.000 A 
ATOM     25  N   UNL     1      -3.698  12.579  20.954  0.00  0.00    +0.000 NA
ENDBRANCH   5  20
TORSDOF 3
ENDMDL
MODEL 5
REMARK VINA RESULT:      -7.1      0.620      1.005
REMARK  Name = 
REMARK  7 active torsions:
REMARK  status: ('A' for Active; 'I' for Inactive)
REMARK    1  A    between atoms: C_1  and  C_2
REMARK    2  A    between atoms: C_2  and  C_3
REMARK    3  A    between atoms: C_2  and  C_4
REMARK    4  A    between atoms: C_2  and  N_5
REMARK    5  A    between atoms: C_9  and  C_10
REMARK    6  A    between atoms: C_14  and  C_15
REMARK    7  A    between atoms: C_14  and  C_16
REMARK                            x       y       z     vdW  Elec       q    Type
REMARK                         _______ _______ _______ _____ _____    ______ ____
ROOT
ATOM      1  C   UNL     1       1.246   8.491  20.231  0.00  0.00    +0.000 C 
ATOM      2  O   UNL     1       0.518   8.125  21.153  0.00  0.00    +0.000 OA
ATOM      3  N   UNL     1       1.361   9.805  19.813  0.00  0.00    +0.000 N 
ATOM      4  C   UNL     1       0.634  10.941  20.365  0.00  0.00    +0.000 C 
ATOM      5  C   UNL     1       0.215  11.324  18.923  0.00  0.00    +0.000 C 
ATOM      6  C   UNL     1       0.643  12.747  18.540  0.00  0.00    +0.000 C 
ATOM      7  C   UNL     1       1.228  10.263  18.424  0.00  0.00    +0.000 C 
ENDROOT
BRANCH   1  12
ATOM      8  N   UNL     1       4.595   4.878  17.460  0.00  0.00    +0.000 N 
ATOM      9  C   UNL     1       3.817   5.780  18.195  0.00  0.00    +0.000 A 
ATOM     10  C   UNL     1       3.139   5.344  19.334  0.00  0.00    +0.000 A 
ATOM     11  C   UNL     1       2.303   6.219  20.039  0.00  0.00    +0.000 A 
ATOM     12  C   UNL     1       2.121   7.508  19.553  0.00  0.00    +0.000 A 
ATOM     13  C   UNL     1       2.831   7.868  18.425  0.00  0.00    +0.000 A 
ATOM     14  N   UNL     1       3.660   7.040  17.755  0.00  0.00    +0.000 NA
ATOM     15  H   UNL     1       4.974   4.182  18.094  0.00  0.00    +0.000 HD
BRANCH   8  17
ATOM     16  C   UNL     1       6.757   6.079  17.422  0.00  0.00    +0.000 C 
ATOM     17  C   UNL     1       5.667   5.399  16.575  0.00  0.00    +0.000 C 
ATOM     18  C   UNL     1       5.161   6.329  15.460  0.00  0.00    +0.000 C 
ATOM     19  C   UNL     1       6.297   4.175  15.873  0.00  0.00    +0.000 C 
ENDBRANCH   8  17
ENDBRANCH   1  12
BRANCH   5  20
ATOM     20  C   UNL     1      -1.303  11.108  18.523  0.00  0.00    +0.000 A 
ATOM     21  C   UNL     1      -2.366  11.918  18.930  0.00  0.00    +0.000 A 
ATOM     22  C   UNL     1      -3.662  11.623  18.511  0.00  0.00    +0.000 A 
ATOM     23  C   UNL     1      -3.875  10.533  17.687  0.00  0.00    +0.000 A 
ATOM     24  C   UNL     1      -2.778   9.782  17.309  0.00  0.00    +0.000 A 
ATOM     25  N   UNL     1      -1.512  10.044  17.703  0.00  0.00    +0.000 NA
ENDBRANCH   5  20
TORSDOF 3
ENDMDL
MODEL 6
REMARK VINA RESULT:      -7.0      1.807      2.587
REMARK  Name = 
REMARK  7 active torsions:
REMARK  status: ('A' for Active; 'I' for Inactive)
REMARK    1  A    between atoms: C_1  and  C_2
REMARK    2  A    between atoms: C_2  and  C_3
REMARK    3  A    between atoms: C_2  and  C_4
REMARK    4  A    between atoms: C_2  and  N_5
REMARK    5  A    between atoms: C_9  and  C_10
REMARK    6  A    between atoms: C_14  and  C_15
REMARK    7  A    between atoms: C_14  and  C_16
REMARK                            x       y       z     vdW  Elec       q    Type
REMARK                         _______ _______ _______ _____ _____    ______ ____
ROOT
ATOM      1  C   UNL     1       0.844   8.399  20.746  0.00  0.00    +0.000 C 
ATOM      2  O   UNL     1       0.050   8.199  21.664  0.00  0.00    +0.000 OA
ATOM      3  N   UNL     1       1.096   9.646  20.202  0.00  0.00    +0.000 N 
ATOM      4  C   UNL     1       0.454  10.894  20.598  0.00  0.00    +0.000 C 
ATOM      5  C   UNL     1       0.129  11.156  19.105  0.00  0.00    +0.000 C 
ATOM      6  C   UNL     1       0.701  12.488  18.600  0.00  0.00    +0.000 C 
ATOM      7  C   UNL     1       1.059   9.964  18.768  0.00  0.00    +0.000 C 
ENDROOT
BRANCH   1  12
ATOM      8  N   UNL     1       3.888   4.004  18.911  0.00  0.00    +0.000 N 
ATOM      9  C   UNL     1       3.090   5.081  19.312  0.00  0.00    +0.000 A 
ATOM     10  C   UNL     1       3.193   6.306  18.650  0.00  0.00    +0.000 A 
ATOM     11  C   UNL     1       2.449   7.410  19.085  0.00  0.00    +0.000 A 
ATOM     12  C   UNL     1       1.652   7.278  20.215  0.00  0.00    +0.000 A 
ATOM     13  C   UNL     1       1.595   6.034  20.811  0.00  0.00    +0.000 A 
ATOM     14  N   UNL     1       2.287   4.957  20.383  0.00  0.00    +0.000 NA
ATOM     15  H   UNL     1       4.061   4.079  17.914  0.00  0.00    +0.000 HD
BRANCH   8  17
ATOM     16  C   UNL     1       3.632   1.708  18.028  0.00  0.00    +0.000 C 
ATOM     17  C   UNL     1       3.467   2.623  19.254  0.00  0.00    +0.000 C 
ATOM     18  C   UNL     1       2.047   2.528  19.839  0.00  0.00    +0.000 C 
ATOM     19  C   UNL     1       4.428   2.127  20.358  0.00  0.00    +0.000 C 
ENDBRANCH   8  17
ENDBRANCH   1  12
BRANCH   5  20
ATOM     20  C   UNL     1      -1.386  11.031  18.657  0.00  0.00    +0.000 A 
ATOM     21  C   UNL     1      -1.894  10.050  17.802  0.00  0.00    +0.000 A 
ATOM     22  C   UNL     1      -3.250  10.047  17.481  0.00  0.00    +0.000 A 
ATOM     23  C   UNL     1      -4.077  11.013  18.023  0.00  0.00    +0.000 A 
ATOM     24  C   UNL     1      -3.513  11.946  18.873  0.00  0.00    +0.000 A 
ATOM     25  N   UNL     1      -2.201  11.974  19.199  0.00  0.00    +0.000 NA
ENDBRANCH   5  20
TORSDOF 3
ENDMDL
MODEL 7
REMARK VINA RESULT:      -7.0      2.016      2.874
REMARK  Name = 
REMARK  7 active torsions:
REMARK  status: ('A' for Active; 'I' for Inactive)
REMARK    1  A    between atoms: C_1  and  C_2
REMARK    2  A    between atoms: C_2  and  C_3
REMARK    3  A    between atoms: C_2  and  C_4
REMARK    4  A    between atoms: C_2  and  N_5
REMARK    5  A    between atoms: C_9  and  C_10
REMARK    6  A    between atoms: C_14  and  C_15
REMARK    7  A    between atoms: C_14  and  C_16
REMARK                            x       y       z     vdW  Elec       q    Type
REMARK                         _______ _______ _______ _____ _____    ______ ____
ROOT
ATOM      1  C   UNL     1       0.928   9.148  20.809  0.00  0.00    +0.000 C 
ATOM      2  O   UNL     1       0.314   9.044  21.870  0.00  0.00    +0.000 OA
ATOM      3  N   UNL     1       1.167  10.351  20.170  0.00  0.00    +0.000 N 
ATOM      4  C   UNL     1       0.715  11.661  20.623  0.00  0.00    +0.000 C 
ATOM      5  C   UNL     1       0.128  11.906  19.210  0.00  0.00    +0.000 C 
ATOM      6  C   UNL     1       0.695  13.167  18.544  0.00  0.00    +0.000 C 
ATOM      7  C   UNL     1       0.878  10.628  18.756  0.00  0.00    +0.000 C 
ENDROOT
BRANCH   1  12
ATOM      8  N   UNL     1       3.189   4.449  18.628  0.00  0.00    +0.000 N 
ATOM      9  C   UNL     1       2.576   5.605  19.122  0.00  0.00    +0.000 A 
ATOM     10  C   UNL     1       2.699   6.809  18.425  0.00  0.00    +0.000 A 
ATOM     11  C   UNL     1       2.148   7.987  18.944  0.00  0.00    +0.000 A 
ATOM     12  C   UNL     1       1.525   7.945  20.186  0.00  0.00    +0.000 A 
ATOM     13  C   UNL     1       1.436   6.718  20.811  0.00  0.00    +0.000 A 
ATOM     14  N   UNL     1       1.940   5.572  20.306  0.00  0.00    +0.000 NA
ATOM     15  H   UNL     1       3.211   4.499  17.614  0.00  0.00    +0.000 HD
BRANCH   8  17
ATOM     16  C   UNL     1       1.177   3.019  18.789  0.00  0.00    +0.000 C 
ATOM     17  C   UNL     1       2.687   3.121  19.063  0.00  0.00    +0.000 C 
ATOM     18  C   UNL     1       3.018   2.774  20.524  0.00  0.00    +0.000 C 
ATOM     19  C   UNL     1       3.407   2.068  18.189  0.00  0.00    +0.000 C 
ENDBRANCH   8  17
ENDBRANCH   1  12
BRANCH   5  20
ATOM     20  C   UNL     1      -1.449  11.900  19.065  0.00  0.00    +0.000 A 
ATOM     21  C   UNL     1      -2.347  12.408  20.007  0.00  0.00    +0.000 A 
ATOM     22  C   UNL     1      -3.718  12.344  19.764  0.00  0.00    +0.000 A 
ATOM     23  C   UNL     1      -4.170  11.783  18.584  0.00  0.00    +0.000 A 
ATOM     24  C   UNL     1      -3.229  11.312  17.688  0.00  0.00    +0.000 A 
ATOM     25  N   UNL     1      -1.895  11.359  17.900  0.00  0.00    +0.000 NA
ENDBRANCH   5  20
TORSDOF 3
ENDMDL
MODEL 8
REMARK VINA RESULT:      -7.0      1.476      2.220
REMARK  Name = 
REMARK  7 active torsions:
REMARK  status: ('A' for Active; 'I' for Inactive)
REMARK    1  A    between atoms: C_1  and  C_2
REMARK    2  A    between atoms: C_2  and  C_3
REMARK    3  A    between atoms: C_2  and  C_4
REMARK    4  A    between atoms: C_2  and  N_5
REMARK    5  A    between atoms: C_9  and  C_10
REMARK    6  A    between atoms: C_14  and  C_15
REMARK    7  A    between atoms: C_14  and  C_16
REMARK                            x       y       z     vdW  Elec       q    Type
REMARK                         _______ _______ _______ _____ _____    ______ ____
ROOT
ATOM      1  C   UNL     1       0.770   9.291  20.470  0.00  0.00    +0.000 C 
ATOM      2  O   UNL     1       0.081   8.735  21.324  0.00  0.00    +0.000 OA
ATOM      3  N   UNL     1       0.843  10.663  20.310  0.00  0.00    +0.000 N 
ATOM      4  C   UNL     1       0.110  11.652  21.091  0.00  0.00    +0.000 C 
ATOM      5  C   UNL     1      -0.365  12.293  19.763  0.00  0.00    +0.000 C 
ATOM      6  C   UNL     1       0.020  13.775  19.650  0.00  0.00    +0.000 C 
ATOM      7  C   UNL     1       0.652  11.376  19.040  0.00  0.00    +0.000 C 
ENDROOT
BRANCH   1  12
ATOM      8  N   UNL     1       4.149   6.068  17.285  0.00  0.00    +0.000 N 
ATOM      9  C   UNL     1       3.258   6.846  18.033  0.00  0.00    +0.000 A 
ATOM     10  C   UNL     1       2.852   8.092  17.551  0.00  0.00    +0.000 A 
ATOM     11  C   UNL     1       2.014   8.909  18.321  0.00  0.00    +0.000 A 
ATOM     12  C   UNL     1       1.642   8.481  19.589  0.00  0.00    +0.000 A 
ATOM     13  C   UNL     1       2.078   7.236  19.993  0.00  0.00    +0.000 A 
ATOM     14  N   UNL     1       2.863   6.429  19.248  0.00  0.00    +0.000 NA
ATOM     15  H   UNL     1       3.998   6.255  16.299  0.00  0.00    +0.000 HD
BRANCH   8  17
ATOM     16  C   UNL     1       2.785   4.045  17.691  0.00  0.00    +0.000 C 
ATOM     17  C   UNL     1       4.209   4.604  17.524  0.00  0.00    +0.000 C 
ATOM     18  C   UNL     1       5.114   4.198  18.699  0.00  0.00    +0.000 C 
ATOM     19  C   UNL     1       4.828   3.973  16.257  0.00  0.00    +0.000 C 
ENDBRANCH   8  17
ENDBRANCH   1  12
BRANCH   5  20
ATOM     20  C   UNL     1      -1.891  12.117  19.373  0.00  0.00    +0.000 A 
ATOM     21  C   UNL     1      -2.971  12.634  20.093  0.00  0.00    +0.000 A 
ATOM     22  C   UNL     1      -4.272  12.409  19.647  0.00  0.00    +0.000 A 
ATOM     23  C   UNL     1      -4.474  11.682  18.489  0.00  0.00    +0.000 A 
ATOM     24  C   UNL     1      -3.362  11.210  17.816  0.00  0.00    +0.000 A 
ATOM     25  N   UNL     1      -2.090  11.412  18.228  0.00  0.00    +0.000 NA
ENDBRANCH   5  20
TORSDOF 3
ENDMDL
MODEL 9
REMARK VINA RESULT:      -7.0      2.029      3.240
REMARK  Name = 
REMARK  7 active torsions:
REMARK  status: ('A' for Active; 'I' for Inactive)
REMARK    1  A    between atoms: C_1  and  C_2
REMARK    2  A    between atoms: C_2  and  C_3
REMARK    3  A    between atoms: C_2  and  C_4
REMARK    4  A    between atoms: C_2  and  N_5
REMARK    5  A    between atoms: C_9  and  C_10
REMARK    6  A    between atoms: C_14  and  C_15
REMARK    7  A    between atoms: C_14  and  C_16
REMARK                            x       y       z     vdW  Elec       q    Type
REMARK                         _______ _______ _______ _____ _____    ______ ____
ROOT
ATOM      1  C   UNL     1       0.622  10.886  18.839  0.00  0.00    +0.000 C 
ATOM      2  O   UNL     1       1.246  11.880  19.205  0.00  0.00    +0.000 OA
ATOM      3  N   UNL     1      -0.578  10.937  18.152  0.00  0.00    +0.000 N 
ATOM      4  C   UNL     1      -1.298  12.151  17.784  0.00  0.00    +0.000 C 
ATOM      5  C   UNL     1      -2.572  11.544  18.424  0.00  0.00    +0.000 C 
ATOM      6  C   UNL     1      -3.744  11.452  17.438  0.00  0.00    +0.000 C 
ATOM      7  C   UNL     1      -1.797  10.206  18.526  0.00  0.00    +0.000 C 
ENDROOT
BRANCH   1  12
ATOM      8  N   UNL     1       2.793   5.705  19.468  0.00  0.00    +0.000 N 
ATOM      9  C   UNL     1       2.315   7.014  19.340  0.00  0.00    +0.000 A 
ATOM     10  C   UNL     1       1.789   7.673  20.453  0.00  0.00    +0.000 A 
ATOM     11  C   UNL     1       1.245   8.957  20.323  0.00  0.00    +0.000 A 
ATOM     12  C   UNL     1       1.191   9.538  19.062  0.00  0.00    +0.000 A 
ATOM     13  C   UNL     1       1.737   8.829  18.012  0.00  0.00    +0.000 A 
ATOM     14  N   UNL     1       2.288   7.602  18.131  0.00  0.00    +0.000 NA
ATOM     15  H   UNL     1       3.160   5.582  20.406  0.00  0.00    +0.000 HD
BRANCH   8  17
ATOM     16  C   UNL     1       4.620   6.342  17.927  0.00  0.00    +0.000 C 
ATOM     17  C   UNL     1       3.760   5.187  18.468  0.00  0.00    +0.000 C 
ATOM     18  C   UNL     1       3.112   4.386  17.326  0.00  0.00    +0.000 C 
ATOM     19  C   UNL     1       4.689   4.205  19.218  0.00  0.00    +0.000 C 
ENDBRANCH   8  17
ENDBRANCH   1  12
BRANCH   5  20
ATOM     20  C   UNL     1      -3.079  12.182  19.783  0.00  0.00    +0.000 A 
ATOM     21  C   UNL     1      -4.382  12.620  20.030  0.00  0.00    +0.000 A 
ATOM     22  C   UNL     1      -4.706  13.166  21.271  0.00  0.00    +0.000 A 
ATOM     23  C   UNL     1      -3.730  13.258  22.246  0.00  0.00    +0.000 A 
ATOM     24  C   UNL     1      -2.464  12.793  21.942  0.00  0.00    +0.000 A 
ATOM     25  N   UNL     1      -2.123  12.262  20.746  0.00  0.00    +0.000 NA
ENDBRANCH   5  20
TORSDOF 3
ENDMDL
