MODEL 1
REMARK VINA RESULT:      -8.1      0.000      0.000
REMARK  Name = 
REMARK  10 active torsions:
REMARK  status: ('A' for Active; 'I' for Inactive)
REMARK    1  A    between atoms: C_1  and  N_2
REMARK    2  A    between atoms: N_2  and  C_17
REMARK    3  A    between atoms: C_3  and  C_5
REMARK    4  A    between atoms: C_9  and  C_10
REMARK    5  A    between atoms: C_11  and  C_12
REMARK    6  A    between atoms: C_12  and  C_13
REMARK    7  A    between atoms: C_12  and  C_14
REMARK    8  A    between atoms: C_12  and  O_15
REMARK    9  A    between atoms: N_21  and  C_22
REMARK   10  A    between atoms: C_22  and  C_23
REMARK                            x       y       z     vdW  Elec       q    Type
REMARK                         _______ _______ _______ _____ _____    ______ ____
ROOT
ATOM      1  C   UNL     1       1.576   3.551  21.158  0.00  0.00    +0.000 C 
ATOM      2  N   UNL     1       1.696   4.537  20.081  0.00  0.00    +0.000 N 
ATOM      3  C   UNL     1       2.028   5.852  20.467  0.00  0.00    +0.000 C 
ATOM      4  O   UNL     1       2.154   6.174  21.650  0.00  0.00    +0.000 OA
ENDROOT
BRANCH   3   5
ATOM      5  C   UNL     1       2.192   6.957  19.469  0.00  0.00    +0.000 A 
ATOM      6  C   UNL     1       3.249   7.043  18.555  0.00  0.00    +0.000 A 
ATOM      7  C   UNL     1       3.264   8.019  17.558  0.00  0.00    +0.000 A 
ATOM      8  C   UNL     1       2.287   9.003  17.548  0.00  0.00    +0.000 A 
ATOM      9  C   UNL     1       1.296   9.005  18.528  0.00  0.00    +0.000 A 
ATOM     10  C   UNL     1       1.232   7.979  19.475  0.00  0.00    +0.000 A 
BRANCH   9  11
ATOM     11  C   UNL     1       0.365  10.086  18.554  0.00  0.00    +0.000 C 
ATOM     12  C   UNL     1      -0.450  10.961  18.518  0.00  0.00    +0.000 C 
BRANCH  12  13
ATOM     13  C   UNL     1      -1.469  12.018  18.453  0.00  0.00    +0.000 C 
ATOM     14  C   UNL     1      -1.664  12.668  19.822  0.00  0.00    +0.000 C 
ATOM     15  C   UNL     1      -2.785  11.450  17.928  0.00  0.00    +0.000 C 
BRANCH  13  16
ATOM     16  O   UNL     1      -1.027  13.024  17.544  0.00  0.00    +0.000 OA
ATOM     17  H   UNL     1      -1.304  13.879  17.914  0.00  0.00    +0.000 HD
ENDBRANCH  13  16
ENDBRANCH  12  13
ENDBRANCH   9  11
ENDBRANCH   3   5
BRANCH   2  18
ATOM     18  C   UNL     1       1.480   4.079  18.682  0.00  0.00    +0.000 C 
ATOM     19  C   UNL     1       1.008   2.618  18.588  0.00  0.00    +0.000 C 
ATOM     20  C   UNL     1       2.166   1.637  18.676  0.00  0.00    +0.000 C 
ATOM     21  C   UNL     1       3.291   1.982  17.700  0.00  0.00    +0.000 C 
ATOM     22  N   UNL     1       3.743   3.376  17.837  0.00  0.00    +0.000 NA
ATOM     23  C   UNL     1       2.625   4.309  17.670  0.00  0.00    +0.000 C 
BRANCH  22  24
ATOM     24  C   UNL     1       4.800   3.725  16.871  0.00  0.00    +0.000 C 
BRANCH  24  25
ATOM     25  C   UNL     1       5.723   4.787  17.402  0.00  0.00    +0.000 A 
ATOM     26  C   UNL     1       6.225   4.706  18.710  0.00  0.00    +0.000 A 
ATOM     27  C   UNL     1       7.181   5.624  19.149  0.00  0.00    +0.000 A 
ATOM     28  C   UNL     1       7.632   6.623  18.291  0.00  0.00    +0.000 A 
ATOM     29  C   UNL     1       7.119   6.725  16.999  0.00  0.00    +0.000 A 
ATOM     30  C   UNL     1       6.165   5.812  16.566  0.00  0.00    +0.000 A 
ATOM     31  F   UNL     1       5.700   5.904  15.311  0.00  0.00    +0.000 F 
ENDBRANCH  24  25
ENDBRANCH  22  24
ENDBRANCH   2  18
TORSDOF 7
ENDMDL
MODEL 2
REMARK VINA RESULT:      -8.0      3.525      6.810
REMARK  Name = 
REMARK  10 active torsions:
REMARK  status: ('A' for Active; 'I' for Inactive)
REMARK    1  A    between atoms: C_1  and  N_2
REMARK    2  A    between atoms: N_2  and  C_17
REMARK    3  A    between atoms: C_3  and  C_5
REMARK    4  A    between atoms: C_9  and  C_10
REMARK    5  A    between atoms: C_11  and  C_12
REMARK    6  A    between atoms: C_12  and  C_13
REMARK    7  A    between atoms: C_12  and  C_14
REMARK    8  A    between atoms: C_12  and  O_15
REMARK    9  A    between atoms: N_21  and  C_22
REMARK   10  A    between atoms: C_22  and  C_23
REMARK                            x       y       z     vdW  Elec       q    Type
REMARK                         _______ _______ _______ _____ _____    ______ ____
ROOT
ATOM      1  C   UNL     1       4.218   4.029  15.354  0.00  0.00    +0.000 C 
ATOM      2  N   UNL     1       5.001   4.480  16.508  0.00  0.00    +0.000 N 
ATOM      3  C   UNL     1       5.944   5.500  16.266  0.00  0.00    +0.000 C 
ATOM      4  O   UNL     1       6.145   5.951  15.137  0.00  0.00    +0.000 OA
ENDROOT
BRANCH   3   5
ATOM      5  C   UNL     1       6.806   6.060  17.355  0.00  0.00    +0.000 A 
ATOM      6  C   UNL     1       7.195   5.348  18.498  0.00  0.00    +0.000 A 
ATOM      7  C   UNL     1       8.115   5.879  19.402  0.00  0.00    +0.000 A 
ATOM      8  C   UNL     1       8.555   7.185  19.243  0.00  0.00    +0.000 A 
ATOM      9  C   UNL     1       8.080   7.952  18.180  0.00  0.00    +0.000 A 
ATOM     10  C   UNL     1       7.225   7.392  17.227  0.00  0.00    +0.000 A 
BRANCH   9  11
ATOM     11  C   UNL     1       8.470   9.323  18.100  0.00  0.00    +0.000 C 
ATOM     12  C   UNL     1       8.817  10.467  18.105  0.00  0.00    +0.000 C 
BRANCH  12  13
ATOM     13  C   UNL     1       9.259  11.869  18.139  0.00  0.00    +0.000 C 
ATOM     14  C   UNL     1      10.689  11.999  17.617  0.00  0.00    +0.000 C 
ATOM     15  C   UNL     1       9.144  12.423  19.557  0.00  0.00    +0.000 C 
BRANCH  13  16
ATOM     16  O   UNL     1       8.406  12.637  17.293  0.00  0.00    +0.000 OA
ATOM     17  H   UNL     1       8.980  13.233  16.783  0.00  0.00    +0.000 HD
ENDBRANCH  13  16
ENDBRANCH  12  13
ENDBRANCH   9  11
ENDBRANCH   3   5
BRANCH   2  18
ATOM     18  C   UNL     1       4.733   3.849  17.827  0.00  0.00    +0.000 C 
ATOM     19  C   UNL     1       3.802   2.628  17.740  0.00  0.00    +0.000 C 
ATOM     20  C   UNL     1       2.336   3.031  17.691  0.00  0.00    +0.000 C 
ATOM     21  C   UNL     1       1.967   4.004  18.810  0.00  0.00    +0.000 C 
ATOM     22  N   UNL     1       2.855   5.177  18.848  0.00  0.00    +0.000 NA
ATOM     23  C   UNL     1       4.257   4.769  18.975  0.00  0.00    +0.000 C 
BRANCH  22  24
ATOM     24  C   UNL     1       2.528   6.099  19.952  0.00  0.00    +0.000 C 
BRANCH  24  25
ATOM     25  C   UNL     1       2.134   7.460  19.451  0.00  0.00    +0.000 A 
ATOM     26  C   UNL     1       2.369   7.825  18.116  0.00  0.00    +0.000 A 
ATOM     27  C   UNL     1       1.883   9.041  17.629  0.00  0.00    +0.000 A 
ATOM     28  C   UNL     1       1.171   9.893  18.469  0.00  0.00    +0.000 A 
ATOM     29  C   UNL     1       0.957   9.549  19.803  0.00  0.00    +0.000 A 
ATOM     30  C   UNL     1       1.445   8.340  20.285  0.00  0.00    +0.000 A 
ATOM     31  F   UNL     1       1.207   8.009  21.563  0.00  0.00    +0.000 F 
ENDBRANCH  24  25
ENDBRANCH  22  24
ENDBRANCH   2  18
TORSDOF 7
ENDMDL
MODEL 3
REMARK VINA RESULT:      -7.7      4.747      9.944
REMARK  Name = 
REMARK  10 active torsions:
REMARK  status: ('A' for Active; 'I' for Inactive)
REMARK    1  A    between atoms: C_1  and  N_2
REMARK    2  A    between atoms: N_2  and  C_17
REMARK    3  A    between atoms: C_3  and  C_5
REMARK    4  A    between atoms: C_9  and  C_10
REMARK    5  A    between atoms: C_11  and  C_12
REMARK    6  A    between atoms: C_12  and  C_13
REMARK    7  A    between atoms: C_12  and  C_14
REMARK    8  A    between atoms: C_12  and  O_15
REMARK    9  A    between atoms: N_21  and  C_22
REMARK   10  A    between atoms: C_22  and  C_23
REMARK                            x       y       z     vdW  Elec       q    Type
REMARK                         _______ _______ _______ _____ _____    ______ ____
ROOT
ATOM      1  C   UNL     1      -0.717  13.018  18.295  0.00  0.00    +0.000 C 
ATOM      2  N   UNL     1       0.115  12.012  18.961  0.00  0.00    +0.000 N 
ATOM      3  C   UNL     1      -0.079  10.673  18.563  0.00  0.00    +0.000 C 
ATOM      4  O   UNL     1      -0.940  10.353  17.742  0.00  0.00    +0.000 OA
ENDROOT
BRANCH   3   5
ATOM      5  C   UNL     1       0.710   9.546  19.156  0.00  0.00    +0.000 A 
ATOM      6  C   UNL     1       0.581   9.105  20.479  0.00  0.00    +0.000 A 
ATOM      7  C   UNL     1       1.239   7.959  20.925  0.00  0.00    +0.000 A 
ATOM      8  C   UNL     1       2.140   7.316  20.089  0.00  0.00    +0.000 A 
ATOM      9  C   UNL     1       2.375   7.817  18.809  0.00  0.00    +0.000 A 
ATOM     10  C   UNL     1       1.653   8.914  18.332  0.00  0.00    +0.000 A 
BRANCH   9  11
ATOM     11  C   UNL     1       3.381   7.198  18.008  0.00  0.00    +0.000 C 
ATOM     12  C   UNL     1       4.228   6.741  17.298  0.00  0.00    +0.000 C 
BRANCH  12  13
ATOM     13  C   UNL     1       5.275   6.211  16.413  0.00  0.00    +0.000 C 
ATOM     14  C   UNL     1       5.082   4.712  16.184  0.00  0.00    +0.000 C 
ATOM     15  C   UNL     1       6.655   6.499  16.997  0.00  0.00    +0.000 C 
BRANCH  13  16
ATOM     16  O   UNL     1       5.182   6.867  15.151  0.00  0.00    +0.000 OA
ATOM     17  H   UNL     1       5.773   7.639  15.192  0.00  0.00    +0.000 HD
ENDBRANCH  13  16
ENDBRANCH  12  13
ENDBRANCH   9  11
ENDBRANCH   3   5
BRANCH   2  18
ATOM     18  C   UNL     1       1.097  12.476  19.978  0.00  0.00    +0.000 C 
ATOM     19  C   UNL     1       0.550  12.431  21.414  0.00  0.00    +0.000 C 
ATOM     20  C   UNL     1      -0.291  13.655  21.743  0.00  0.00    +0.000 C 
ATOM     21  C   UNL     1       0.427  14.959  21.401  0.00  0.00    +0.000 C 
ATOM     22  N   UNL     1       0.910  14.985  20.010  0.00  0.00    +0.000 NA
ATOM     23  C   UNL     1       1.783  13.840  19.737  0.00  0.00    +0.000 C 
BRANCH  22  24
ATOM     24  C   UNL     1       1.639  16.225  19.688  0.00  0.00    +0.000 C 
BRANCH  24  25
ATOM     25  C   UNL     1       0.983  16.991  18.573  0.00  0.00    +0.000 A 
ATOM     26  C   UNL     1      -0.375  17.340  18.649  0.00  0.00    +0.000 A 
ATOM     27  C   UNL     1      -0.940  18.162  17.672  0.00  0.00    +0.000 A 
ATOM     28  C   UNL     1      -0.160  18.631  16.619  0.00  0.00    +0.000 A 
ATOM     29  C   UNL     1       1.183  18.267  16.523  0.00  0.00    +0.000 A 
ATOM     30  C   UNL     1       1.742  17.447  17.495  0.00  0.00    +0.000 A 
ATOM     31  F   UNL     1       3.042  17.128  17.406  0.00  0.00    +0.000 F 
ENDBRANCH  24  25
ENDBRANCH  22  24
ENDBRANCH   2  18
TORSDOF 7
ENDMDL
MODEL 4
REMARK VINA RESULT:      -7.6      0.887      1.246
REMARK  Name = 
REMARK  10 active torsions:
REMARK  status: ('A' for Active; 'I' for Inactive)
REMARK    1  A    between atoms: C_1  and  N_2
REMARK    2  A    between atoms: N_2  and  C_17
REMARK    3  A    between atoms: C_3  and  C_5
REMARK    4  A    between atoms: C_9  and  C_10
REMARK    5  A    between atoms: C_11  and  C_12
REMARK    6  A    between atoms: C_12  and  C_13
REMARK    7  A    between atoms: C_12  and  C_14
REMARK    8  A    between atoms: C_12  and  O_15
REMARK    9  A    between atoms: N_21  and  C_22
REMARK   10  A    between atoms: C_22  and  C_23
REMARK                            x       y       z     vdW  Elec       q    Type
REMARK                         _______ _______ _______ _____ _____    ______ ____
ROOT
ATOM      1  C   UNL     1       1.596   3.561  21.195  0.00  0.00    +0.000 C 
ATOM      2  N   UNL     1       1.700   4.539  20.108  0.00  0.00    +0.000 N 
ATOM      3  C   UNL     1       2.086   5.845  20.474  0.00  0.00    +0.000 C 
ATOM      4  O   UNL     1       2.271   6.168  21.649  0.00  0.00    +0.000 OA
ENDROOT
BRANCH   3   5
ATOM      5  C   UNL     1       2.240   6.940  19.464  0.00  0.00    +0.000 A 
ATOM      6  C   UNL     1       3.316   7.045  18.573  0.00  0.00    +0.000 A 
ATOM      7  C   UNL     1       3.325   8.007  17.563  0.00  0.00    +0.000 A 
ATOM      8  C   UNL     1       2.320   8.962  17.516  0.00  0.00    +0.000 A 
ATOM      9  C   UNL     1       1.307   8.948  18.474  0.00  0.00    +0.000 A 
ATOM     10  C   UNL     1       1.251   7.935  19.434  0.00  0.00    +0.000 A 
BRANCH   9  11
ATOM     11  C   UNL     1       0.345  10.002  18.464  0.00  0.00    +0.000 C 
ATOM     12  C   UNL     1      -0.418  10.922  18.503  0.00  0.00    +0.000 C 
BRANCH  12  13
ATOM     13  C   UNL     1      -1.333  12.071  18.565  0.00  0.00    +0.000 C 
ATOM     14  C   UNL     1      -1.101  12.879  19.841  0.00  0.00    +0.000 C 
ATOM     15  C   UNL     1      -2.781  11.598  18.476  0.00  0.00    +0.000 C 
BRANCH  13  16
ATOM     16  O   UNL     1      -1.075  12.922  17.450  0.00  0.00    +0.000 OA
ATOM     17  H   UNL     1      -0.501  13.639  17.770  0.00  0.00    +0.000 HD
ENDBRANCH  13  16
ENDBRANCH  12  13
ENDBRANCH   9  11
ENDBRANCH   3   5
BRANCH   2  18
ATOM     18  C   UNL     1       1.412   4.081  18.723  0.00  0.00    +0.000 C 
ATOM     19  C   UNL     1       0.919   2.627  18.654  0.00  0.00    +0.000 C 
ATOM     20  C   UNL     1       2.068   1.632  18.689  0.00  0.00    +0.000 C 
ATOM     21  C   UNL     1       3.149   1.961  17.661  0.00  0.00    +0.000 C 
ATOM     22  N   UNL     1       3.624   3.350  17.774  0.00  0.00    +0.000 NA
ATOM     23  C   UNL     1       2.511   4.296  17.658  0.00  0.00    +0.000 C 
BRANCH  22  24
ATOM     24  C   UNL     1       4.639   3.684  16.758  0.00  0.00    +0.000 C 
BRANCH  24  25
ATOM     25  C   UNL     1       5.696   4.606  17.298  0.00  0.00    +0.000 A 
ATOM     26  C   UNL     1       6.319   5.546  16.461  0.00  0.00    +0.000 A 
ATOM     27  C   UNL     1       7.203   6.483  17.000  0.00  0.00    +0.000 A 
ATOM     28  C   UNL     1       7.472   6.482  18.366  0.00  0.00    +0.000 A 
ATOM     29  C   UNL     1       6.877   5.536  19.199  0.00  0.00    +0.000 A 
ATOM     30  C   UNL     1       6.000   4.602  18.659  0.00  0.00    +0.000 A 
ATOM     31  F   UNL     1       5.413   3.715  19.476  0.00  0.00    +0.000 F 
ENDBRANCH  24  25
ENDBRANCH  22  24
ENDBRANCH   2  18
TORSDOF 7
ENDMDL
MODEL 5
REMARK VINA RESULT:      -7.4      1.089      1.221
REMARK  Name = 
REMARK  10 active torsions:
REMARK  status: ('A' for Active; 'I' for Inactive)
REMARK    1  A    between atoms: C_1  and  N_2
REMARK    2  A    between atoms: N_2  and  C_17
REMARK    3  A    between atoms: C_3  and  C_5
REMARK    4  A    between atoms: C_9  and  C_10
REMARK    5  A    between atoms: C_11  and  C_12
REMARK    6  A    between atoms: C_12  and  C_13
REMARK    7  A    between atoms: C_12  and  C_14
REMARK    8  A    between atoms: C_12  and  O_15
REMARK    9  A    between atoms: N_21  and  C_22
REMARK   10  A    between atoms: C_22  and  C_23
REMARK                            x       y       z     vdW  Elec       q    Type
REMARK                         _______ _______ _______ _____ _____    ______ ____
ROOT
ATOM      1  C   UNL     1       2.027   3.776  20.951  0.00  0.00    +0.000 C 
ATOM      2  N   UNL     1       1.967   4.852  19.958  0.00  0.00    +0.000 N 
ATOM      3  C   UNL     1       2.103   6.167  20.448  0.00  0.00    +0.000 C 
ATOM      4  O   UNL     1       2.209   6.409  21.652  0.00  0.00    +0.000 OA
ENDROOT
BRANCH   3   5
ATOM      5  C   UNL     1       2.068   7.361  19.544  0.00  0.00    +0.000 A 
ATOM      6  C   UNL     1       2.809   7.474  18.360  0.00  0.00    +0.000 A 
ATOM      7  C   UNL     1       2.621   8.549  17.491  0.00  0.00    +0.000 A 
ATOM      8  C   UNL     1       1.786   9.593  17.862  0.00  0.00    +0.000 A 
ATOM      9  C   UNL     1       1.138   9.555  19.096  0.00  0.00    +0.000 A 
ATOM     10  C   UNL     1       1.259   8.439  19.928  0.00  0.00    +0.000 A 
BRANCH   9  11
ATOM     11  C   UNL     1       0.367  10.688  19.496  0.00  0.00    +0.000 C 
ATOM     12  C   UNL     1      -0.266  11.667  19.763  0.00  0.00    +0.000 C 
BRANCH  12  13
ATOM     13  C   UNL     1      -1.044  12.878  20.061  0.00  0.00    +0.000 C 
ATOM     14  C   UNL     1      -2.539  12.619  19.883  0.00  0.00    +0.000 C 
ATOM     15  C   UNL     1      -0.582  14.032  19.175  0.00  0.00    +0.000 C 
BRANCH  13  16
ATOM     16  O   UNL     1      -0.816  13.244  21.420  0.00  0.00    +0.000 OA
ATOM     17  H   UNL     1      -0.504  12.446  21.878  0.00  0.00    +0.000 HD
ENDBRANCH  13  16
ENDBRANCH  12  13
ENDBRANCH   9  11
ENDBRANCH   3   5
BRANCH   2  18
ATOM     18  C   UNL     1       1.787   4.480  18.529  0.00  0.00    +0.000 C 
ATOM     19  C   UNL     1       1.230   3.059  18.337  0.00  0.00    +0.000 C 
ATOM     20  C   UNL     1       2.320   2.003  18.423  0.00  0.00    +0.000 C 
ATOM     21  C   UNL     1       3.507   2.323  17.516  0.00  0.00    +0.000 C 
ATOM     22  N   UNL     1       4.038   3.676  17.746  0.00  0.00    +0.000 NA
ATOM     23  C   UNL     1       2.990   4.686  17.581  0.00  0.00    +0.000 C 
BRANCH  22  24
ATOM     24  C   UNL     1       5.159   4.004  16.845  0.00  0.00    +0.000 C 
BRANCH  24  25
ATOM     25  C   UNL     1       6.029   5.096  17.402  0.00  0.00    +0.000 A 
ATOM     26  C   UNL     1       6.933   4.828  18.442  0.00  0.00    +0.000 A 
ATOM     27  C   UNL     1       7.827   5.816  18.862  0.00  0.00    +0.000 A 
ATOM     28  C   UNL     1       7.818   7.068  18.253  0.00  0.00    +0.000 A 
ATOM     29  C   UNL     1       6.906   7.349  17.238  0.00  0.00    +0.000 A 
ATOM     30  C   UNL     1       6.015   6.366  16.824  0.00  0.00    +0.000 A 
ATOM     31  F   UNL     1       5.162   6.641  15.826  0.00  0.00    +0.000 F 
ENDBRANCH  24  25
ENDBRANCH  22  24
ENDBRANCH   2  18
TORSDOF 7
ENDMDL
MODEL 6
REMARK VINA RESULT:      -7.3      4.521     10.404
REMARK  Name = 
REMARK  10 active torsions:
REMARK  status: ('A' for Active; 'I' for Inactive)
REMARK    1  A    between atoms: C_1  and  N_2
REMARK    2  A    between atoms: N_2  and  C_17
REMARK    3  A    between atoms: C_3  and  C_5
REMARK    4  A    between atoms: C_9  and  C_10
REMARK    5  A    between atoms: C_11  and  C_12
REMARK    6  A    between atoms: C_12  and  C_13
REMARK    7  A    between atoms: C_12  and  C_14
REMARK    8  A    between atoms: C_12  and  O_15
REMARK    9  A    between atoms: N_21  and  C_22
REMARK   10  A    between atoms: C_22  and  C_23
REMARK                            x       y       z     vdW  Elec       q    Type
REMARK                         _______ _______ _______ _____ _____    ______ ____
ROOT
ATOM      1  C   UNL     1      -0.741  11.092  22.632  0.00  0.00    +0.000 C 
ATOM      2  N   UNL     1      -0.185  10.670  21.344  0.00  0.00    +0.000 N 
ATOM      3  C   UNL     1       0.608   9.504  21.354  0.00  0.00    +0.000 C 
ATOM      4  O   UNL     1       0.872   8.901  22.396  0.00  0.00    +0.000 OA
ENDROOT
BRANCH   3   5
ATOM      5  C   UNL     1       1.232   8.956  20.107  0.00  0.00    +0.000 A 
ATOM      6  C   UNL     1       1.219   9.608  18.867  0.00  0.00    +0.000 A 
ATOM      7  C   UNL     1       1.942   9.111  17.783  0.00  0.00    +0.000 A 
ATOM      8  C   UNL     1       2.578   7.883  17.888  0.00  0.00    +0.000 A 
ATOM      9  C   UNL     1       2.496   7.160  19.078  0.00  0.00    +0.000 A 
ATOM     10  C   UNL     1       1.844   7.697  20.191  0.00  0.00    +0.000 A 
BRANCH   9  11
ATOM     11  C   UNL     1       3.073   5.856  19.124  0.00  0.00    +0.000 C 
ATOM     12  C   UNL     1       3.546   4.758  19.090  0.00  0.00    +0.000 C 
BRANCH  12  13
ATOM     13  C   UNL     1       4.128   3.410  19.015  0.00  0.00    +0.000 C 
ATOM     14  C   UNL     1       3.727   2.718  17.713  0.00  0.00    +0.000 C 
ATOM     15  C   UNL     1       3.701   2.583  20.224  0.00  0.00    +0.000 C 
BRANCH  13  16
ATOM     16  O   UNL     1       5.549   3.525  19.036  0.00  0.00    +0.000 OA
ATOM     17  H   UNL     1       5.823   3.453  19.966  0.00  0.00    +0.000 HD
ENDBRANCH  13  16
ENDBRANCH  12  13
ENDBRANCH   9  11
ENDBRANCH   3   5
BRANCH   2  18
ATOM     18  C   UNL     1      -0.510  11.481  20.140  0.00  0.00    +0.000 C 
ATOM     19  C   UNL     1       0.352  12.748  20.011  0.00  0.00    +0.000 C 
ATOM     20  C   UNL     1      -0.182  13.890  20.862  0.00  0.00    +0.000 C 
ATOM     21  C   UNL     1      -1.672  14.136  20.630  0.00  0.00    +0.000 C 
ATOM     22  N   UNL     1      -2.473  12.912  20.792  0.00  0.00    +0.000 NA
ATOM     23  C   UNL     1      -1.992  11.849  19.906  0.00  0.00    +0.000 C 
BRANCH  22  24
ATOM     24  C   UNL     1      -3.907  13.136  20.530  0.00  0.00    +0.000 C 
BRANCH  24  25
ATOM     25  C   UNL     1      -4.747  12.911  21.756  0.00  0.00    +0.000 A 
ATOM     26  C   UNL     1      -4.153  12.849  23.026  0.00  0.00    +0.000 A 
ATOM     27  C   UNL     1      -4.954  12.771  24.168  0.00  0.00    +0.000 A 
ATOM     28  C   UNL     1      -6.340  12.747  24.046  0.00  0.00    +0.000 A 
ATOM     29  C   UNL     1      -6.936  12.782  22.787  0.00  0.00    +0.000 A 
ATOM     30  C   UNL     1      -6.137  12.857  21.652  0.00  0.00    +0.000 A 
ATOM     31  F   UNL     1      -6.724  12.918  20.447  0.00  0.00    +0.000 F 
ENDBRANCH  24  25
ENDBRANCH  22  24
ENDBRANCH   2  18
TORSDOF 7
ENDMDL
MODEL 7
REMARK VINA RESULT:      -7.3      4.369     10.148
REMARK  Name = 
REMARK  10 active torsions:
REMARK  status: ('A' for Active; 'I' for Inactive)
REMARK    1  A    between atoms: C_1  and  N_2
REMARK    2  A    between atoms: N_2  and  C_17
REMARK    3  A    between atoms: C_3  and  C_5
REMARK    4  A    between atoms: C_9  and  C_10
REMARK    5  A    between atoms: C_11  and  C_12
REMARK    6  A    between atoms: C_12  and  C_13
REMARK    7  A    between atoms: C_12  and  C_14
REMARK    8  A    between atoms: C_12  and  O_15
REMARK    9  A    between atoms: N_21  and  C_22
REMARK   10  A    between atoms: C_22  and  C_23
REMARK                            x       y       z     vdW  Elec       q    Type
REMARK                         _______ _______ _______ _____ _____    ______ ____
ROOT
ATOM      1  C   UNL     1      -1.308  12.660  18.058  0.00  0.00    +0.000 C 
ATOM      2  N   UNL     1      -0.869  11.296  18.366  0.00  0.00    +0.000 N 
ATOM      3  C   UNL     1       0.392  11.168  18.985  0.00  0.00    +0.000 C 
ATOM      4  O   UNL     1       1.115  12.141  19.206  0.00  0.00    +0.000 OA
ENDROOT
BRANCH   3   5
ATOM      5  C   UNL     1       0.959   9.834  19.362  0.00  0.00    +0.000 A 
ATOM      6  C   UNL     1       0.647   9.150  20.544  0.00  0.00    +0.000 A 
ATOM      7  C   UNL     1       1.098   7.849  20.767  0.00  0.00    +0.000 A 
ATOM      8  C   UNL     1       1.978   7.266  19.868  0.00  0.00    +0.000 A 
ATOM      9  C   UNL     1       2.400   7.982  18.748  0.00  0.00    +0.000 A 
ATOM     10  C   UNL     1       1.882   9.252  18.481  0.00  0.00    +0.000 A 
BRANCH   9  11
ATOM     11  C   UNL     1       3.384   7.398  17.895  0.00  0.00    +0.000 C 
ATOM     12  C   UNL     1       4.208   6.848  17.225  0.00  0.00    +0.000 C 
BRANCH  12  13
ATOM     13  C   UNL     1       5.215   6.145  16.418  0.00  0.00    +0.000 C 
ATOM     14  C   UNL     1       4.895   4.653  16.332  0.00  0.00    +0.000 C 
ATOM     15  C   UNL     1       6.608   6.370  16.999  0.00  0.00    +0.000 C 
BRANCH  13  16
ATOM     16  O   UNL     1       5.195   6.679  15.096  0.00  0.00    +0.000 OA
ATOM     17  H   UNL     1       6.074   7.062  14.934  0.00  0.00    +0.000 HD
ENDBRANCH  13  16
ENDBRANCH  12  13
ENDBRANCH   9  11
ENDBRANCH   3   5
BRANCH   2  18
ATOM     18  C   UNL     1      -1.779  10.172  18.022  0.00  0.00    +0.000 C 
ATOM     19  C   UNL     1      -1.784   9.830  16.523  0.00  0.00    +0.000 C 
ATOM     20  C   UNL     1      -2.703  10.748  15.732  0.00  0.00    +0.000 C 
ATOM     21  C   UNL     1      -4.100  10.836  16.345  0.00  0.00    +0.000 C 
ATOM     22  N   UNL     1      -4.063  11.196  17.772  0.00  0.00    +0.000 NA
ATOM     23  C   UNL     1      -3.236  10.253  18.530  0.00  0.00    +0.000 C 
BRANCH  22  24
ATOM     24  C   UNL     1      -5.407  11.243  18.378  0.00  0.00    +0.000 C 
BRANCH  24  25
ATOM     25  C   UNL     1      -5.852  12.651  18.656  0.00  0.00    +0.000 A 
ATOM     26  C   UNL     1      -5.434  13.315  19.821  0.00  0.00    +0.000 A 
ATOM     27  C   UNL     1      -5.745  14.664  20.005  0.00  0.00    +0.000 A 
ATOM     28  C   UNL     1      -6.475  15.349  19.038  0.00  0.00    +0.000 A 
ATOM     29  C   UNL     1      -6.916  14.690  17.891  0.00  0.00    +0.000 A 
ATOM     30  C   UNL     1      -6.607  13.347  17.712  0.00  0.00    +0.000 A 
ATOM     31  F   UNL     1      -7.013  12.731  16.591  0.00  0.00    +0.000 F 
ENDBRANCH  24  25
ENDBRANCH  22  24
ENDBRANCH   2  18
TORSDOF 7
ENDMDL
MODEL 8
REMARK VINA RESULT:      -7.3      3.395      6.829
REMARK  Name = 
REMARK  10 active torsions:
REMARK  status: ('A' for Active; 'I' for Inactive)
REMARK    1  A    between atoms: C_1  and  N_2
REMARK    2  A    between atoms: N_2  and  C_17
REMARK    3  A    between atoms: C_3  and  C_5
REMARK    4  A    between atoms: C_9  and  C_10
REMARK    5  A    between atoms: C_11  and  C_12
REMARK    6  A    between atoms: C_12  and  C_13
REMARK    7  A    between atoms: C_12  and  C_14
REMARK    8  A    between atoms: C_12  and  O_15
REMARK    9  A    between atoms: N_21  and  C_22
REMARK   10  A    between atoms: C_22  and  C_23
REMARK                            x       y       z     vdW  Elec       q    Type
REMARK                         _______ _______ _______ _____ _____    ______ ____
ROOT
ATOM      1  C   UNL     1       2.769   4.198  16.804  0.00  0.00    +0.000 C 
ATOM      2  N   UNL     1       3.896   4.574  17.661  0.00  0.00    +0.000 N 
ATOM      3  C   UNL     1       4.976   5.225  17.029  0.00  0.00    +0.000 C 
ATOM      4  O   UNL     1       5.002   5.418  15.813  0.00  0.00    +0.000 OA
ENDROOT
BRANCH   3   5
ATOM      5  C   UNL     1       6.188   5.672  17.787  0.00  0.00    +0.000 A 
ATOM      6  C   UNL     1       6.934   4.847  18.638  0.00  0.00    +0.000 A 
ATOM      7  C   UNL     1       8.134   5.285  19.200  0.00  0.00    +0.000 A 
ATOM      8  C   UNL     1       8.533   6.601  19.023  0.00  0.00    +0.000 A 
ATOM      9  C   UNL     1       7.736   7.472  18.281  0.00  0.00    +0.000 A 
ATOM     10  C   UNL     1       6.579   7.012  17.648  0.00  0.00    +0.000 A 
BRANCH   9  11
ATOM     11  C   UNL     1       8.119   8.845  18.201  0.00  0.00    +0.000 C 
ATOM     12  C   UNL     1       8.507   9.976  18.160  0.00  0.00    +0.000 C 
BRANCH  12  13
ATOM     13  C   UNL     1       9.014  11.355  18.115  0.00  0.00    +0.000 C 
ATOM     14  C   UNL     1       8.111  12.236  17.252  0.00  0.00    +0.000 C 
ATOM     15  C   UNL     1      10.448  11.372  17.595  0.00  0.00    +0.000 C 
BRANCH  13  16
ATOM     16  O   UNL     1       9.016  11.885  19.438  0.00  0.00    +0.000 OA
ATOM     17  H   UNL     1       9.561  11.289  19.979  0.00  0.00    +0.000 HD
ENDBRANCH  13  16
ENDBRANCH  12  13
ENDBRANCH   9  11
ENDBRANCH   3   5
BRANCH   2  18
ATOM     18  C   UNL     1       3.809   4.261  19.113  0.00  0.00    +0.000 C 
ATOM     19  C   UNL     1       2.958   3.017  19.416  0.00  0.00    +0.000 C 
ATOM     20  C   UNL     1       1.471   3.336  19.447  0.00  0.00    +0.000 C 
ATOM     21  C   UNL     1       1.155   4.529  20.348  0.00  0.00    +0.000 C 
ATOM     22  N   UNL     1       1.963   5.714  20.013  0.00  0.00    +0.000 NA
ATOM     23  C   UNL     1       3.394   5.405  20.066  0.00  0.00    +0.000 C 
BRANCH  22  24
ATOM     24  C   UNL     1       1.690   6.855  20.906  0.00  0.00    +0.000 C 
BRANCH  24  25
ATOM     25  C   UNL     1       1.484   8.133  20.142  0.00  0.00    +0.000 A 
ATOM     26  C   UNL     1       1.993   8.277  18.842  0.00  0.00    +0.000 A 
ATOM     27  C   UNL     1       1.685   9.415  18.094  0.00  0.00    +0.000 A 
ATOM     28  C   UNL     1       0.877  10.409  18.639  0.00  0.00    +0.000 A 
ATOM     29  C   UNL     1       0.388  10.285  19.939  0.00  0.00    +0.000 A 
ATOM     30  C   UNL     1       0.700   9.152  20.682  0.00  0.00    +0.000 A 
ATOM     31  F   UNL     1       0.200   9.032  21.921  0.00  0.00    +0.000 F 
ENDBRANCH  24  25
ENDBRANCH  22  24
ENDBRANCH   2  18
TORSDOF 7
ENDMDL
MODEL 9
REMARK VINA RESULT:      -7.2      3.950      6.664
REMARK  Name = 
REMARK  10 active torsions:
REMARK  status: ('A' for Active; 'I' for Inactive)
REMARK    1  A    between atoms: C_1  and  N_2
REMARK    2  A    between atoms: N_2  and  C_17
REMARK    3  A    between atoms: C_3  and  C_5
REMARK    4  A    between atoms: C_9  and  C_10
REMARK    5  A    between atoms: C_11  and  C_12
REMARK    6  A    between atoms: C_12  and  C_13
REMARK    7  A    between atoms: C_12  and  C_14
REMARK    8  A    between atoms: C_12  and  O_15
REMARK    9  A    between atoms: N_21  and  C_22
REMARK   10  A    between atoms: C_22  and  C_23
REMARK                            x       y       z     vdW  Elec       q    Type
REMARK                         _______ _______ _______ _____ _____    ______ ____
ROOT
ATOM      1  C   UNL     1       1.308   8.951  21.755  0.00  0.00    +0.000 C 
ATOM      2  N   UNL     1       0.575  10.211  21.602  0.00  0.00    +0.000 N 
ATOM      3  C   UNL     1      -0.202  10.623  22.704  0.00  0.00    +0.000 C 
ATOM      4  O   UNL     1      -0.309   9.936  23.722  0.00  0.00    +0.000 OA
ENDROOT
BRANCH   3   5
ATOM      5  C   UNL     1      -0.995  11.893  22.687  0.00  0.00    +0.000 A 
ATOM      6  C   UNL     1      -0.437  13.169  22.536  0.00  0.00    +0.000 A 
ATOM      7  C   UNL     1      -1.243  14.297  22.384  0.00  0.00    +0.000 A 
ATOM      8  C   UNL     1      -2.619  14.178  22.515  0.00  0.00    +0.000 A 
ATOM      9  C   UNL     1      -3.183  12.934  22.791  0.00  0.00    +0.000 A 
ATOM     10  C   UNL     1      -2.383  11.790  22.859  0.00  0.00    +0.000 A 
BRANCH   9  11
ATOM     11  C   UNL     1      -4.590  12.859  23.022  0.00  0.00    +0.000 C 
ATOM     12  C   UNL     1      -5.777  12.849  23.164  0.00  0.00    +0.000 C 
BRANCH  12  13
ATOM     13  C   UNL     1      -7.240  12.855  23.311  0.00  0.00    +0.000 C 
ATOM     14  C   UNL     1      -7.916  13.202  21.985  0.00  0.00    +0.000 C 
ATOM     15  C   UNL     1      -7.656  13.833  24.406  0.00  0.00    +0.000 C 
BRANCH  13  16
ATOM     16  O   UNL     1      -7.665  11.550  23.698  0.00  0.00    +0.000 OA
ATOM     17  H   UNL     1      -6.924  11.144  24.177  0.00  0.00    +0.000 HD
ENDBRANCH  13  16
ENDBRANCH  12  13
ENDBRANCH   9  11
ENDBRANCH   3   5
BRANCH   2  18
ATOM     18  C   UNL     1       0.719  10.954  20.322  0.00  0.00    +0.000 C 
ATOM     19  C   UNL     1      -0.627  11.260  19.643  0.00  0.00    +0.000 C 
ATOM     20  C   UNL     1      -1.141  10.077  18.838  0.00  0.00    +0.000 C 
ATOM     21  C   UNL     1      -0.085   9.523  17.884  0.00  0.00    +0.000 C 
ATOM     22  N   UNL     1       1.180   9.210  18.569  0.00  0.00    +0.000 NA
ATOM     23  C   UNL     1       1.700  10.386  19.272  0.00  0.00    +0.000 C 
BRANCH  22  24
ATOM     24  C   UNL     1       2.216   8.714  17.644  0.00  0.00    +0.000 C 
BRANCH  24  25
ATOM     25  C   UNL     1       2.892   7.477  18.166  0.00  0.00    +0.000 A 
ATOM     26  C   UNL     1       2.414   6.835  19.319  0.00  0.00    +0.000 A 
ATOM     27  C   UNL     1       2.967   5.617  19.720  0.00  0.00    +0.000 A 
ATOM     28  C   UNL     1       3.997   5.042  18.980  0.00  0.00    +0.000 A 
ATOM     29  C   UNL     1       4.494   5.687  17.848  0.00  0.00    +0.000 A 
ATOM     30  C   UNL     1       3.944   6.900  17.454  0.00  0.00    +0.000 A 
ATOM     31  F   UNL     1       4.413   7.496  16.347  0.00  0.00    +0.000 F 
ENDBRANCH  24  25
ENDBRANCH  22  24
ENDBRANCH   2  18
TORSDOF 7
ENDMDL
