MODEL 1
REMARK VINA RESULT:      -7.6      0.000      0.000
REMARK  Name = 
REMARK  7 active torsions:
REMARK  status: ('A' for Active; 'I' for Inactive)
REMARK    1  A    between atoms: C_1  and  O_2
REMARK    2  A    between atoms: O_2  and  C_3
REMARK    3  A    between atoms: C_5  and  C_6
REMARK    4  A    between atoms: C_13  and  C_15
REMARK    5  A    between atoms: C_15  and  C_16
REMARK    6  A    between atoms: C_16  and  N_17
REMARK    7  A    between atoms: C_19  and  C_20
REMARK                            x       y       z     vdW  Elec       q    Type
REMARK                         _______ _______ _______ _____ _____    ______ ____
ROOT
ATOM      1  C   UNL     1       0.168  10.816  19.803  0.00  0.00    +0.000 A 
ATOM      2  C   UNL     1      -0.107  10.716  21.142  0.00  0.00    +0.000 A 
ATOM      3  C   UNL     1       0.403   9.598  21.759  0.00  0.00    +0.000 A 
ATOM      4  C   UNL     1       0.225   9.362  23.230  0.00  0.00    +0.000 C 
ATOM      5  N   UNL     1       1.105   8.662  21.086  0.00  0.00    +0.000 NA
ATOM      6  C   UNL     1       1.334   8.851  19.777  0.00  0.00    +0.000 A 
ATOM      7  N   UNL     1       2.102   7.951  19.092  0.00  0.00    +0.000 N 
ATOM      8  C   UNL     1       2.411   8.141  17.674  0.00  0.00    +0.000 C 
ATOM      9  C   UNL     1       3.849   7.655  17.402  0.00  0.00    +0.000 C 
ATOM     10  N   UNL     1       4.083   6.307  17.947  0.00  0.00    +0.000 N 
ATOM     11  C   UNL     1       4.698   5.341  17.170  0.00  0.00    +0.000 C 
ATOM     12  O   UNL     1       5.064   5.562  16.015  0.00  0.00    +0.000 OA
ATOM     13  C   UNL     1       3.699   6.151  19.360  0.00  0.00    +0.000 C 
ATOM     14  C   UNL     1       2.248   6.596  19.601  0.00  0.00    +0.000 C 
ATOM     15  N   UNL     1       0.892   9.920  19.122  0.00  0.00    +0.000 NA
ENDROOT
BRANCH   1  17
ATOM     16  C   UNL     1      -1.743  11.809  18.917  0.00  0.00    +0.000 C 
ATOM     17  O   UNL     1      -0.331  11.908  19.122  0.00  0.00    +0.000 OA
ENDBRANCH   1  17
BRANCH  11  18
ATOM     18  C   UNL     1       4.891   3.981  17.807  0.00  0.00    +0.000 C 
BRANCH  18  19
ATOM     19  C   UNL     1       3.782   3.017  17.411  0.00  0.00    +0.000 C 
BRANCH  19  20
ATOM     20  N   UNL     1       2.750   2.923  18.431  0.00  0.00    +0.000 N 
ATOM     21  C   UNL     1       2.934   2.829  19.781  0.00  0.00    +0.000 A 
ATOM     22  C   UNL     1       1.676   2.720  20.340  0.00  0.00    +0.000 A 
ATOM     23  C   UNL     1       1.311   2.577  21.767  0.00  0.00    +0.000 C 
ATOM     24  C   UNL     1       0.804   2.766  19.229  0.00  0.00    +0.000 A 
ATOM     25  N   UNL     1       1.454   2.896  18.069  0.00  0.00    +0.000 NA
ENDBRANCH  19  20
ENDBRANCH  18  19
ENDBRANCH  11  18
TORSDOF 4
ENDMDL
MODEL 2
REMARK VINA RESULT:      -7.5      2.450      8.059
REMARK  Name = 
REMARK  7 active torsions:
REMARK  status: ('A' for Active; 'I' for Inactive)
REMARK    1  A    between atoms: C_1  and  O_2
REMARK    2  A    between atoms: O_2  and  C_3
REMARK    3  A    between atoms: C_5  and  C_6
REMARK    4  A    between atoms: C_13  and  C_15
REMARK    5  A    between atoms: C_15  and  C_16
REMARK    6  A    between atoms: C_16  and  N_17
REMARK    7  A    between atoms: C_19  and  C_20
REMARK                            x       y       z     vdW  Elec       q    Type
REMARK                         _______ _______ _______ _____ _____    ______ ____
ROOT
ATOM      1  C   UNL     1       4.740   4.109  18.851  0.00  0.00    +0.000 A 
ATOM      2  C   UNL     1       5.467   4.189  17.692  0.00  0.00    +0.000 A 
ATOM      3  C   UNL     1       5.171   5.268  16.892  0.00  0.00    +0.000 A 
ATOM      4  C   UNL     1       5.907   5.521  15.609  0.00  0.00    +0.000 C 
ATOM      5  N   UNL     1       4.220   6.168  17.221  0.00  0.00    +0.000 NA
ATOM      6  C   UNL     1       3.566   6.014  18.384  0.00  0.00    +0.000 A 
ATOM      7  N   UNL     1       2.650   6.952  18.769  0.00  0.00    +0.000 N 
ATOM      8  C   UNL     1       1.945   6.844  20.048  0.00  0.00    +0.000 C 
ATOM      9  C   UNL     1       1.753   8.255  20.637  0.00  0.00    +0.000 C 
ATOM     10  N   UNL     1       1.178   9.187  19.651  0.00  0.00    +0.000 N 
ATOM     11  C   UNL     1       0.117  10.003  20.003  0.00  0.00    +0.000 C 
ATOM     12  O   UNL     1      -0.382   9.984  21.129  0.00  0.00    +0.000 OA
ATOM     13  C   UNL     1       1.886   9.212  18.360  0.00  0.00    +0.000 C 
ATOM     14  C   UNL     1       2.026   7.802  17.766  0.00  0.00    +0.000 C 
ATOM     15  N   UNL     1       3.818   5.008  19.216  0.00  0.00    +0.000 NA
ENDROOT
BRANCH   1  17
ATOM     16  C   UNL     1       3.773   2.542  20.277  0.00  0.00    +0.000 C 
ATOM     17  O   UNL     1       4.978   3.039  19.689  0.00  0.00    +0.000 OA
ENDBRANCH   1  17
BRANCH  11  18
ATOM     18  C   UNL     1      -0.416  10.923  18.924  0.00  0.00    +0.000 C 
BRANCH  18  19
ATOM     19  C   UNL     1      -1.916  11.137  19.065  0.00  0.00    +0.000 C 
BRANCH  19  20
ATOM     20  N   UNL     1      -2.609  10.995  17.796  0.00  0.00    +0.000 N 
ATOM     21  C   UNL     1      -2.171  10.326  16.689  0.00  0.00    +0.000 A 
ATOM     22  C   UNL     1      -3.138  10.498  15.718  0.00  0.00    +0.000 A 
ATOM     23  C   UNL     1      -3.149   9.991  14.328  0.00  0.00    +0.000 C 
ATOM     24  C   UNL     1      -4.122  11.288  16.355  0.00  0.00    +0.000 A 
ATOM     25  N   UNL     1      -3.807  11.585  17.619  0.00  0.00    +0.000 NA
ENDBRANCH  19  20
ENDBRANCH  18  19
ENDBRANCH  11  18
TORSDOF 4
ENDMDL
MODEL 3
REMARK VINA RESULT:      -7.2      2.474      4.457
REMARK  Name = 
REMARK  7 active torsions:
REMARK  status: ('A' for Active; 'I' for Inactive)
REMARK    1  A    between atoms: C_1  and  O_2
REMARK    2  A    between atoms: O_2  and  C_3
REMARK    3  A    between atoms: C_5  and  C_6
REMARK    4  A    between atoms: C_13  and  C_15
REMARK    5  A    between atoms: C_15  and  C_16
REMARK    6  A    between atoms: C_16  and  N_17
REMARK    7  A    between atoms: C_19  and  C_20
REMARK                            x       y       z     vdW  Elec       q    Type
REMARK                         _______ _______ _______ _____ _____    ______ ____
ROOT
ATOM      1  C   UNL     1       0.557   9.808  21.877  0.00  0.00    +0.000 A 
ATOM      2  C   UNL     1       0.427  10.844  20.989  0.00  0.00    +0.000 A 
ATOM      3  C   UNL     1       0.853  10.571  19.710  0.00  0.00    +0.000 A 
ATOM      4  C   UNL     1       0.740  11.586  18.611  0.00  0.00    +0.000 C 
ATOM      5  N   UNL     1       1.379   9.377  19.366  0.00  0.00    +0.000 NA
ATOM      6  C   UNL     1       1.457   8.417  20.302  0.00  0.00    +0.000 A 
ATOM      7  N   UNL     1       1.920   7.178  19.958  0.00  0.00    +0.000 N 
ATOM      8  C   UNL     1       1.983   6.092  20.938  0.00  0.00    +0.000 C 
ATOM      9  C   UNL     1       1.636   4.763  20.239  0.00  0.00    +0.000 C 
ATOM     10  N   UNL     1       2.417   4.574  19.004  0.00  0.00    +0.000 N 
ATOM     11  C   UNL     1       3.043   3.365  18.756  0.00  0.00    +0.000 C 
ATOM     12  O   UNL     1       2.978   2.418  19.541  0.00  0.00    +0.000 OA
ATOM     13  C   UNL     1       2.371   5.719  18.080  0.00  0.00    +0.000 C 
ATOM     14  C   UNL     1       2.766   7.027  18.783  0.00  0.00    +0.000 C 
ATOM     15  N   UNL     1       1.042   8.604  21.552  0.00  0.00    +0.000 NA
ENDROOT
BRANCH   1  17
ATOM     16  C   UNL     1      -1.106  10.680  23.254  0.00  0.00    +0.000 C 
ATOM     17  O   UNL     1       0.163  10.024  23.182  0.00  0.00    +0.000 OA
ENDBRANCH   1  17
BRANCH  11  18
ATOM     18  C   UNL     1       3.830   3.262  17.466  0.00  0.00    +0.000 C 
BRANCH  18  19
ATOM     19  C   UNL     1       5.165   3.985  17.569  0.00  0.00    +0.000 C 
BRANCH  19  20
ATOM     20  N   UNL     1       5.784   4.180  16.268  0.00  0.00    +0.000 N 
ATOM     21  C   UNL     1       5.410   3.606  15.086  0.00  0.00    +0.000 A 
ATOM     22  C   UNL     1       6.308   4.049  14.135  0.00  0.00    +0.000 A 
ATOM     23  C   UNL     1       6.363   3.717  12.694  0.00  0.00    +0.000 C 
ATOM     24  C   UNL     1       7.181   4.893  14.859  0.00  0.00    +0.000 A 
ATOM     25  N   UNL     1       6.860   4.979  16.152  0.00  0.00    +0.000 NA
ENDBRANCH  19  20
ENDBRANCH  18  19
ENDBRANCH  11  18
TORSDOF 4
ENDMDL
MODEL 4
REMARK VINA RESULT:      -7.2      2.133      3.958
REMARK  Name = 
REMARK  7 active torsions:
REMARK  status: ('A' for Active; 'I' for Inactive)
REMARK    1  A    between atoms: C_1  and  O_2
REMARK    2  A    between atoms: O_2  and  C_3
REMARK    3  A    between atoms: C_5  and  C_6
REMARK    4  A    between atoms: C_13  and  C_15
REMARK    5  A    between atoms: C_15  and  C_16
REMARK    6  A    between atoms: C_16  and  N_17
REMARK    7  A    between atoms: C_19  and  C_20
REMARK                            x       y       z     vdW  Elec       q    Type
REMARK                         _______ _______ _______ _____ _____    ______ ____
ROOT
ATOM      1  C   UNL     1       0.914   9.859  21.767  0.00  0.00    +0.000 A 
ATOM      2  C   UNL     1       0.922  10.881  20.853  0.00  0.00    +0.000 A 
ATOM      3  C   UNL     1       1.271  10.516  19.574  0.00  0.00    +0.000 A 
ATOM      4  C   UNL     1       1.287  11.510  18.451  0.00  0.00    +0.000 C 
ATOM      5  N   UNL     1       1.599   9.247  19.252  0.00  0.00    +0.000 NA
ATOM      6  C   UNL     1       1.552   8.310  20.212  0.00  0.00    +0.000 A 
ATOM      7  N   UNL     1       1.812   7.006  19.893  0.00  0.00    +0.000 N 
ATOM      8  C   UNL     1       1.732   5.947  20.900  0.00  0.00    +0.000 C 
ATOM      9  C   UNL     1       1.169   4.670  20.244  0.00  0.00    +0.000 C 
ATOM     10  N   UNL     1       1.882   4.335  18.999  0.00  0.00    +0.000 N 
ATOM     11  C   UNL     1       2.309   3.039  18.771  0.00  0.00    +0.000 C 
ATOM     12  O   UNL     1       2.119   2.132  19.582  0.00  0.00    +0.000 OA
ATOM     13  C   UNL     1       1.989   5.452  18.045  0.00  0.00    +0.000 C 
ATOM     14  C   UNL     1       2.596   6.700  18.705  0.00  0.00    +0.000 C 
ATOM     15  N   UNL     1       1.201   8.587  21.464  0.00  0.00    +0.000 NA
ENDROOT
BRANCH   1  17
ATOM     16  C   UNL     1      -0.827  10.220  23.271  0.00  0.00    +0.000 C 
ATOM     17  O   UNL     1       0.589  10.164  23.073  0.00  0.00    +0.000 OA
ENDBRANCH   1  17
BRANCH  11  18
ATOM     18  C   UNL     1       3.040   2.786  17.469  0.00  0.00    +0.000 C 
BRANCH  18  19
ATOM     19  C   UNL     1       4.532   2.588  17.696  0.00  0.00    +0.000 C 
BRANCH  19  20
ATOM     20  N   UNL     1       5.211   3.840  17.989  0.00  0.00    +0.000 N 
ATOM     21  C   UNL     1       5.471   4.858  17.117  0.00  0.00    +0.000 A 
ATOM     22  C   UNL     1       6.168   5.814  17.827  0.00  0.00    +0.000 A 
ATOM     23  C   UNL     1       6.702   7.110  17.351  0.00  0.00    +0.000 C 
ATOM     24  C   UNL     1       6.267   5.267  19.127  0.00  0.00    +0.000 A 
ATOM     25  N   UNL     1       5.681   4.071  19.229  0.00  0.00    +0.000 NA
ENDBRANCH  19  20
ENDBRANCH  18  19
ENDBRANCH  11  18
TORSDOF 4
ENDMDL
MODEL 5
REMARK VINA RESULT:      -7.0      2.376      8.067
REMARK  Name = 
REMARK  7 active torsions:
REMARK  status: ('A' for Active; 'I' for Inactive)
REMARK    1  A    between atoms: C_1  and  O_2
REMARK    2  A    between atoms: O_2  and  C_3
REMARK    3  A    between atoms: C_5  and  C_6
REMARK    4  A    between atoms: C_13  and  C_15
REMARK    5  A    between atoms: C_15  and  C_16
REMARK    6  A    between atoms: C_16  and  N_17
REMARK    7  A    between atoms: C_19  and  C_20
REMARK                            x       y       z     vdW  Elec       q    Type
REMARK                         _______ _______ _______ _____ _____    ______ ____
ROOT
ATOM      1  C   UNL     1       3.916   4.937  19.128  0.00  0.00    +0.000 A 
ATOM      2  C   UNL     1       4.661   5.031  17.981  0.00  0.00    +0.000 A 
ATOM      3  C   UNL     1       4.453   6.173  17.243  0.00  0.00    +0.000 A 
ATOM      4  C   UNL     1       5.221   6.445  15.983  0.00  0.00    +0.000 C 
ATOM      5  N   UNL     1       3.565   7.118  17.616  0.00  0.00    +0.000 NA
ATOM      6  C   UNL     1       2.887   6.945  18.762  0.00  0.00    +0.000 A 
ATOM      7  N   UNL     1       2.036   7.923  19.194  0.00  0.00    +0.000 N 
ATOM      8  C   UNL     1       1.309   7.793  20.458  0.00  0.00    +0.000 C 
ATOM      9  C   UNL     1       1.211   9.179  21.127  0.00  0.00    +0.000 C 
ATOM     10  N   UNL     1       0.717  10.204  20.192  0.00  0.00    +0.000 N 
ATOM     11  C   UNL     1      -0.287  11.074  20.582  0.00  0.00    +0.000 C 
ATOM     12  O   UNL     1      -0.800  11.026  21.701  0.00  0.00    +0.000 OA
ATOM     13  C   UNL     1       1.441  10.253  18.911  0.00  0.00    +0.000 C 
ATOM     14  C   UNL     1       1.487   8.873  18.237  0.00  0.00    +0.000 C 
ATOM     15  N   UNL     1       3.056   5.878  19.537  0.00  0.00    +0.000 NA
ENDROOT
BRANCH   1  17
ATOM     16  C   UNL     1       3.152   2.773  19.525  0.00  0.00    +0.000 C 
ATOM     17  O   UNL     1       4.066   3.806  19.904  0.00  0.00    +0.000 OA
ENDBRANCH   1  17
BRANCH  11  18
ATOM     18  C   UNL     1      -0.739  12.090  19.555  0.00  0.00    +0.000 C 
BRANCH  18  19
ATOM     19  C   UNL     1      -2.254  12.234  19.542  0.00  0.00    +0.000 C 
BRANCH  19  20
ATOM     20  N   UNL     1      -2.844  11.692  18.329  0.00  0.00    +0.000 N 
ATOM     21  C   UNL     1      -2.183  11.245  17.221  0.00  0.00    +0.000 A 
ATOM     22  C   UNL     1      -3.151  10.865  16.313  0.00  0.00    +0.000 A 
ATOM     23  C   UNL     1      -2.973  10.324  14.948  0.00  0.00    +0.000 C 
ATOM     24  C   UNL     1      -4.367  11.123  16.986  0.00  0.00    +0.000 A 
ATOM     25  N   UNL     1      -4.183  11.619  18.213  0.00  0.00    +0.000 NA
ENDBRANCH  19  20
ENDBRANCH  18  19
ENDBRANCH  11  18
TORSDOF 4
ENDMDL
MODEL 6
REMARK VINA RESULT:      -6.8      2.428      4.536
REMARK  Name = 
REMARK  7 active torsions:
REMARK  status: ('A' for Active; 'I' for Inactive)
REMARK    1  A    between atoms: C_1  and  O_2
REMARK    2  A    between atoms: O_2  and  C_3
REMARK    3  A    between atoms: C_5  and  C_6
REMARK    4  A    between atoms: C_13  and  C_15
REMARK    5  A    between atoms: C_15  and  C_16
REMARK    6  A    between atoms: C_16  and  N_17
REMARK    7  A    between atoms: C_19  and  C_20
REMARK                            x       y       z     vdW  Elec       q    Type
REMARK                         _______ _______ _______ _____ _____    ______ ____
ROOT
ATOM      1  C   UNL     1      -0.417  11.140  21.656  0.00  0.00    +0.000 A 
ATOM      2  C   UNL     1      -1.058  11.911  20.722  0.00  0.00    +0.000 A 
ATOM      3  C   UNL     1      -0.838  11.545  19.415  0.00  0.00    +0.000 A 
ATOM      4  C   UNL     1      -1.500  12.263  18.276  0.00  0.00    +0.000 C 
ATOM      5  N   UNL     1      -0.034  10.514  19.082  0.00  0.00    +0.000 NA
ATOM      6  C   UNL     1       0.544   9.808  20.067  0.00  0.00    +0.000 A 
ATOM      7  N   UNL     1       1.305   8.716  19.755  0.00  0.00    +0.000 N 
ATOM      8  C   UNL     1       1.919   7.895  20.799  0.00  0.00    +0.000 C 
ATOM      9  C   UNL     1       1.890   6.417  20.360  0.00  0.00    +0.000 C 
ATOM     10  N   UNL     1       2.418   6.242  18.996  0.00  0.00    +0.000 N 
ATOM     11  C   UNL     1       3.339   5.243  18.731  0.00  0.00    +0.000 C 
ATOM     12  O   UNL     1       3.750   4.479  19.605  0.00  0.00    +0.000 OA
ATOM     13  C   UNL     1       1.812   7.134  17.994  0.00  0.00    +0.000 C 
ATOM     14  C   UNL     1       1.893   8.606  18.428  0.00  0.00    +0.000 C 
ATOM     15  N   UNL     1       0.357  10.090  21.352  0.00  0.00    +0.000 NA
ENDROOT
BRANCH   1  17
ATOM     16  C   UNL     1      -1.907  11.938  23.258  0.00  0.00    +0.000 C 
ATOM     17  O   UNL     1      -0.584  11.466  22.987  0.00  0.00    +0.000 OA
ENDBRANCH   1  17
BRANCH  11  18
ATOM     18  C   UNL     1       3.835   5.140  17.304  0.00  0.00    +0.000 C 
BRANCH  18  19
ATOM     19  C   UNL     1       5.290   5.571  17.186  0.00  0.00    +0.000 C 
BRANCH  19  20
ATOM     20  N   UNL     1       5.882   5.158  15.924  0.00  0.00    +0.000 N 
ATOM     21  C   UNL     1       5.315   4.358  14.973  0.00  0.00    +0.000 A 
ATOM     22  C   UNL     1       6.259   4.207  13.976  0.00  0.00    +0.000 A 
ATOM     23  C   UNL     1       6.159   3.426  12.723  0.00  0.00    +0.000 C 
ATOM     24  C   UNL     1       7.360   4.968  14.432  0.00  0.00    +0.000 A 
ATOM     25  N   UNL     1       7.130   5.552  15.611  0.00  0.00    +0.000 NA
ENDBRANCH  19  20
ENDBRANCH  18  19
ENDBRANCH  11  18
TORSDOF 4
ENDMDL
MODEL 7
REMARK VINA RESULT:      -6.8      0.718      1.090
REMARK  Name = 
REMARK  7 active torsions:
REMARK  status: ('A' for Active; 'I' for Inactive)
REMARK    1  A    between atoms: C_1  and  O_2
REMARK    2  A    between atoms: O_2  and  C_3
REMARK    3  A    between atoms: C_5  and  C_6
REMARK    4  A    between atoms: C_13  and  C_15
REMARK    5  A    between atoms: C_15  and  C_16
REMARK    6  A    between atoms: C_16  and  N_17
REMARK    7  A    between atoms: C_19  and  C_20
REMARK                            x       y       z     vdW  Elec       q    Type
REMARK                         _______ _______ _______ _____ _____    ______ ____
ROOT
ATOM      1  C   UNL     1       0.070  10.619  19.634  0.00  0.00    +0.000 A 
ATOM      2  C   UNL     1      -0.134  10.545  20.987  0.00  0.00    +0.000 A 
ATOM      3  C   UNL     1       0.501   9.500  21.616  0.00  0.00    +0.000 A 
ATOM      4  C   UNL     1       0.410   9.304  23.101  0.00  0.00    +0.000 C 
ATOM      5  N   UNL     1       1.253   8.605  20.942  0.00  0.00    +0.000 NA
ATOM      6  C   UNL     1       1.407   8.765  19.618  0.00  0.00    +0.000 A 
ATOM      7  N   UNL     1       2.221   7.912  18.927  0.00  0.00    +0.000 N 
ATOM      8  C   UNL     1       2.448   8.075  17.490  0.00  0.00    +0.000 C 
ATOM      9  C   UNL     1       3.910   7.709  17.167  0.00  0.00    +0.000 C 
ATOM     10  N   UNL     1       4.289   6.407  17.744  0.00  0.00    +0.000 N 
ATOM     11  C   UNL     1       4.953   5.471  16.970  0.00  0.00    +0.000 C 
ATOM     12  O   UNL     1       5.246   5.680  15.793  0.00  0.00    +0.000 OA
ATOM     13  C   UNL     1       3.983   6.271  19.178  0.00  0.00    +0.000 C 
ATOM     14  C   UNL     1       2.510   6.594  19.473  0.00  0.00    +0.000 C 
ATOM     15  N   UNL     1       0.841   9.765  18.949  0.00  0.00    +0.000 NA
ENDROOT
BRANCH   1  17
ATOM     16  C   UNL     1      -1.716  11.174  18.247  0.00  0.00    +0.000 C 
ATOM     17  O   UNL     1      -0.555  11.637  18.942  0.00  0.00    +0.000 OA
ENDBRANCH   1  17
BRANCH  11  18
ATOM     18  C   UNL     1       5.296   4.158  17.643  0.00  0.00    +0.000 C 
BRANCH  18  19
ATOM     19  C   UNL     1       4.118   3.195  17.618  0.00  0.00    +0.000 C 
BRANCH  19  20
ATOM     20  N   UNL     1       3.649   2.871  18.956  0.00  0.00    +0.000 N 
ATOM     21  C   UNL     1       2.374   2.989  19.432  0.00  0.00    +0.000 A 
ATOM     22  C   UNL     1       2.414   2.608  20.758  0.00  0.00    +0.000 A 
ATOM     23  C   UNL     1       1.308   2.565  21.739  0.00  0.00    +0.000 C 
ATOM     24  C   UNL     1       3.771   2.274  20.975  0.00  0.00    +0.000 A 
ATOM     25  N   UNL     1       4.521   2.427  19.880  0.00  0.00    +0.000 NA
ENDBRANCH  19  20
ENDBRANCH  18  19
ENDBRANCH  11  18
TORSDOF 4
ENDMDL
MODEL 8
REMARK VINA RESULT:      -6.8      2.349      8.185
REMARK  Name = 
REMARK  7 active torsions:
REMARK  status: ('A' for Active; 'I' for Inactive)
REMARK    1  A    between atoms: C_1  and  O_2
REMARK    2  A    between atoms: O_2  and  C_3
REMARK    3  A    between atoms: C_5  and  C_6
REMARK    4  A    between atoms: C_13  and  C_15
REMARK    5  A    between atoms: C_15  and  C_16
REMARK    6  A    between atoms: C_16  and  N_17
REMARK    7  A    between atoms: C_19  and  C_20
REMARK                            x       y       z     vdW  Elec       q    Type
REMARK                         _______ _______ _______ _____ _____    ______ ____
ROOT
ATOM      1  C   UNL     1       4.787   4.386  19.006  0.00  0.00    +0.000 A 
ATOM      2  C   UNL     1       5.484   4.423  17.826  0.00  0.00    +0.000 A 
ATOM      3  C   UNL     1       5.128   5.440  16.972  0.00  0.00    +0.000 A 
ATOM      4  C   UNL     1       5.824   5.643  15.658  0.00  0.00    +0.000 C 
ATOM      5  N   UNL     1       4.151   6.322  17.271  0.00  0.00    +0.000 NA
ATOM      6  C   UNL     1       3.531   6.214  18.456  0.00  0.00    +0.000 A 
ATOM      7  N   UNL     1       2.588   7.139  18.809  0.00  0.00    +0.000 N 
ATOM      8  C   UNL     1       1.917   7.082  20.109  0.00  0.00    +0.000 C 
ATOM      9  C   UNL     1       1.684   8.518  20.618  0.00  0.00    +0.000 C 
ATOM     10  N   UNL     1       1.052   9.366  19.594  0.00  0.00    +0.000 N 
ATOM     11  C   UNL     1      -0.031  10.163  19.923  0.00  0.00    +0.000 C 
ATOM     12  O   UNL     1      -0.503  10.193  21.061  0.00  0.00    +0.000 OA
ATOM     13  C   UNL     1       1.729   9.341  18.286  0.00  0.00    +0.000 C 
ATOM     14  C   UNL     1       1.909   7.904  17.773  0.00  0.00    +0.000 C 
ATOM     15  N   UNL     1       3.840   5.270  19.340  0.00  0.00    +0.000 NA
ENDROOT
BRANCH   1  17
ATOM     16  C   UNL     1       4.204   2.260  19.757  0.00  0.00    +0.000 C 
ATOM     17  O   UNL     1       5.086   3.377  19.900  0.00  0.00    +0.000 OA
ENDBRANCH   1  17
BRANCH  11  18
ATOM     18  C   UNL     1      -0.623  10.996  18.806  0.00  0.00    +0.000 C 
BRANCH  18  19
ATOM     19  C   UNL     1      -1.510  10.158  17.896  0.00  0.00    +0.000 C 
BRANCH  19  20
ATOM     20  N   UNL     1      -2.782  10.809  17.623  0.00  0.00    +0.000 N 
ATOM     21  C   UNL     1      -3.577  11.469  18.516  0.00  0.00    +0.000 A 
ATOM     22  C   UNL     1      -4.694  11.880  17.816  0.00  0.00    +0.000 A 
ATOM     23  C   UNL     1      -5.871  12.624  18.315  0.00  0.00    +0.000 C 
ATOM     24  C   UNL     1      -4.462  11.414  16.502  0.00  0.00    +0.000 A 
ATOM     25  N   UNL     1      -3.298  10.770  16.381  0.00  0.00    +0.000 NA
ENDBRANCH  19  20
ENDBRANCH  18  19
ENDBRANCH  11  18
TORSDOF 4
ENDMDL
MODEL 9
REMARK VINA RESULT:      -6.6      2.395      7.945
REMARK  Name = 
REMARK  7 active torsions:
REMARK  status: ('A' for Active; 'I' for Inactive)
REMARK    1  A    between atoms: C_1  and  O_2
REMARK    2  A    between atoms: O_2  and  C_3
REMARK    3  A    between atoms: C_5  and  C_6
REMARK    4  A    between atoms: C_13  and  C_15
REMARK    5  A    between atoms: C_15  and  C_16
REMARK    6  A    between atoms: C_16  and  N_17
REMARK    7  A    between atoms: C_19  and  C_20
REMARK                            x       y       z     vdW  Elec       q    Type
REMARK                         _______ _______ _______ _____ _____    ______ ____
ROOT
ATOM      1  C   UNL     1       3.030   4.072  18.156  0.00  0.00    +0.000 A 
ATOM      2  C   UNL     1       2.602   3.213  19.135  0.00  0.00    +0.000 A 
ATOM      3  C   UNL     1       1.993   3.814  20.211  0.00  0.00    +0.000 A 
ATOM      4  C   UNL     1       1.432   3.009  21.347  0.00  0.00    +0.000 C 
ATOM      5  N   UNL     1       1.848   5.152  20.301  0.00  0.00    +0.000 NA
ATOM      6  C   UNL     1       2.289   5.915  19.288  0.00  0.00    +0.000 A 
ATOM      7  N   UNL     1       2.089   7.266  19.326  0.00  0.00    +0.000 N 
ATOM      8  C   UNL     1       2.517   8.129  18.223  0.00  0.00    +0.000 C 
ATOM      9  C   UNL     1       1.485   9.259  18.039  0.00  0.00    +0.000 C 
ATOM     10  N   UNL     1       1.177   9.932  19.313  0.00  0.00    +0.000 N 
ATOM     11  C   UNL     1       1.163  11.314  19.382  0.00  0.00    +0.000 C 
ATOM     12  O   UNL     1       1.405  12.024  18.405  0.00  0.00    +0.000 OA
ATOM     13  C   UNL     1       0.812   9.017  20.406  0.00  0.00    +0.000 C 
ATOM     14  C   UNL     1       1.875   7.925  20.606  0.00  0.00    +0.000 C 
ATOM     15  N   UNL     1       2.866   5.400  18.206  0.00  0.00    +0.000 NA
ENDROOT
BRANCH   1  17
ATOM     16  C   UNL     1       4.746   4.354  16.606  0.00  0.00    +0.000 C 
ATOM     17  O   UNL     1       3.665   3.532  17.056  0.00  0.00    +0.000 OA
ENDBRANCH   1  17
BRANCH  11  18
ATOM     18  C   UNL     1       0.844  11.921  20.733  0.00  0.00    +0.000 C 
BRANCH  18  19
ATOM     19  C   UNL     1      -0.297  12.923  20.638  0.00  0.00    +0.000 C 
BRANCH  19  20
ATOM     20  N   UNL     1      -1.356  12.637  21.592  0.00  0.00    +0.000 N 
ATOM     21  C   UNL     1      -2.612  13.174  21.613  0.00  0.00    +0.000 A 
ATOM     22  C   UNL     1      -3.247  12.641  22.717  0.00  0.00    +0.000 A 
ATOM     23  C   UNL     1      -4.619  12.903  23.207  0.00  0.00    +0.000 C 
ATOM     24  C   UNL     1      -2.277  11.786  23.288  0.00  0.00    +0.000 A 
ATOM     25  N   UNL     1      -1.131  11.777  22.602  0.00  0.00    +0.000 NA
ENDBRANCH  19  20
ENDBRANCH  18  19
ENDBRANCH  11  18
TORSDOF 4
ENDMDL
