MODEL 1
REMARK VINA RESULT:      -7.0      0.000      0.000
REMARK  Name = 
REMARK  13 active torsions:
REMARK  status: ('A' for Active; 'I' for Inactive)
REMARK    1  A    between atoms: C_1  and  C_2
REMARK    2  A    between atoms: C_2  and  C_3
REMARK    3  A    between atoms: C_3  and  C_4
REMARK    4  A    between atoms: C_4  and  C_5
REMARK    5  A    between atoms: C_5  and  C_6
REMARK    6  A    between atoms: C_7  and  C_8
REMARK    7  A    between atoms: C_8  and  C_9
REMARK    8  A    between atoms: C_10  and  C_11
REMARK    9  A    between atoms: C_12  and  C_13
REMARK   10  A    between atoms: C_14  and  C_15
REMARK   11  A    between atoms: C_17  and  C_18
REMARK   12  A    between atoms: C_18  and  C_19
REMARK   13  A    between atoms: C_19  and  O_21
REMARK                            x       y       z     vdW  Elec       q    Type
REMARK                         _______ _______ _______ _____ _____    ______ ____
ROOT
ATOM      1  C   UNL     1       7.676   6.666  18.375  0.00  0.00    +0.000 C 
ATOM      2  C   UNL     1       7.880   7.635  17.467  0.00  0.00    +0.000 C 
ENDROOT
BRANCH   1   4
ATOM      3  C   UNL     1       6.376   4.589  18.254  0.00  0.00    +0.000 C 
ATOM      4  C   UNL     1       7.525   5.266  18.064  0.00  0.00    +0.000 C 
BRANCH   3   5
ATOM      5  C   UNL     1       5.150   5.158  18.907  0.00  0.00    +0.000 C 
BRANCH   5   7
ATOM      6  C   UNL     1       2.961   5.979  17.968  0.00  0.00    +0.000 C 
ATOM      7  C   UNL     1       4.305   5.985  17.980  0.00  0.00    +0.000 C 
BRANCH   6   8
ATOM      8  C   UNL     1       2.137   5.089  18.857  0.00  0.00    +0.000 C 
BRANCH   8   9
ATOM      9  C   UNL     1       1.633   3.828  18.165  0.00  0.00    +0.000 C 
BRANCH   9  10
ATOM     10  C   UNL     1       0.885   2.949  19.169  0.00  0.00    +0.000 C 
BRANCH  10  12
ATOM     11  C   UNL     1       1.862   2.596  21.456  0.00  0.00    +0.000 C 
ATOM     12  C   UNL     1       1.002   3.497  20.586  0.00  0.00    +0.000 C 
ENDBRANCH  10  12
ENDBRANCH   9  10
ENDBRANCH   8   9
ENDBRANCH   6   8
ENDBRANCH   5   7
ENDBRANCH   3   5
ENDBRANCH   1   4
BRANCH   2  13
ATOM     13  C   UNL     1       8.045   9.008  17.885  0.00  0.00    +0.000 C 
ATOM     14  C   UNL     1       9.103   9.466  18.570  0.00  0.00    +0.000 C 
BRANCH  14  15
ATOM     15  C   UNL     1       9.282  10.858  18.992  0.00  0.00    +0.000 C 
ATOM     16  C   UNL     1      10.674  11.375  19.239  0.00  0.00    +0.000 C 
ATOM     17  C   UNL     1       9.922  11.818  18.011  0.00  0.00    +0.000 C 
BRANCH  17  18
ATOM     18  C   UNL     1       9.451  13.239  17.900  0.00  0.00    +0.000 C 
BRANCH  18  19
ATOM     19  C   UNL     1      10.486  14.165  17.301  0.00  0.00    +0.000 C 
ATOM     20  O   UNL     1      10.737  15.280  17.729  0.00  0.00    +0.000 OA
BRANCH  19  21
ATOM     21  O   UNL     1      11.101  13.653  16.208  0.00  0.00    +0.000 OA
ATOM     22  H   UNL     1      10.542  13.009  15.732  0.00  0.00    +0.000 HD
ENDBRANCH  19  21
ENDBRANCH  18  19
ENDBRANCH  17  18
ENDBRANCH  14  15
ENDBRANCH   2  13
TORSDOF 12
ENDMDL
MODEL 2
REMARK VINA RESULT:      -6.8      1.462      1.840
REMARK  Name = 
REMARK  13 active torsions:
REMARK  status: ('A' for Active; 'I' for Inactive)
REMARK    1  A    between atoms: C_1  and  C_2
REMARK    2  A    between atoms: C_2  and  C_3
REMARK    3  A    between atoms: C_3  and  C_4
REMARK    4  A    between atoms: C_4  and  C_5
REMARK    5  A    between atoms: C_5  and  C_6
REMARK    6  A    between atoms: C_7  and  C_8
REMARK    7  A    between atoms: C_8  and  C_9
REMARK    8  A    between atoms: C_10  and  C_11
REMARK    9  A    between atoms: C_12  and  C_13
REMARK   10  A    between atoms: C_14  and  C_15
REMARK   11  A    between atoms: C_17  and  C_18
REMARK   12  A    between atoms: C_18  and  C_19
REMARK   13  A    between atoms: C_19  and  O_21
REMARK                            x       y       z     vdW  Elec       q    Type
REMARK                         _______ _______ _______ _____ _____    ______ ____
ROOT
ATOM      1  C   UNL     1       6.289   6.240  16.533  0.00  0.00    +0.000 C 
ATOM      2  C   UNL     1       7.432   6.561  17.163  0.00  0.00    +0.000 C 
ENDROOT
BRANCH   1   4
ATOM      3  C   UNL     1       5.344   4.001  16.195  0.00  0.00    +0.000 C 
ATOM      4  C   UNL     1       6.085   5.038  15.762  0.00  0.00    +0.000 C 
BRANCH   3   5
ATOM      5  C   UNL     1       4.729   3.905  17.561  0.00  0.00    +0.000 C 
BRANCH   5   7
ATOM      6  C   UNL     1       2.522   2.721  17.832  0.00  0.00    +0.000 C 
ATOM      7  C   UNL     1       3.864   2.692  17.746  0.00  0.00    +0.000 C 
BRANCH   6   8
ATOM      8  C   UNL     1       1.726   3.996  17.806  0.00  0.00    +0.000 C 
BRANCH   8   9
ATOM      9  C   UNL     1       1.290   4.473  19.187  0.00  0.00    +0.000 C 
BRANCH   9  10
ATOM     10  C   UNL     1       0.882   3.275  20.046  0.00  0.00    +0.000 C 
BRANCH  10  12
ATOM     11  C   UNL     1       2.727   2.479  21.552  0.00  0.00    +0.000 C 
ATOM     12  C   UNL     1       1.492   3.355  21.440  0.00  0.00    +0.000 C 
ENDBRANCH  10  12
ENDBRANCH   9  10
ENDBRANCH   8   9
ENDBRANCH   6   8
ENDBRANCH   5   7
ENDBRANCH   3   5
ENDBRANCH   1   4
BRANCH   2  13
ATOM     13  C   UNL     1       7.527   7.779  17.933  0.00  0.00    +0.000 C 
ATOM     14  C   UNL     1       8.249   8.848  17.566  0.00  0.00    +0.000 C 
BRANCH  14  15
ATOM     15  C   UNL     1       8.347  10.091  18.338  0.00  0.00    +0.000 C 
ATOM     16  C   UNL     1       9.485  10.263  19.307  0.00  0.00    +0.000 C 
ATOM     17  C   UNL     1       9.485  11.036  18.015  0.00  0.00    +0.000 C 
BRANCH  17  18
ATOM     18  C   UNL     1       9.287  12.523  18.039  0.00  0.00    +0.000 C 
BRANCH  18  19
ATOM     19  C   UNL     1      10.569  13.300  17.839  0.00  0.00    +0.000 C 
ATOM     20  O   UNL     1      11.635  13.008  18.357  0.00  0.00    +0.000 OA
BRANCH  19  21
ATOM     21  O   UNL     1      10.423  14.387  17.044  0.00  0.00    +0.000 OA
ATOM     22  H   UNL     1       9.975  14.178  16.203  0.00  0.00    +0.000 HD
ENDBRANCH  19  21
ENDBRANCH  18  19
ENDBRANCH  17  18
ENDBRANCH  14  15
ENDBRANCH   2  13
TORSDOF 12
ENDMDL
MODEL 3
REMARK VINA RESULT:      -6.7      0.894      1.052
REMARK  Name = 
REMARK  13 active torsions:
REMARK  status: ('A' for Active; 'I' for Inactive)
REMARK    1  A    between atoms: C_1  and  C_2
REMARK    2  A    between atoms: C_2  and  C_3
REMARK    3  A    between atoms: C_3  and  C_4
REMARK    4  A    between atoms: C_4  and  C_5
REMARK    5  A    between atoms: C_5  and  C_6
REMARK    6  A    between atoms: C_7  and  C_8
REMARK    7  A    between atoms: C_8  and  C_9
REMARK    8  A    between atoms: C_10  and  C_11
REMARK    9  A    between atoms: C_12  and  C_13
REMARK   10  A    between atoms: C_14  and  C_15
REMARK   11  A    between atoms: C_17  and  C_18
REMARK   12  A    between atoms: C_18  and  C_19
REMARK   13  A    between atoms: C_19  and  O_21
REMARK                            x       y       z     vdW  Elec       q    Type
REMARK                         _______ _______ _______ _____ _____    ______ ____
ROOT
ATOM      1  C   UNL     1       7.237   6.691  17.654  0.00  0.00    +0.000 C 
ATOM      2  C   UNL     1       8.072   7.518  18.305  0.00  0.00    +0.000 C 
ENDROOT
BRANCH   1   4
ATOM      3  C   UNL     1       5.944   4.610  17.541  0.00  0.00    +0.000 C 
ATOM      4  C   UNL     1       6.975   5.324  18.030  0.00  0.00    +0.000 C 
BRANCH   3   5
ATOM      5  C   UNL     1       4.880   5.160  16.635  0.00  0.00    +0.000 C 
BRANCH   5   7
ATOM      6  C   UNL     1       3.198   6.095  18.261  0.00  0.00    +0.000 C 
ATOM      7  C   UNL     1       4.076   6.266  17.257  0.00  0.00    +0.000 C 
BRANCH   6   8
ATOM      8  C   UNL     1       2.876   4.750  18.849  0.00  0.00    +0.000 C 
BRANCH   8   9
ATOM      9  C   UNL     1       1.742   4.024  18.135  0.00  0.00    +0.000 C 
BRANCH   9  10
ATOM     10  C   UNL     1       0.873   3.287  19.157  0.00  0.00    +0.000 C 
BRANCH  10  12
ATOM     11  C   UNL     1       1.610   2.601  21.457  0.00  0.00    +0.000 C 
ATOM     12  C   UNL     1       1.164   3.756  20.578  0.00  0.00    +0.000 C 
ENDBRANCH  10  12
ENDBRANCH   9  10
ENDBRANCH   8   9
ENDBRANCH   6   8
ENDBRANCH   5   7
ENDBRANCH   3   5
ENDBRANCH   1   4
BRANCH   2  13
ATOM     13  C   UNL     1       8.249   8.882  17.861  0.00  0.00    +0.000 C 
ATOM     14  C   UNL     1       8.924   9.816  18.546  0.00  0.00    +0.000 C 
BRANCH  14  15
ATOM     15  C   UNL     1       9.113  11.200  18.101  0.00  0.00    +0.000 C 
ATOM     16  C   UNL     1       9.364  12.271  19.128  0.00  0.00    +0.000 C 
ATOM     17  C   UNL     1      10.493  11.807  18.246  0.00  0.00    +0.000 C 
BRANCH  17  18
ATOM     18  C   UNL     1      11.046  12.730  17.200  0.00  0.00    +0.000 C 
BRANCH  18  19
ATOM     19  C   UNL     1      11.152  14.165  17.665  0.00  0.00    +0.000 C 
ATOM     20  O   UNL     1      11.928  14.550  18.525  0.00  0.00    +0.000 OA
BRANCH  19  21
ATOM     21  O   UNL     1      10.273  14.996  17.057  0.00  0.00    +0.000 OA
ATOM     22  H   UNL     1       9.374  14.930  17.431  0.00  0.00    +0.000 HD
ENDBRANCH  19  21
ENDBRANCH  18  19
ENDBRANCH  17  18
ENDBRANCH  14  15
ENDBRANCH   2  13
TORSDOF 12
ENDMDL
MODEL 4
REMARK VINA RESULT:      -6.4      1.903      2.760
REMARK  Name = 
REMARK  13 active torsions:
REMARK  status: ('A' for Active; 'I' for Inactive)
REMARK    1  A    between atoms: C_1  and  C_2
REMARK    2  A    between atoms: C_2  and  C_3
REMARK    3  A    between atoms: C_3  and  C_4
REMARK    4  A    between atoms: C_4  and  C_5
REMARK    5  A    between atoms: C_5  and  C_6
REMARK    6  A    between atoms: C_7  and  C_8
REMARK    7  A    between atoms: C_8  and  C_9
REMARK    8  A    between atoms: C_10  and  C_11
REMARK    9  A    between atoms: C_12  and  C_13
REMARK   10  A    between atoms: C_14  and  C_15
REMARK   11  A    between atoms: C_17  and  C_18
REMARK   12  A    between atoms: C_18  and  C_19
REMARK   13  A    between atoms: C_19  and  O_21
REMARK                            x       y       z     vdW  Elec       q    Type
REMARK                         _______ _______ _______ _____ _____    ______ ____
ROOT
ATOM      1  C   UNL     1       7.752   7.293  18.044  0.00  0.00    +0.000 C 
ATOM      2  C   UNL     1       8.309   8.344  18.669  0.00  0.00    +0.000 C 
ENDROOT
BRANCH   1   4
ATOM      3  C   UNL     1       7.377   4.869  17.980  0.00  0.00    +0.000 C 
ATOM      4  C   UNL     1       7.466   6.024  18.667  0.00  0.00    +0.000 C 
BRANCH   3   5
ATOM      5  C   UNL     1       7.453   4.760  16.484  0.00  0.00    +0.000 C 
BRANCH   5   7
ATOM      6  C   UNL     1       5.089   5.362  15.857  0.00  0.00    +0.000 C 
ATOM      7  C   UNL     1       6.413   5.575  15.769  0.00  0.00    +0.000 C 
BRANCH   6   8
ATOM      8  C   UNL     1       4.490   4.235  16.650  0.00  0.00    +0.000 C 
BRANCH   8   9
ATOM      9  C   UNL     1       3.548   4.696  17.757  0.00  0.00    +0.000 C 
BRANCH   9  10
ATOM     10  C   UNL     1       3.785   6.178  18.056  0.00  0.00    +0.000 C 
BRANCH  10  12
ATOM     11  C   UNL     1       2.585   8.372  17.834  0.00  0.00    +0.000 C 
ATOM     12  C   UNL     1       2.471   6.921  18.266  0.00  0.00    +0.000 C 
ENDBRANCH  10  12
ENDBRANCH   9  10
ENDBRANCH   8   9
ENDBRANCH   6   8
ENDBRANCH   5   7
ENDBRANCH   3   5
ENDBRANCH   1   4
BRANCH   2  13
ATOM     13  C   UNL     1       8.532   9.583  17.961  0.00  0.00    +0.000 C 
ATOM     14  C   UNL     1       9.229  10.617  18.455  0.00  0.00    +0.000 C 
BRANCH  14  15
ATOM     15  C   UNL     1       9.466  11.877  17.742  0.00  0.00    +0.000 C 
ATOM     16  C   UNL     1       9.496  13.164  18.521  0.00  0.00    +0.000 C 
ATOM     17  C   UNL     1      10.781  12.589  17.985  0.00  0.00    +0.000 C 
BRANCH  17  18
ATOM     18  C   UNL     1      11.499  13.289  16.868  0.00  0.00    +0.000 C 
BRANCH  18  19
ATOM     19  C   UNL     1      11.508  14.794  17.015  0.00  0.00    +0.000 C 
ATOM     20  O   UNL     1      12.108  15.392  17.894  0.00  0.00    +0.000 OA
BRANCH  19  21
ATOM     21  O   UNL     1      10.754  15.431  16.089  0.00  0.00    +0.000 OA
ATOM     22  H   UNL     1      11.283  15.761  15.338  0.00  0.00    +0.000 HD
ENDBRANCH  19  21
ENDBRANCH  18  19
ENDBRANCH  17  18
ENDBRANCH  14  15
ENDBRANCH   2  13
TORSDOF 12
ENDMDL
MODEL 5
REMARK VINA RESULT:      -6.4      1.224      1.635
REMARK  Name = 
REMARK  13 active torsions:
REMARK  status: ('A' for Active; 'I' for Inactive)
REMARK    1  A    between atoms: C_1  and  C_2
REMARK    2  A    between atoms: C_2  and  C_3
REMARK    3  A    between atoms: C_3  and  C_4
REMARK    4  A    between atoms: C_4  and  C_5
REMARK    5  A    between atoms: C_5  and  C_6
REMARK    6  A    between atoms: C_7  and  C_8
REMARK    7  A    between atoms: C_8  and  C_9
REMARK    8  A    between atoms: C_10  and  C_11
REMARK    9  A    between atoms: C_12  and  C_13
REMARK   10  A    between atoms: C_14  and  C_15
REMARK   11  A    between atoms: C_17  and  C_18
REMARK   12  A    between atoms: C_18  and  C_19
REMARK   13  A    between atoms: C_19  and  O_21
REMARK                            x       y       z     vdW  Elec       q    Type
REMARK                         _______ _______ _______ _____ _____    ______ ____
ROOT
ATOM      1  C   UNL     1       7.273   7.631  17.410  0.00  0.00    +0.000 C 
ATOM      2  C   UNL     1       8.276   8.291  18.013  0.00  0.00    +0.000 C 
ENDROOT
BRANCH   1   4
ATOM      3  C   UNL     1       6.288   5.389  17.550  0.00  0.00    +0.000 C 
ATOM      4  C   UNL     1       7.267   6.215  17.137  0.00  0.00    +0.000 C 
BRANCH   3   5
ATOM      5  C   UNL     1       5.142   5.799  18.431  0.00  0.00    +0.000 C 
BRANCH   5   7
ATOM      6  C   UNL     1       2.685   6.281  18.155  0.00  0.00    +0.000 C 
ATOM      7  C   UNL     1       3.938   6.273  17.668  0.00  0.00    +0.000 C 
BRANCH   6   8
ATOM      8  C   UNL     1       2.332   5.758  19.519  0.00  0.00    +0.000 C 
BRANCH   8   9
ATOM      9  C   UNL     1       1.904   4.295  19.523  0.00  0.00    +0.000 C 
BRANCH   9  10
ATOM     10  C   UNL     1       1.495   3.869  18.112  0.00  0.00    +0.000 C 
BRANCH  10  12
ATOM     11  C   UNL     1       3.274   2.189  18.674  0.00  0.00    +0.000 C 
ATOM     12  C   UNL     1       2.409   2.775  17.572  0.00  0.00    +0.000 C 
ENDBRANCH  10  12
ENDBRANCH   9  10
ENDBRANCH   8   9
ENDBRANCH   6   8
ENDBRANCH   5   7
ENDBRANCH   3   5
ENDBRANCH   1   4
BRANCH   2  13
ATOM     13  C   UNL     1       8.174   9.710  18.264  0.00  0.00    +0.000 C 
ATOM     14  C   UNL     1       9.179  10.580  18.086  0.00  0.00    +0.000 C 
BRANCH  14  15
ATOM     15  C   UNL     1       9.084  12.023  18.332  0.00  0.00    +0.000 C 
ATOM     16  C   UNL     1       9.351  12.548  19.716  0.00  0.00    +0.000 C 
ATOM     17  C   UNL     1      10.365  12.775  18.626  0.00  0.00    +0.000 C 
BRANCH  17  18
ATOM     18  C   UNL     1      10.587  14.162  18.095  0.00  0.00    +0.000 C 
BRANCH  18  19
ATOM     19  C   UNL     1      11.435  14.193  16.843  0.00  0.00    +0.000 C 
ATOM     20  O   UNL     1      12.270  13.348  16.560  0.00  0.00    +0.000 OA
BRANCH  19  21
ATOM     21  O   UNL     1      11.206  15.276  16.063  0.00  0.00    +0.000 OA
ATOM     22  H   UNL     1      11.353  16.116  16.537  0.00  0.00    +0.000 HD
ENDBRANCH  19  21
ENDBRANCH  18  19
ENDBRANCH  17  18
ENDBRANCH  14  15
ENDBRANCH   2  13
TORSDOF 12
ENDMDL
MODEL 6
REMARK VINA RESULT:      -6.4      5.797      7.330
REMARK  Name = 
REMARK  13 active torsions:
REMARK  status: ('A' for Active; 'I' for Inactive)
REMARK    1  A    between atoms: C_1  and  C_2
REMARK    2  A    between atoms: C_2  and  C_3
REMARK    3  A    between atoms: C_3  and  C_4
REMARK    4  A    between atoms: C_4  and  C_5
REMARK    5  A    between atoms: C_5  and  C_6
REMARK    6  A    between atoms: C_7  and  C_8
REMARK    7  A    between atoms: C_8  and  C_9
REMARK    8  A    between atoms: C_10  and  C_11
REMARK    9  A    between atoms: C_12  and  C_13
REMARK   10  A    between atoms: C_14  and  C_15
REMARK   11  A    between atoms: C_17  and  C_18
REMARK   12  A    between atoms: C_18  and  C_19
REMARK   13  A    between atoms: C_19  and  O_21
REMARK                            x       y       z     vdW  Elec       q    Type
REMARK                         _______ _______ _______ _____ _____    ______ ____
ROOT
ATOM      1  C   UNL     1       2.951   6.831  18.117  0.00  0.00    +0.000 C 
ATOM      2  C   UNL     1       4.026   7.403  17.551  0.00  0.00    +0.000 C 
ENDROOT
BRANCH   1   4
ATOM      3  C   UNL     1       2.079   6.432  20.375  0.00  0.00    +0.000 C 
ATOM      4  C   UNL     1       2.342   7.264  19.350  0.00  0.00    +0.000 C 
BRANCH   3   5
ATOM      5  C   UNL     1       2.278   4.944  20.336  0.00  0.00    +0.000 C 
BRANCH   5   7
ATOM      6  C   UNL     1       1.190   2.838  21.189  0.00  0.00    +0.000 C 
ATOM      7  C   UNL     1       1.213   4.177  21.066  0.00  0.00    +0.000 C 
BRANCH   6   8
ATOM      8  C   UNL     1       2.215   1.939  20.555  0.00  0.00    +0.000 C 
BRANCH   8   9
ATOM      9  C   UNL     1       2.084   1.833  19.040  0.00  0.00    +0.000 C 
BRANCH   9  10
ATOM     10  C   UNL     1       3.464   1.621  18.413  0.00  0.00    +0.000 C 
BRANCH  10  12
ATOM     11  C   UNL     1       2.710   3.461  16.880  0.00  0.00    +0.000 C 
ATOM     12  C   UNL     1       3.894   2.830  17.591  0.00  0.00    +0.000 C 
ENDBRANCH  10  12
ENDBRANCH   9  10
ENDBRANCH   8   9
ENDBRANCH   6   8
ENDBRANCH   5   7
ENDBRANCH   3   5
ENDBRANCH   1   4
BRANCH   2  13
ATOM     13  C   UNL     1       4.547   6.908  16.298  0.00  0.00    +0.000 C 
ATOM     14  C   UNL     1       5.475   5.946  16.195  0.00  0.00    +0.000 C 
BRANCH  14  15
ATOM     15  C   UNL     1       6.005   5.433  14.927  0.00  0.00    +0.000 C 
ATOM     16  C   UNL     1       6.862   4.196  14.939  0.00  0.00    +0.000 C 
ATOM     17  C   UNL     1       5.454   4.121  14.410  0.00  0.00    +0.000 C 
BRANCH  17  18
ATOM     18  C   UNL     1       5.222   3.903  12.943  0.00  0.00    +0.000 C 
BRANCH  18  19
ATOM     19  C   UNL     1       6.469   3.483  12.198  0.00  0.00    +0.000 C 
ATOM     20  O   UNL     1       7.325   4.258  11.803  0.00  0.00    +0.000 OA
BRANCH  19  21
ATOM     21  O   UNL     1       6.540   2.149  11.975  0.00  0.00    +0.000 OA
ATOM     22  H   UNL     1       6.206   1.625  12.728  0.00  0.00    +0.000 HD
ENDBRANCH  19  21
ENDBRANCH  18  19
ENDBRANCH  17  18
ENDBRANCH  14  15
ENDBRANCH   2  13
TORSDOF 12
ENDMDL
MODEL 7
REMARK VINA RESULT:      -6.3      5.660      6.756
REMARK  Name = 
REMARK  13 active torsions:
REMARK  status: ('A' for Active; 'I' for Inactive)
REMARK    1  A    between atoms: C_1  and  C_2
REMARK    2  A    between atoms: C_2  and  C_3
REMARK    3  A    between atoms: C_3  and  C_4
REMARK    4  A    between atoms: C_4  and  C_5
REMARK    5  A    between atoms: C_5  and  C_6
REMARK    6  A    between atoms: C_7  and  C_8
REMARK    7  A    between atoms: C_8  and  C_9
REMARK    8  A    between atoms: C_10  and  C_11
REMARK    9  A    between atoms: C_12  and  C_13
REMARK   10  A    between atoms: C_14  and  C_15
REMARK   11  A    between atoms: C_17  and  C_18
REMARK   12  A    between atoms: C_18  and  C_19
REMARK   13  A    between atoms: C_19  and  O_21
REMARK                            x       y       z     vdW  Elec       q    Type
REMARK                         _______ _______ _______ _____ _____    ______ ____
ROOT
ATOM      1  C   UNL     1       4.322   6.176  19.040  0.00  0.00    +0.000 C 
ATOM      2  C   UNL     1       3.390   6.679  18.213  0.00  0.00    +0.000 C 
ENDROOT
BRANCH   1   4
ATOM      3  C   UNL     1       5.584   4.137  18.520  0.00  0.00    +0.000 C 
ATOM      4  C   UNL     1       5.510   5.478  18.613  0.00  0.00    +0.000 C 
BRANCH   3   5
ATOM      5  C   UNL     1       4.497   3.192  18.946  0.00  0.00    +0.000 C 
BRANCH   5   7
ATOM      6  C   UNL     1       2.558   2.761  17.397  0.00  0.00    +0.000 C 
ATOM      7  C   UNL     1       3.815   2.505  17.798  0.00  0.00    +0.000 C 
BRANCH   6   8
ATOM      8  C   UNL     1       1.658   3.742  18.096  0.00  0.00    +0.000 C 
BRANCH   8   9
ATOM      9  C   UNL     1       0.701   3.095  19.091  0.00  0.00    +0.000 C 
BRANCH   9  10
ATOM     10  C   UNL     1       0.640   3.931  20.371  0.00  0.00    +0.000 C 
BRANCH  10  12
ATOM     11  C   UNL     1       2.357   2.732  21.756  0.00  0.00    +0.000 C 
ATOM     12  C   UNL     1       2.005   4.024  21.042  0.00  0.00    +0.000 C 
ENDBRANCH  10  12
ENDBRANCH   9  10
ENDBRANCH   8   9
ENDBRANCH   6   8
ENDBRANCH   5   7
ENDBRANCH   3   5
ENDBRANCH   1   4
BRANCH   2  13
ATOM     13  C   UNL     1       2.245   7.385  18.741  0.00  0.00    +0.000 C 
ATOM     14  C   UNL     1       2.000   7.550  20.049  0.00  0.00    +0.000 C 
BRANCH  14  15
ATOM     15  C   UNL     1       0.844   8.270  20.594  0.00  0.00    +0.000 C 
ATOM     16  C   UNL     1       1.000   9.038  21.879  0.00  0.00    +0.000 C 
ATOM     17  C   UNL     1       0.881   9.784  20.576  0.00  0.00    +0.000 C 
BRANCH  17  18
ATOM     18  C   UNL     1      -0.355  10.584  20.287  0.00  0.00    +0.000 C 
BRANCH  18  19
ATOM     19  C   UNL     1      -0.337  11.241  18.925  0.00  0.00    +0.000 C 
ATOM     20  O   UNL     1      -1.005  12.219  18.627  0.00  0.00    +0.000 OA
BRANCH  19  21
ATOM     21  O   UNL     1       0.476  10.621  18.038  0.00  0.00    +0.000 OA
ATOM     22  H   UNL     1       0.016   9.924  17.532  0.00  0.00    +0.000 HD
ENDBRANCH  19  21
ENDBRANCH  18  19
ENDBRANCH  17  18
ENDBRANCH  14  15
ENDBRANCH   2  13
TORSDOF 12
ENDMDL
MODEL 8
REMARK VINA RESULT:      -6.3      4.535      6.584
REMARK  Name = 
REMARK  13 active torsions:
REMARK  status: ('A' for Active; 'I' for Inactive)
REMARK    1  A    between atoms: C_1  and  C_2
REMARK    2  A    between atoms: C_2  and  C_3
REMARK    3  A    between atoms: C_3  and  C_4
REMARK    4  A    between atoms: C_4  and  C_5
REMARK    5  A    between atoms: C_5  and  C_6
REMARK    6  A    between atoms: C_7  and  C_8
REMARK    7  A    between atoms: C_8  and  C_9
REMARK    8  A    between atoms: C_10  and  C_11
REMARK    9  A    between atoms: C_12  and  C_13
REMARK   10  A    between atoms: C_14  and  C_15
REMARK   11  A    between atoms: C_17  and  C_18
REMARK   12  A    between atoms: C_18  and  C_19
REMARK   13  A    between atoms: C_19  and  O_21
REMARK                            x       y       z     vdW  Elec       q    Type
REMARK                         _______ _______ _______ _____ _____    ______ ____
ROOT
ATOM      1  C   UNL     1       2.885   2.455  18.259  0.00  0.00    +0.000 C 
ATOM      2  C   UNL     1       3.348   2.872  17.069  0.00  0.00    +0.000 C 
ENDROOT
BRANCH   1   4
ATOM      3  C   UNL     1       0.559   2.211  18.999  0.00  0.00    +0.000 C 
ATOM      4  C   UNL     1       1.674   1.695  18.450  0.00  0.00    +0.000 C 
BRANCH   3   5
ATOM      5  C   UNL     1       0.455   3.592  19.579  0.00  0.00    +0.000 C 
BRANCH   5   7
ATOM      6  C   UNL     1       2.211   4.497  21.143  0.00  0.00    +0.000 C 
ATOM      7  C   UNL     1       1.127   3.735  20.915  0.00  0.00    +0.000 C 
BRANCH   6   8
ATOM      8  C   UNL     1       2.917   5.264  20.059  0.00  0.00    +0.000 C 
BRANCH   8   9
ATOM      9  C   UNL     1       2.268   6.605  19.735  0.00  0.00    +0.000 C 
BRANCH   9  10
ATOM     10  C   UNL     1       2.273   6.831  18.221  0.00  0.00    +0.000 C 
BRANCH  10  12
ATOM     11  C   UNL     1       1.513   9.208  18.503  0.00  0.00    +0.000 C 
ATOM     12  C   UNL     1       2.548   8.290  17.876  0.00  0.00    +0.000 C 
ENDBRANCH  10  12
ENDBRANCH   9  10
ENDBRANCH   8   9
ENDBRANCH   6   8
ENDBRANCH   5   7
ENDBRANCH   3   5
ENDBRANCH   1   4
BRANCH   2  13
ATOM     13  C   UNL     1       4.588   3.608  16.981  0.00  0.00    +0.000 C 
ATOM     14  C   UNL     1       4.664   4.936  16.808  0.00  0.00    +0.000 C 
BRANCH  14  15
ATOM     15  C   UNL     1       5.917   5.693  16.724  0.00  0.00    +0.000 C 
ATOM     16  C   UNL     1       5.861   7.194  16.632  0.00  0.00    +0.000 C 
ATOM     17  C   UNL     1       6.311   6.543  17.913  0.00  0.00    +0.000 C 
BRANCH  17  18
ATOM     18  C   UNL     1       7.745   6.659  18.341  0.00  0.00    +0.000 C 
BRANCH  18  19
ATOM     19  C   UNL     1       8.236   5.454  19.112  0.00  0.00    +0.000 C 
ATOM     20  O   UNL     1       8.591   4.407  18.594  0.00  0.00    +0.000 OA
BRANCH  19  21
ATOM     21  O   UNL     1       8.220   5.629  20.455  0.00  0.00    +0.000 OA
ATOM     22  H   UNL     1       8.705   4.927  20.930  0.00  0.00    +0.000 HD
ENDBRANCH  19  21
ENDBRANCH  18  19
ENDBRANCH  17  18
ENDBRANCH  14  15
ENDBRANCH   2  13
TORSDOF 12
ENDMDL
MODEL 9
REMARK VINA RESULT:      -6.2      5.829      7.244
REMARK  Name = 
REMARK  13 active torsions:
REMARK  status: ('A' for Active; 'I' for Inactive)
REMARK    1  A    between atoms: C_1  and  C_2
REMARK    2  A    between atoms: C_2  and  C_3
REMARK    3  A    between atoms: C_3  and  C_4
REMARK    4  A    between atoms: C_4  and  C_5
REMARK    5  A    between atoms: C_5  and  C_6
REMARK    6  A    between atoms: C_7  and  C_8
REMARK    7  A    between atoms: C_8  and  C_9
REMARK    8  A    between atoms: C_10  and  C_11
REMARK    9  A    between atoms: C_12  and  C_13
REMARK   10  A    between atoms: C_14  and  C_15
REMARK   11  A    between atoms: C_17  and  C_18
REMARK   12  A    between atoms: C_18  and  C_19
REMARK   13  A    between atoms: C_19  and  O_21
REMARK                            x       y       z     vdW  Elec       q    Type
REMARK                         _______ _______ _______ _____ _____    ______ ____
ROOT
ATOM      1  C   UNL     1       4.305   6.633  17.885  0.00  0.00    +0.000 C 
ATOM      2  C   UNL     1       3.481   7.449  17.208  0.00  0.00    +0.000 C 
ENDROOT
BRANCH   1   4
ATOM      3  C   UNL     1       5.767   5.027  16.744  0.00  0.00    +0.000 C 
ATOM      4  C   UNL     1       5.591   6.183  17.411  0.00  0.00    +0.000 C 
BRANCH   3   5
ATOM      5  C   UNL     1       4.690   4.010  16.502  0.00  0.00    +0.000 C 
BRANCH   5   7
ATOM      6  C   UNL     1       3.336   2.569  18.064  0.00  0.00    +0.000 C 
ATOM      7  C   UNL     1       4.521   3.034  17.631  0.00  0.00    +0.000 C 
BRANCH   6   8
ATOM      8  C   UNL     1       2.021   3.022  17.495  0.00  0.00    +0.000 C 
BRANCH   8   9
ATOM      9  C   UNL     1       1.519   4.337  18.081  0.00  0.00    +0.000 C 
BRANCH   9  10
ATOM     10  C   UNL     1       1.810   4.381  19.582  0.00  0.00    +0.000 C 
BRANCH  10  12
ATOM     11  C   UNL     1       1.508   2.753  21.470  0.00  0.00    +0.000 C 
ATOM     12  C   UNL     1       0.815   3.535  20.368  0.00  0.00    +0.000 C 
ENDBRANCH  10  12
ENDBRANCH   9  10
ENDBRANCH   8   9
ENDBRANCH   6   8
ENDBRANCH   5   7
ENDBRANCH   3   5
ENDBRANCH   1   4
BRANCH   2  13
ATOM     13  C   UNL     1       2.222   7.862  17.783  0.00  0.00    +0.000 C 
ATOM     14  C   UNL     1       2.088   8.869  18.658  0.00  0.00    +0.000 C 
BRANCH  14  15
ATOM     15  C   UNL     1       0.813   9.299  19.243  0.00  0.00    +0.000 C 
ATOM     16  C   UNL     1       0.691  10.698  19.784  0.00  0.00    +0.000 C 
ATOM     17  C   UNL     1       0.006  10.338  18.492  0.00  0.00    +0.000 C 
BRANCH  17  18
ATOM     18  C   UNL     1      -1.492  10.264  18.440  0.00  0.00    +0.000 C 
BRANCH  18  19
ATOM     19  C   UNL     1      -2.150  11.617  18.284  0.00  0.00    +0.000 C 
ATOM     20  O   UNL     1      -2.783  12.176  19.166  0.00  0.00    +0.000 OA
BRANCH  19  21
ATOM     21  O   UNL     1      -2.001  12.150  17.049  0.00  0.00    +0.000 OA
ATOM     22  H   UNL     1      -2.685  12.816  16.843  0.00  0.00    +0.000 HD
ENDBRANCH  19  21
ENDBRANCH  18  19
ENDBRANCH  17  18
ENDBRANCH  14  15
ENDBRANCH   2  13
TORSDOF 12
ENDMDL
