MODEL 1
REMARK VINA RESULT:      -9.4      0.000      0.000
REMARK  Name = 
REMARK  8 active torsions:
REMARK  status: ('A' for Active; 'I' for Inactive)
REMARK    1  A    between atoms: C_1  and  C_2
REMARK    2  A    between atoms: C_3  and  C_4
REMARK    3  A    between atoms: C_8  and  O_9
REMARK    4  A    between atoms: O_9  and  C_10
REMARK    5  A    between atoms: C_13  and  O_14
REMARK    6  A    between atoms: O_14  and  C_15
REMARK    7  A    between atoms: C_16  and  C_17
REMARK    8  A    between atoms: C_27  and  O_28
REMARK                            x       y       z     vdW  Elec       q    Type
REMARK                         _______ _______ _______ _____ _____    ______ ____
ROOT
ATOM      1  C   UNL     1       0.785  10.182  20.477  0.00  0.00    +0.000 A 
ATOM      2  C   UNL     1       0.352  10.632  19.223  0.00  0.00    +0.000 A 
ATOM      3  S   UNL     1       1.407  12.029  19.048  0.00  0.00    +0.000 S 
ATOM      4  C   UNL     1       0.885  12.479  20.659  0.00  0.00    +0.000 A 
ATOM      5  C   UNL     1       0.814  13.752  21.242  0.00  0.00    +0.000 A 
ATOM      6  C   UNL     1      -0.133  13.899  22.255  0.00  0.00    +0.000 A 
ATOM      7  C   UNL     1      -0.882  12.824  22.722  0.00  0.00    +0.000 A 
ATOM      8  C   UNL     1      -0.601  11.522  22.288  0.00  0.00    +0.000 A 
ATOM      9  C   UNL     1       0.352  11.325  21.261  0.00  0.00    +0.000 A 
ENDROOT
BRANCH   2  10
ATOM     10  C   UNL     1      -1.086  10.609  18.786  0.00  0.00    +0.000 A 
ATOM     11  C   UNL     1      -1.603   9.656  17.896  0.00  0.00    +0.000 A 
ATOM     12  C   UNL     1      -2.823   9.884  17.239  0.00  0.00    +0.000 A 
ATOM     13  C   UNL     1      -3.530  11.060  17.464  0.00  0.00    +0.000 A 
ATOM     14  F   UNL     1      -4.657  11.303  16.783  0.00  0.00    +0.000 F 
ATOM     15  C   UNL     1      -3.070  11.999  18.368  0.00  0.00    +0.000 A 
ATOM     16  C   UNL     1      -1.872  11.760  19.039  0.00  0.00    +0.000 A 
ENDBRANCH   2  10
BRANCH   6  17
ATOM     17  O   UNL     1      -0.418  15.132  22.769  0.00  0.00    +0.000 OA
ATOM     18  H   UNL     1      -1.234  15.462  22.358  0.00  0.00    +0.000 HD
ENDBRANCH   6  17
BRANCH   1  19
ATOM     19  O   UNL     1       0.673   8.855  20.762  0.00  0.00    +0.000 OA
BRANCH  19  23
ATOM     20  C   UNL     1       2.777   5.918  18.662  0.00  0.00    +0.000 A 
ATOM     21  C   UNL     1       2.241   5.637  19.917  0.00  0.00    +0.000 A 
ATOM     22  C   UNL     1       1.576   6.628  20.643  0.00  0.00    +0.000 A 
ATOM     23  C   UNL     1       1.450   7.915  20.128  0.00  0.00    +0.000 A 
ATOM     24  C   UNL     1       1.983   8.206  18.870  0.00  0.00    +0.000 A 
ATOM     25  C   UNL     1       2.652   7.209  18.138  0.00  0.00    +0.000 A 
BRANCH  20  26
ATOM     26  O   UNL     1       3.408   4.970  17.879  0.00  0.00    +0.000 OA
BRANCH  26  31
ATOM     27  C   UNL     1       7.312   6.401  17.270  0.00  0.00    +0.000 C 
ATOM     28  O   UNL     1       7.563   6.379  16.068  0.00  0.00    +0.000 OA
ATOM     29  N   UNL     1       6.507   5.482  17.877  0.00  0.00    +0.000 N 
ATOM     30  C   UNL     1       5.791   4.385  17.231  0.00  0.00    +0.000 C 
ATOM     31  C   UNL     1       4.719   4.513  18.318  0.00  0.00    +0.000 C 
ATOM     32  C   UNL     1       5.629   5.542  19.026  0.00  0.00    +0.000 C 
BRANCH  27  35
ATOM     33  C   UNL     1       8.803   9.706  18.575  0.00  0.00    +0.000 C 
ATOM     34  C   UNL     1       8.027   8.670  17.830  0.00  0.00    +0.000 C 
ATOM     35  C   UNL     1       7.964   7.376  18.186  0.00  0.00    +0.000 C 
ENDBRANCH  27  35
ENDBRANCH  26  31
ENDBRANCH  20  26
ENDBRANCH  19  23
ENDBRANCH   1  19
TORSDOF 7
ENDMDL
MODEL 2
REMARK VINA RESULT:      -9.3      1.712      2.544
REMARK  Name = 
REMARK  8 active torsions:
REMARK  status: ('A' for Active; 'I' for Inactive)
REMARK    1  A    between atoms: C_1  and  C_2
REMARK    2  A    between atoms: C_3  and  C_4
REMARK    3  A    between atoms: C_8  and  O_9
REMARK    4  A    between atoms: O_9  and  C_10
REMARK    5  A    between atoms: C_13  and  O_14
REMARK    6  A    between atoms: O_14  and  C_15
REMARK    7  A    between atoms: C_16  and  C_17
REMARK    8  A    between atoms: C_27  and  O_28
REMARK                            x       y       z     vdW  Elec       q    Type
REMARK                         _______ _______ _______ _____ _____    ______ ____
ROOT
ATOM      1  C   UNL     1       0.181  10.507  20.935  0.00  0.00    +0.000 A 
ATOM      2  C   UNL     1      -0.231  11.102  19.735  0.00  0.00    +0.000 A 
ATOM      3  S   UNL     1       0.605  12.643  19.887  0.00  0.00    +0.000 S 
ATOM      4  C   UNL     1      -0.088  12.727  21.494  0.00  0.00    +0.000 A 
ATOM      5  C   UNL     1      -0.394  13.857  22.266  0.00  0.00    +0.000 A 
ATOM      6  C   UNL     1      -1.418  13.690  23.197  0.00  0.00    +0.000 A 
ATOM      7  C   UNL     1      -2.022  12.456  23.413  0.00  0.00    +0.000 A 
ATOM      8  C   UNL     1      -1.514  11.302  22.802  0.00  0.00    +0.000 A 
ATOM      9  C   UNL     1      -0.475  11.423  21.849  0.00  0.00    +0.000 A 
ENDROOT
BRANCH   2  10
ATOM     10  C   UNL     1      -1.615  10.953  19.169  0.00  0.00    +0.000 A 
ATOM     11  C   UNL     1      -1.962   9.959  18.242  0.00  0.00    +0.000 A 
ATOM     12  C   UNL     1      -3.132  10.080  17.475  0.00  0.00    +0.000 A 
ATOM     13  C   UNL     1      -3.958  11.188  17.626  0.00  0.00    +0.000 A 
ATOM     14  F   UNL     1      -5.035  11.331  16.844  0.00  0.00    +0.000 F 
ATOM     15  C   UNL     1      -3.666  12.163  18.562  0.00  0.00    +0.000 A 
ATOM     16  C   UNL     1      -2.519  12.029  19.341  0.00  0.00    +0.000 A 
ENDBRANCH   2  10
BRANCH   6  17
ATOM     17  O   UNL     1      -1.925  14.763  23.875  0.00  0.00    +0.000 OA
ATOM     18  H   UNL     1      -2.790  14.992  23.498  0.00  0.00    +0.000 HD
ENDBRANCH   6  17
BRANCH   1  19
ATOM     19  O   UNL     1       0.257   9.148  20.989  0.00  0.00    +0.000 OA
BRANCH  19  23
ATOM     20  C   UNL     1       2.901   6.897  18.665  0.00  0.00    +0.000 A 
ATOM     21  C   UNL     1       2.512   6.444  19.924  0.00  0.00    +0.000 A 
ATOM     22  C   UNL     1       1.663   7.214  20.723  0.00  0.00    +0.000 A 
ATOM     23  C   UNL     1       1.206   8.451  20.280  0.00  0.00    +0.000 A 
ATOM     24  C   UNL     1       1.590   8.913  19.018  0.00  0.00    +0.000 A 
ATOM     25  C   UNL     1       2.444   8.139  18.212  0.00  0.00    +0.000 A 
BRANCH  20  26
ATOM     26  O   UNL     1       3.704   6.163  17.812  0.00  0.00    +0.000 OA
BRANCH  26  31
ATOM     27  C   UNL     1       7.055   4.883  15.623  0.00  0.00    +0.000 C 
ATOM     28  O   UNL     1       7.760   4.183  16.344  0.00  0.00    +0.000 OA
ATOM     29  N   UNL     1       6.323   5.934  16.094  0.00  0.00    +0.000 N 
ATOM     30  C   UNL     1       6.212   6.368  17.484  0.00  0.00    +0.000 C 
ATOM     31  C   UNL     1       4.800   6.868  17.161  0.00  0.00    +0.000 C 
ATOM     32  C   UNL     1       5.075   6.535  15.677  0.00  0.00    +0.000 C 
BRANCH  27  35
ATOM     33  C   UNL     1       6.256   3.375  12.167  0.00  0.00    +0.000 C 
ATOM     34  C   UNL     1       6.237   3.765  13.609  0.00  0.00    +0.000 C 
ATOM     35  C   UNL     1       7.031   4.707  14.145  0.00  0.00    +0.000 C 
ENDBRANCH  27  35
ENDBRANCH  26  31
ENDBRANCH  20  26
ENDBRANCH  19  23
ENDBRANCH   1  19
TORSDOF 7
ENDMDL
MODEL 3
REMARK VINA RESULT:      -9.1      1.810      2.787
REMARK  Name = 
REMARK  8 active torsions:
REMARK  status: ('A' for Active; 'I' for Inactive)
REMARK    1  A    between atoms: C_1  and  C_2
REMARK    2  A    between atoms: C_3  and  C_4
REMARK    3  A    between atoms: C_8  and  O_9
REMARK    4  A    between atoms: O_9  and  C_10
REMARK    5  A    between atoms: C_13  and  O_14
REMARK    6  A    between atoms: O_14  and  C_15
REMARK    7  A    between atoms: C_16  and  C_17
REMARK    8  A    between atoms: C_27  and  O_28
REMARK                            x       y       z     vdW  Elec       q    Type
REMARK                         _______ _______ _______ _____ _____    ______ ____
ROOT
ATOM      1  C   UNL     1      -0.075  10.887  20.209  0.00  0.00    +0.000 A 
ATOM      2  C   UNL     1      -0.565  11.704  19.182  0.00  0.00    +0.000 A 
ATOM      3  S   UNL     1       0.439  13.124  19.452  0.00  0.00    +0.000 S 
ATOM      4  C   UNL     1      -0.041  12.999  21.132  0.00  0.00    +0.000 A 
ATOM      5  C   UNL     1      -0.132  14.008  22.102  0.00  0.00    +0.000 A 
ATOM      6  C   UNL     1      -1.047  13.776  23.128  0.00  0.00    +0.000 A 
ATOM      7  C   UNL     1      -1.746  12.578  23.232  0.00  0.00    +0.000 A 
ATOM      8  C   UNL     1      -1.439  11.502  22.389  0.00  0.00    +0.000 A 
ATOM      9  C   UNL     1      -0.516  11.691  21.334  0.00  0.00    +0.000 A 
ENDROOT
BRANCH   2  10
ATOM     10  C   UNL     1      -2.015  11.766  18.794  0.00  0.00    +0.000 A 
ATOM     11  C   UNL     1      -2.966  12.521  19.496  0.00  0.00    +0.000 A 
ATOM     12  C   UNL     1      -4.338  12.265  19.335  0.00  0.00    +0.000 A 
ATOM     13  C   UNL     1      -4.766  11.257  18.477  0.00  0.00    +0.000 A 
ATOM     14  F   UNL     1      -6.070  10.972  18.380  0.00  0.00    +0.000 F 
ATOM     15  C   UNL     1      -3.855  10.525  17.738  0.00  0.00    +0.000 A 
ATOM     16  C   UNL     1      -2.496  10.798  17.879  0.00  0.00    +0.000 A 
ENDBRANCH   2  10
BRANCH   6  17
ATOM     17  O   UNL     1      -1.353  14.760  24.024  0.00  0.00    +0.000 OA
ATOM     18  H   UNL     1      -0.551  14.996  24.517  0.00  0.00    +0.000 HD
ENDBRANCH   6  17
BRANCH   1  19
ATOM     19  O   UNL     1      -0.134   9.536  20.045  0.00  0.00    +0.000 OA
BRANCH  19  23
ATOM     20  C   UNL     1       2.973   7.152  18.589  0.00  0.00    +0.000 A 
ATOM     21  C   UNL     1       2.453   6.928  19.862  0.00  0.00    +0.000 A 
ATOM     22  C   UNL     1       1.445   7.751  20.371  0.00  0.00    +0.000 A 
ATOM     23  C   UNL     1       0.955   8.814  19.619  0.00  0.00    +0.000 A 
ATOM     24  C   UNL     1       1.469   9.045  18.341  0.00  0.00    +0.000 A 
ATOM     25  C   UNL     1       2.484   8.218  17.827  0.00  0.00    +0.000 A 
BRANCH  20  26
ATOM     26  O   UNL     1       3.940   6.348  18.015  0.00  0.00    +0.000 OA
BRANCH  26  31
ATOM     27  C   UNL     1       7.070   4.936  15.591  0.00  0.00    +0.000 C 
ATOM     28  O   UNL     1       7.832   4.261  16.276  0.00  0.00    +0.000 OA
ATOM     29  N   UNL     1       6.391   6.015  16.080  0.00  0.00    +0.000 N 
ATOM     30  C   UNL     1       6.410   6.510  17.453  0.00  0.00    +0.000 C 
ATOM     31  C   UNL     1       4.978   7.011  17.237  0.00  0.00    +0.000 C 
ATOM     32  C   UNL     1       5.115   6.612  15.751  0.00  0.00    +0.000 C 
BRANCH  27  35
ATOM     33  C   UNL     1       5.912   3.315  12.292  0.00  0.00    +0.000 C 
ATOM     34  C   UNL     1       6.035   3.768  13.710  0.00  0.00    +0.000 C 
ATOM     35  C   UNL     1       6.911   4.696  14.131  0.00  0.00    +0.000 C 
ENDBRANCH  27  35
ENDBRANCH  26  31
ENDBRANCH  20  26
ENDBRANCH  19  23
ENDBRANCH   1  19
TORSDOF 7
ENDMDL
MODEL 4
REMARK VINA RESULT:      -9.1      4.286     10.095
REMARK  Name = 
REMARK  8 active torsions:
REMARK  status: ('A' for Active; 'I' for Inactive)
REMARK    1  A    between atoms: C_1  and  C_2
REMARK    2  A    between atoms: C_3  and  C_4
REMARK    3  A    between atoms: C_8  and  O_9
REMARK    4  A    between atoms: O_9  and  C_10
REMARK    5  A    between atoms: C_13  and  O_14
REMARK    6  A    between atoms: O_14  and  C_15
REMARK    7  A    between atoms: C_16  and  C_17
REMARK    8  A    between atoms: C_27  and  O_28
REMARK                            x       y       z     vdW  Elec       q    Type
REMARK                         _______ _______ _______ _____ _____    ______ ____
ROOT
ATOM      1  C   UNL     1       2.136   6.109  18.673  0.00  0.00    +0.000 A 
ATOM      2  C   UNL     1       2.717   5.237  17.742  0.00  0.00    +0.000 A 
ATOM      3  S   UNL     1       1.385   4.103  17.552  0.00  0.00    +0.000 S 
ATOM      4  C   UNL     1       1.347   4.035  19.302  0.00  0.00    +0.000 A 
ATOM      5  C   UNL     1       0.909   2.998  20.138  0.00  0.00    +0.000 A 
ATOM      6  C   UNL     1       1.498   2.952  21.401  0.00  0.00    +0.000 A 
ATOM      7  C   UNL     1       2.383   3.932  21.835  0.00  0.00    +0.000 A 
ATOM      8  C   UNL     1       2.598   5.084  21.067  0.00  0.00    +0.000 A 
ATOM      9  C   UNL     1       2.022   5.174  19.778  0.00  0.00    +0.000 A 
ENDROOT
BRANCH   2  10
ATOM     10  C   UNL     1       4.164   4.831  17.778  0.00  0.00    +0.000 A 
ATOM     11  C   UNL     1       5.105   5.420  18.634  0.00  0.00    +0.000 A 
ATOM     12  C   UNL     1       6.480   5.281  18.383  0.00  0.00    +0.000 A 
ATOM     13  C   UNL     1       6.920   4.557  17.280  0.00  0.00    +0.000 A 
ATOM     14  F   UNL     1       8.229   4.486  17.007  0.00  0.00    +0.000 F 
ATOM     15  C   UNL     1       6.019   3.928  16.442  0.00  0.00    +0.000 A 
ATOM     16  C   UNL     1       4.656   4.045  16.708  0.00  0.00    +0.000 A 
ENDBRANCH   2  10
BRANCH   6  17
ATOM     17  O   UNL     1       1.287   1.887  22.229  0.00  0.00    +0.000 OA
ATOM     18  H   UNL     1       0.481   2.047  22.748  0.00  0.00    +0.000 HD
ENDBRANCH   6  17
BRANCH   1  19
ATOM     19  O   UNL     1       2.547   7.407  18.687  0.00  0.00    +0.000 OA
BRANCH  19  23
ATOM     20  C   UNL     1       0.354  10.645  20.160  0.00  0.00    +0.000 A 
ATOM     21  C   UNL     1       0.765   9.626  21.018  0.00  0.00    +0.000 A 
ATOM     22  C   UNL     1       1.460   8.520  20.522  0.00  0.00    +0.000 A 
ATOM     23  C   UNL     1       1.739   8.412  19.163  0.00  0.00    +0.000 A 
ATOM     24  C   UNL     1       1.332   9.429  18.296  0.00  0.00    +0.000 A 
ATOM     25  C   UNL     1       0.633  10.544  18.793  0.00  0.00    +0.000 A 
BRANCH  20  26
ATOM     26  O   UNL     1      -0.298  11.783  20.596  0.00  0.00    +0.000 OA
BRANCH  26  31
ATOM     27  C   UNL     1      -3.107  13.632  23.117  0.00  0.00    +0.000 C 
ATOM     28  O   UNL     1      -3.215  14.812  22.797  0.00  0.00    +0.000 OA
ATOM     29  N   UNL     1      -1.936  12.939  23.013  0.00  0.00    +0.000 N 
ATOM     30  C   UNL     1      -0.669  13.438  22.484  0.00  0.00    +0.000 C 
ATOM     31  C   UNL     1      -0.354  12.007  22.034  0.00  0.00    +0.000 C 
ATOM     32  C   UNL     1      -1.629  11.546  22.775  0.00  0.00    +0.000 C 
BRANCH  27  35
ATOM     33  C   UNL     1      -6.696  12.667  24.136  0.00  0.00    +0.000 C 
ATOM     34  C   UNL     1      -5.493  13.214  23.440  0.00  0.00    +0.000 C 
ATOM     35  C   UNL     1      -4.228  12.889  23.754  0.00  0.00    +0.000 C 
ENDBRANCH  27  35
ENDBRANCH  26  31
ENDBRANCH  20  26
ENDBRANCH  19  23
ENDBRANCH   1  19
TORSDOF 7
ENDMDL
MODEL 5
REMARK VINA RESULT:      -9.1      2.173      2.943
REMARK  Name = 
REMARK  8 active torsions:
REMARK  status: ('A' for Active; 'I' for Inactive)
REMARK    1  A    between atoms: C_1  and  C_2
REMARK    2  A    between atoms: C_3  and  C_4
REMARK    3  A    between atoms: C_8  and  O_9
REMARK    4  A    between atoms: O_9  and  C_10
REMARK    5  A    between atoms: C_13  and  O_14
REMARK    6  A    between atoms: O_14  and  C_15
REMARK    7  A    between atoms: C_16  and  C_17
REMARK    8  A    between atoms: C_27  and  O_28
REMARK                            x       y       z     vdW  Elec       q    Type
REMARK                         _______ _______ _______ _____ _____    ______ ____
ROOT
ATOM      1  C   UNL     1       0.516  11.178  19.812  0.00  0.00    +0.000 A 
ATOM      2  C   UNL     1      -0.777  11.715  19.869  0.00  0.00    +0.000 A 
ATOM      3  S   UNL     1      -0.784  12.589  18.342  0.00  0.00    +0.000 S 
ATOM      4  C   UNL     1       0.750  13.263  18.854  0.00  0.00    +0.000 A 
ATOM      5  C   UNL     1       1.341  14.484  18.501  0.00  0.00    +0.000 A 
ATOM      6  C   UNL     1       2.220  15.021  19.440  0.00  0.00    +0.000 A 
ATOM      7  C   UNL     1       2.564  14.337  20.601  0.00  0.00    +0.000 A 
ATOM      8  C   UNL     1       2.149  13.013  20.793  0.00  0.00    +0.000 A 
ATOM      9  C   UNL     1       1.255  12.426  19.866  0.00  0.00    +0.000 A 
ENDROOT
BRANCH   2  10
ATOM     10  C   UNL     1      -1.402  12.234  21.134  0.00  0.00    +0.000 A 
ATOM     11  C   UNL     1      -1.498  11.476  22.310  0.00  0.00    +0.000 A 
ATOM     12  C   UNL     1      -2.396  11.846  23.324  0.00  0.00    +0.000 A 
ATOM     13  C   UNL     1      -3.201  12.969  23.170  0.00  0.00    +0.000 A 
ATOM     14  F   UNL     1      -4.104  13.278  24.109  0.00  0.00    +0.000 F 
ATOM     15  C   UNL     1      -3.100  13.761  22.042  0.00  0.00    +0.000 A 
ATOM     16  C   UNL     1      -2.189  13.408  21.048  0.00  0.00    +0.000 A 
ENDBRANCH   2  10
BRANCH   6  17
ATOM     17  O   UNL     1       2.713  16.287  19.289  0.00  0.00    +0.000 OA
ATOM     18  H   UNL     1       2.922  16.649  20.166  0.00  0.00    +0.000 HD
ENDBRANCH   6  17
BRANCH   1  19
ATOM     19  O   UNL     1       0.760  10.008  20.465  0.00  0.00    +0.000 OA
BRANCH  19  23
ATOM     20  C   UNL     1       2.499   6.747  18.515  0.00  0.00    +0.000 A 
ATOM     21  C   UNL     1       2.225   6.685  19.880  0.00  0.00    +0.000 A 
ATOM     22  C   UNL     1       1.685   7.789  20.546  0.00  0.00    +0.000 A 
ATOM     23  C   UNL     1       1.426   8.971  19.858  0.00  0.00    +0.000 A 
ATOM     24  C   UNL     1       1.697   9.041  18.489  0.00  0.00    +0.000 A 
ATOM     25  C   UNL     1       2.240   7.931  17.817  0.00  0.00    +0.000 A 
BRANCH  20  26
ATOM     26  O   UNL     1       2.994   5.676  17.794  0.00  0.00    +0.000 OA
BRANCH  26  31
ATOM     27  C   UNL     1       7.113   6.245  17.185  0.00  0.00    +0.000 C 
ATOM     28  O   UNL     1       7.371   6.057  16.000  0.00  0.00    +0.000 OA
ATOM     29  N   UNL     1       6.132   5.566  17.848  0.00  0.00    +0.000 N 
ATOM     30  C   UNL     1       5.221   4.574  17.283  0.00  0.00    +0.000 C 
ATOM     31  C   UNL     1       4.181   5.015  18.318  0.00  0.00    +0.000 C 
ATOM     32  C   UNL     1       5.267   5.909  18.956  0.00  0.00    +0.000 C 
BRANCH  27  35
ATOM     33  C   UNL     1       8.749   9.483  18.485  0.00  0.00    +0.000 C 
ATOM     34  C   UNL     1       7.854   8.483  17.829  0.00  0.00    +0.000 C 
ATOM     35  C   UNL     1       7.932   7.157  18.029  0.00  0.00    +0.000 C 
ENDBRANCH  27  35
ENDBRANCH  26  31
ENDBRANCH  20  26
ENDBRANCH  19  23
ENDBRANCH   1  19
TORSDOF 7
ENDMDL
MODEL 6
REMARK VINA RESULT:      -9.0      2.207      3.107
REMARK  Name = 
REMARK  8 active torsions:
REMARK  status: ('A' for Active; 'I' for Inactive)
REMARK    1  A    between atoms: C_1  and  C_2
REMARK    2  A    between atoms: C_3  and  C_4
REMARK    3  A    between atoms: C_8  and  O_9
REMARK    4  A    between atoms: O_9  and  C_10
REMARK    5  A    between atoms: C_13  and  O_14
REMARK    6  A    between atoms: O_14  and  C_15
REMARK    7  A    between atoms: C_16  and  C_17
REMARK    8  A    between atoms: C_27  and  O_28
REMARK                            x       y       z     vdW  Elec       q    Type
REMARK                         _______ _______ _______ _____ _____    ______ ____
ROOT
ATOM      1  C   UNL     1       0.690  11.335  19.556  0.00  0.00    +0.000 A 
ATOM      2  C   UNL     1      -0.682  11.525  19.766  0.00  0.00    +0.000 A 
ATOM      3  S   UNL     1      -1.089  12.323  18.251  0.00  0.00    +0.000 S 
ATOM      4  C   UNL     1       0.268  13.381  18.580  0.00  0.00    +0.000 A 
ATOM      5  C   UNL     1       0.480  14.703  18.162  0.00  0.00    +0.000 A 
ATOM      6  C   UNL     1       1.293  15.474  18.991  0.00  0.00    +0.000 A 
ATOM      7  C   UNL     1       1.931  14.935  20.103  0.00  0.00    +0.000 A 
ATOM      8  C   UNL     1       1.896  13.554  20.341  0.00  0.00    +0.000 A 
ATOM      9  C   UNL     1       1.083  12.732  19.524  0.00  0.00    +0.000 A 
ENDROOT
BRANCH   2  10
ATOM     10  C   UNL     1      -1.272  11.903  21.096  0.00  0.00    +0.000 A 
ATOM     11  C   UNL     1      -0.970  11.229  22.288  0.00  0.00    +0.000 A 
ATOM     12  C   UNL     1      -1.801  11.366  23.413  0.00  0.00    +0.000 A 
ATOM     13  C   UNL     1      -2.933  12.170  23.352  0.00  0.00    +0.000 A 
ATOM     14  F   UNL     1      -3.759  12.241  24.404  0.00  0.00    +0.000 F 
ATOM     15  C   UNL     1      -3.235  12.880  22.206  0.00  0.00    +0.000 A 
ATOM     16  C   UNL     1      -2.395  12.765  21.100  0.00  0.00    +0.000 A 
ENDBRANCH   2  10
BRANCH   6  17
ATOM     17  O   UNL     1       1.422  16.818  18.785  0.00  0.00    +0.000 OA
ATOM     18  H   UNL     1       0.564  17.245  18.946  0.00  0.00    +0.000 HD
ENDBRANCH   6  17
BRANCH   1  19
ATOM     19  O   UNL     1       1.300  10.286  20.174  0.00  0.00    +0.000 OA
BRANCH  19  23
ATOM     20  C   UNL     1       2.506   6.793  18.223  0.00  0.00    +0.000 A 
ATOM     21  C   UNL     1       2.422   7.996  17.524  0.00  0.00    +0.000 A 
ATOM     22  C   UNL     1       1.977   9.157  18.161  0.00  0.00    +0.000 A 
ATOM     23  C   UNL     1       1.597   9.127  19.499  0.00  0.00    +0.000 A 
ATOM     24  C   UNL     1       1.678   7.926  20.209  0.00  0.00    +0.000 A 
ATOM     25  C   UNL     1       2.127   6.756  19.569  0.00  0.00    +0.000 A 
BRANCH  20  26
ATOM     26  O   UNL     1       2.977   5.622  17.660  0.00  0.00    +0.000 OA
BRANCH  26  31
ATOM     27  C   UNL     1       7.114   6.191  17.186  0.00  0.00    +0.000 C 
ATOM     28  O   UNL     1       7.424   5.923  16.029  0.00  0.00    +0.000 OA
ATOM     29  N   UNL     1       6.111   5.550  17.853  0.00  0.00    +0.000 N 
ATOM     30  C   UNL     1       5.234   4.511  17.323  0.00  0.00    +0.000 C 
ATOM     31  C   UNL     1       4.147   5.013  18.279  0.00  0.00    +0.000 C 
ATOM     32  C   UNL     1       5.198   5.962  18.897  0.00  0.00    +0.000 C 
BRANCH  27  35
ATOM     33  C   UNL     1       8.634   9.539  18.340  0.00  0.00    +0.000 C 
ATOM     34  C   UNL     1       7.782   8.480  17.721  0.00  0.00    +0.000 C 
ATOM     35  C   UNL     1       7.890   7.170  17.996  0.00  0.00    +0.000 C 
ENDBRANCH  27  35
ENDBRANCH  26  31
ENDBRANCH  20  26
ENDBRANCH  19  23
ENDBRANCH   1  19
TORSDOF 7
ENDMDL
MODEL 7
REMARK VINA RESULT:      -9.0      2.501      4.020
REMARK  Name = 
REMARK  8 active torsions:
REMARK  status: ('A' for Active; 'I' for Inactive)
REMARK    1  A    between atoms: C_1  and  C_2
REMARK    2  A    between atoms: C_3  and  C_4
REMARK    3  A    between atoms: C_8  and  O_9
REMARK    4  A    between atoms: O_9  and  C_10
REMARK    5  A    between atoms: C_13  and  O_14
REMARK    6  A    between atoms: O_14  and  C_15
REMARK    7  A    between atoms: C_16  and  C_17
REMARK    8  A    between atoms: C_27  and  O_28
REMARK                            x       y       z     vdW  Elec       q    Type
REMARK                         _______ _______ _______ _____ _____    ______ ____
ROOT
ATOM      1  C   UNL     1       0.272  10.673  20.111  0.00  0.00    +0.000 A 
ATOM      2  C   UNL     1       0.255  12.063  20.289  0.00  0.00    +0.000 A 
ATOM      3  S   UNL     1      -1.387  12.248  20.893  0.00  0.00    +0.000 S 
ATOM      4  C   UNL     1      -1.876  11.272  19.523  0.00  0.00    +0.000 A 
ATOM      5  C   UNL     1      -3.103  11.252  18.844  0.00  0.00    +0.000 A 
ATOM      6  C   UNL     1      -3.047  10.852  17.510  0.00  0.00    +0.000 A 
ATOM      7  C   UNL     1      -1.866  10.405  16.925  0.00  0.00    +0.000 A 
ATOM      8  C   UNL     1      -0.721  10.201  17.706  0.00  0.00    +0.000 A 
ATOM      9  C   UNL     1      -0.732  10.593  19.066  0.00  0.00    +0.000 A 
ENDROOT
BRANCH   2  10
ATOM     10  C   UNL     1       0.912  13.027  19.342  0.00  0.00    +0.000 A 
ATOM     11  C   UNL     1       2.194  12.827  18.809  0.00  0.00    +0.000 A 
ATOM     12  C   UNL     1       2.904  13.897  18.242  0.00  0.00    +0.000 A 
ATOM     13  C   UNL     1       2.343  15.168  18.205  0.00  0.00    +0.000 A 
ATOM     14  F   UNL     1       3.051  16.199  17.726  0.00  0.00    +0.000 F 
ATOM     15  C   UNL     1       1.064  15.390  18.682  0.00  0.00    +0.000 A 
ATOM     16  C   UNL     1       0.350  14.321  19.220  0.00  0.00    +0.000 A 
ENDBRANCH   2  10
BRANCH   6  17
ATOM     17  O   UNL     1      -4.142  10.967  16.701  0.00  0.00    +0.000 OA
ATOM     18  H   UNL     1      -4.587  11.809  16.893  0.00  0.00    +0.000 HD
ENDBRANCH   6  17
BRANCH   1  19
ATOM     19  O   UNL     1       1.465  10.023  20.207  0.00  0.00    +0.000 OA
BRANCH  19  23
ATOM     20  C   UNL     1       2.193   6.061  19.097  0.00  0.00    +0.000 A 
ATOM     21  C   UNL     1       2.397   7.095  18.186  0.00  0.00    +0.000 A 
ATOM     22  C   UNL     1       2.113   8.417  18.537  0.00  0.00    +0.000 A 
ATOM     23  C   UNL     1       1.608   8.719  19.799  0.00  0.00    +0.000 A 
ATOM     24  C   UNL     1       1.401   7.689  20.720  0.00  0.00    +0.000 A 
ATOM     25  C   UNL     1       1.687   6.357  20.368  0.00  0.00    +0.000 A 
BRANCH  20  26
ATOM     26  O   UNL     1       2.495   4.740  18.824  0.00  0.00    +0.000 OA
BRANCH  26  31
ATOM     27  C   UNL     1       6.472   4.788  17.467  0.00  0.00    +0.000 C 
ATOM     28  O   UNL     1       6.536   4.191  16.396  0.00  0.00    +0.000 OA
ATOM     29  N   UNL     1       5.600   4.443  18.458  0.00  0.00    +0.000 N 
ATOM     30  C   UNL     1       4.598   3.382  18.410  0.00  0.00    +0.000 C 
ATOM     31  C   UNL     1       3.741   4.218  19.367  0.00  0.00    +0.000 C 
ATOM     32  C   UNL     1       4.927   5.200  19.491  0.00  0.00    +0.000 C 
BRANCH  27  35
ATOM     33  C   UNL     1       8.033   8.305  17.684  0.00  0.00    +0.000 C 
ATOM     34  C   UNL     1       7.097   7.149  17.546  0.00  0.00    +0.000 C 
ATOM     35  C   UNL     1       7.427   5.875  17.814  0.00  0.00    +0.000 C 
ENDBRANCH  27  35
ENDBRANCH  26  31
ENDBRANCH  20  26
ENDBRANCH  19  23
ENDBRANCH   1  19
TORSDOF 7
ENDMDL
MODEL 8
REMARK VINA RESULT:      -9.0      4.229      9.284
REMARK  Name = 
REMARK  8 active torsions:
REMARK  status: ('A' for Active; 'I' for Inactive)
REMARK    1  A    between atoms: C_1  and  C_2
REMARK    2  A    between atoms: C_3  and  C_4
REMARK    3  A    between atoms: C_8  and  O_9
REMARK    4  A    between atoms: O_9  and  C_10
REMARK    5  A    between atoms: C_13  and  O_14
REMARK    6  A    between atoms: O_14  and  C_15
REMARK    7  A    between atoms: C_16  and  C_17
REMARK    8  A    between atoms: C_27  and  O_28
REMARK                            x       y       z     vdW  Elec       q    Type
REMARK                         _______ _______ _______ _____ _____    ______ ____
ROOT
ATOM      1  C   UNL     1       2.176   6.024  18.637  0.00  0.00    +0.000 A 
ATOM      2  C   UNL     1       2.758   5.127  17.731  0.00  0.00    +0.000 A 
ATOM      3  S   UNL     1       1.421   3.996  17.559  0.00  0.00    +0.000 S 
ATOM      4  C   UNL     1       1.370   3.971  19.310  0.00  0.00    +0.000 A 
ATOM      5  C   UNL     1       0.920   2.956  20.166  0.00  0.00    +0.000 A 
ATOM      6  C   UNL     1       1.499   2.937  21.435  0.00  0.00    +0.000 A 
ATOM      7  C   UNL     1       2.387   3.923  21.852  0.00  0.00    +0.000 A 
ATOM      8  C   UNL     1       2.614   5.055  21.058  0.00  0.00    +0.000 A 
ATOM      9  C   UNL     1       2.047   5.117  19.763  0.00  0.00    +0.000 A 
ENDROOT
BRANCH   2  10
ATOM     10  C   UNL     1       4.202   4.714  17.788  0.00  0.00    +0.000 A 
ATOM     11  C   UNL     1       5.088   5.157  18.780  0.00  0.00    +0.000 A 
ATOM     12  C   UNL     1       6.477   5.053  18.592  0.00  0.00    +0.000 A 
ATOM     13  C   UNL     1       6.985   4.511  17.417  0.00  0.00    +0.000 A 
ATOM     14  F   UNL     1       8.308   4.478  17.213  0.00  0.00    +0.000 F 
ATOM     15  C   UNL     1       6.138   4.026  16.438  0.00  0.00    +0.000 A 
ATOM     16  C   UNL     1       4.761   4.105  16.638  0.00  0.00    +0.000 A 
ENDBRANCH   2  10
BRANCH   6  17
ATOM     17  O   UNL     1       1.276   1.893  22.287  0.00  0.00    +0.000 OA
ATOM     18  H   UNL     1       1.970   1.226  22.155  0.00  0.00    +0.000 HD
ENDBRANCH   6  17
BRANCH   1  19
ATOM     19  O   UNL     1       2.593   7.320  18.622  0.00  0.00    +0.000 OA
BRANCH  19  23
ATOM     20  C   UNL     1       0.322  10.635  19.770  0.00  0.00    +0.000 A 
ATOM     21  C   UNL     1       0.724   9.696  20.718  0.00  0.00    +0.000 A 
ATOM     22  C   UNL     1       1.446   8.563  20.333  0.00  0.00    +0.000 A 
ATOM     23  C   UNL     1       1.761   8.348  18.994  0.00  0.00    +0.000 A 
ATOM     24  C   UNL     1       1.362   9.284  18.036  0.00  0.00    +0.000 A 
ATOM     25  C   UNL     1       0.636  10.426  18.423  0.00  0.00    +0.000 A 
BRANCH  20  26
ATOM     26  O   UNL     1      -0.357  11.795  20.093  0.00  0.00    +0.000 OA
BRANCH  26  31
ATOM     27  C   UNL     1       1.440  15.434  19.003  0.00  0.00    +0.000 C 
ATOM     28  O   UNL     1       2.321  15.213  18.178  0.00  0.00    +0.000 OA
ATOM     29  N   UNL     1       1.125  14.562  20.004  0.00  0.00    +0.000 N 
ATOM     30  C   UNL     1       1.718  13.249  20.239  0.00  0.00    +0.000 C 
ATOM     31  C   UNL     1       0.379  12.808  20.838  0.00  0.00    +0.000 C 
ATOM     32  C   UNL     1      -0.104  14.270  20.711  0.00  0.00    +0.000 C 
BRANCH  27  35
ATOM     33  C   UNL     1      -1.022  18.237  18.038  0.00  0.00    +0.000 C 
ATOM     34  C   UNL     1      -0.328  16.927  18.217  0.00  0.00    +0.000 C 
ATOM     35  C   UNL     1       0.714  16.733  19.042  0.00  0.00    +0.000 C 
ENDBRANCH  27  35
ENDBRANCH  26  31
ENDBRANCH  20  26
ENDBRANCH  19  23
ENDBRANCH   1  19
TORSDOF 7
ENDMDL
MODEL 9
REMARK VINA RESULT:      -8.8      2.020      3.257
REMARK  Name = 
REMARK  8 active torsions:
REMARK  status: ('A' for Active; 'I' for Inactive)
REMARK    1  A    between atoms: C_1  and  C_2
REMARK    2  A    between atoms: C_3  and  C_4
REMARK    3  A    between atoms: C_8  and  O_9
REMARK    4  A    between atoms: O_9  and  C_10
REMARK    5  A    between atoms: C_13  and  O_14
REMARK    6  A    between atoms: O_14  and  C_15
REMARK    7  A    between atoms: C_16  and  C_17
REMARK    8  A    between atoms: C_27  and  O_28
REMARK                            x       y       z     vdW  Elec       q    Type
REMARK                         _______ _______ _______ _____ _____    ______ ____
ROOT
ATOM      1  C   UNL     1       0.547  10.224  20.297  0.00  0.00    +0.000 A 
ATOM      2  C   UNL     1      -0.009  10.879  19.190  0.00  0.00    +0.000 A 
ATOM      3  S   UNL     1       0.763  12.449  19.376  0.00  0.00    +0.000 S 
ATOM      4  C   UNL     1       0.229  12.383  21.044  0.00  0.00    +0.000 A 
ATOM      5  C   UNL     1      -0.052  13.437  21.924  0.00  0.00    +0.000 A 
ATOM      6  C   UNL     1      -0.970  13.150  22.934  0.00  0.00    +0.000 A 
ATOM      7  C   UNL     1      -1.490  11.873  23.113  0.00  0.00    +0.000 A 
ATOM      8  C   UNL     1      -0.991  10.793  22.372  0.00  0.00    +0.000 A 
ATOM      9  C   UNL     1      -0.058  11.038  21.336  0.00  0.00    +0.000 A 
ENDROOT
BRANCH   2  10
ATOM     10  C   UNL     1      -1.434  10.693  18.749  0.00  0.00    +0.000 A 
ATOM     11  C   UNL     1      -1.823   9.750  17.787  0.00  0.00    +0.000 A 
ATOM     12  C   UNL     1      -3.069   9.859  17.147  0.00  0.00    +0.000 A 
ATOM     13  C   UNL     1      -3.927  10.906  17.460  0.00  0.00    +0.000 A 
ATOM     14  F   UNL     1      -5.083  11.045  16.797  0.00  0.00    +0.000 F 
ATOM     15  C   UNL     1      -3.592  11.828  18.434  0.00  0.00    +0.000 A 
ATOM     16  C   UNL     1      -2.367  11.703  19.088  0.00  0.00    +0.000 A 
ENDBRANCH   2  10
BRANCH   6  17
ATOM     17  O   UNL     1      -1.458  14.143  23.735  0.00  0.00    +0.000 OA
ATOM     18  H   UNL     1      -0.722  14.714  24.011  0.00  0.00    +0.000 HD
ENDBRANCH   6  17
BRANCH   1  19
ATOM     19  O   UNL     1       0.693   8.871  20.243  0.00  0.00    +0.000 OA
BRANCH  19  23
ATOM     20  C   UNL     1       3.554   6.914  17.909  0.00  0.00    +0.000 A 
ATOM     21  C   UNL     1       3.285   6.477  19.204  0.00  0.00    +0.000 A 
ATOM     22  C   UNL     1       2.362   7.155  20.004  0.00  0.00    +0.000 A 
ATOM     23  C   UNL     1       1.708   8.285  19.524  0.00  0.00    +0.000 A 
ATOM     24  C   UNL     1       1.970   8.731  18.226  0.00  0.00    +0.000 A 
ATOM     25  C   UNL     1       2.899   8.049  17.419  0.00  0.00    +0.000 A 
BRANCH  20  26
ATOM     26  O   UNL     1       4.424   6.262  17.055  0.00  0.00    +0.000 OA
BRANCH  26  31
ATOM     27  C   UNL     1       4.133   2.805  19.426  0.00  0.00    +0.000 C 
ATOM     28  O   UNL     1       5.214   2.601  19.970  0.00  0.00    +0.000 OA
ATOM     29  N   UNL     1       4.019   3.360  18.185  0.00  0.00    +0.000 N 
ATOM     30  C   UNL     1       5.109   3.835  17.337  0.00  0.00    +0.000 C 
ATOM     31  C   UNL     1       4.137   4.866  16.754  0.00  0.00    +0.000 C 
ATOM     32  C   UNL     1       3.008   4.185  17.559  0.00  0.00    +0.000 C 
BRANCH  27  35
ATOM     33  C   UNL     1       1.190   2.564  21.903  0.00  0.00    +0.000 C 
ATOM     34  C   UNL     1       2.363   3.019  21.097  0.00  0.00    +0.000 C 
ATOM     35  C   UNL     1       2.853   2.354  20.038  0.00  0.00    +0.000 C 
ENDBRANCH  27  35
ENDBRANCH  26  31
ENDBRANCH  20  26
ENDBRANCH  19  23
ENDBRANCH   1  19
TORSDOF 7
ENDMDL
