MODEL 1
REMARK VINA RESULT:      -7.2      0.000      0.000
REMARK  Name = 
REMARK  9 active torsions:
REMARK  status: ('A' for Active; 'I' for Inactive)
REMARK    1  A    between atoms: C_1  and  C_2
REMARK    2  A    between atoms: C_2  and  C_3
REMARK    3  A    between atoms: C_6  and  C_7
REMARK    4  A    between atoms: C_7  and  N_8
REMARK    5  A    between atoms: C_9  and  C_11
REMARK    6  A    between atoms: N_14  and  C_15
REMARK    7  A    between atoms: C_15  and  C_16
REMARK    8  A    between atoms: C_15  and  C_17
REMARK    9  A    between atoms: C_15  and  C_18
REMARK                            x       y       z     vdW  Elec       q    Type
REMARK                         _______ _______ _______ _____ _____    ______ ____
ROOT
ATOM      1  N   UNL     1       6.057   5.260  16.495  0.00  0.00    +0.000 N 
ATOM      2  C   UNL     1       6.134   4.803  17.795  0.00  0.00    +0.000 C 
ATOM      3  O   UNL     1       7.190   4.428  18.303  0.00  0.00    +0.000 OA
ATOM      4  H   UNL     1       5.170   5.664  16.210  0.00  0.00    +0.000 HD
ENDROOT
BRANCH   2   5
ATOM      5  C   UNL     1       4.834   4.803  18.502  0.00  0.00    +0.000 A 
ATOM      6  N   UNL     1       4.176   5.949  18.897  0.00  0.00    +0.000 NA
ATOM      7  C   UNL     1       3.105   5.499  19.506  0.00  0.00    +0.000 A 
ATOM      8  N   UNL     1       3.113   4.136  19.509  0.00  0.00    +0.000 N 
ATOM      9  N   UNL     1       4.180   3.667  18.826  0.00  0.00    +0.000 NA
BRANCH   8  10
ATOM     10  C   UNL     1       2.132   3.220  20.110  0.00  0.00    +0.000 C 
ATOM     11  C   UNL     1       0.810   3.970  20.345  0.00  0.00    +0.000 C 
ATOM     12  C   UNL     1       1.868   2.014  19.182  0.00  0.00    +0.000 C 
ATOM     13  C   UNL     1       2.639   2.662  21.457  0.00  0.00    +0.000 C 
ENDBRANCH   8  10
ENDBRANCH   2   5
BRANCH   1  14
ATOM     14  C   UNL     1       7.233   5.441  15.685  0.00  0.00    +0.000 C 
BRANCH  14  18
ATOM     15  C   UNL     1       6.092   3.502  12.460  0.00  0.00    +0.000 A 
ATOM     16  C   UNL     1       7.180   4.267  12.093  0.00  0.00    +0.000 A 
ATOM     17  C   UNL     1       7.702   5.023  13.180  0.00  0.00    +0.000 A 
ATOM     18  C   UNL     1       6.994   4.820  14.348  0.00  0.00    +0.000 A 
ATOM     19  S   UNL     1       5.709   3.711  14.115  0.00  0.00    +0.000 S 
BRANCH  15  21
ATOM     20  C   UNL     1       3.978   3.221  11.157  0.00  0.00    +0.000 C 
ATOM     21  C   UNL     1       5.284   2.579  11.599  0.00  0.00    +0.000 C 
ENDBRANCH  15  21
ENDBRANCH  14  18
ENDBRANCH   1  14
TORSDOF 5
ENDMDL
MODEL 2
REMARK VINA RESULT:      -7.2      0.945      1.305
REMARK  Name = 
REMARK  9 active torsions:
REMARK  status: ('A' for Active; 'I' for Inactive)
REMARK    1  A    between atoms: C_1  and  C_2
REMARK    2  A    between atoms: C_2  and  C_3
REMARK    3  A    between atoms: C_6  and  C_7
REMARK    4  A    between atoms: C_7  and  N_8
REMARK    5  A    between atoms: C_9  and  C_11
REMARK    6  A    between atoms: N_14  and  C_15
REMARK    7  A    between atoms: C_15  and  C_16
REMARK    8  A    between atoms: C_15  and  C_17
REMARK    9  A    between atoms: C_15  and  C_18
REMARK                            x       y       z     vdW  Elec       q    Type
REMARK                         _______ _______ _______ _____ _____    ______ ____
ROOT
ATOM      1  N   UNL     1       6.132   4.741  16.709  0.00  0.00    +0.000 N 
ATOM      2  C   UNL     1       6.381   4.546  18.052  0.00  0.00    +0.000 C 
ATOM      3  O   UNL     1       7.480   4.766  18.560  0.00  0.00    +0.000 OA
ATOM      4  H   UNL     1       5.164   4.653  16.412  0.00  0.00    +0.000 HD
ENDROOT
BRANCH   2   5
ATOM      5  C   UNL     1       5.210   4.045  18.807  0.00  0.00    +0.000 A 
ATOM      6  N   UNL     1       5.260   2.983  19.685  0.00  0.00    +0.000 NA
ATOM      7  C   UNL     1       4.020   2.860  20.095  0.00  0.00    +0.000 A 
ATOM      8  N   UNL     1       3.234   3.787  19.479  0.00  0.00    +0.000 N 
ATOM      9  N   UNL     1       3.981   4.593  18.692  0.00  0.00    +0.000 NA
BRANCH   8  10
ATOM     10  C   UNL     1       1.784   3.986  19.612  0.00  0.00    +0.000 C 
ATOM     11  C   UNL     1       1.517   5.276  20.405  0.00  0.00    +0.000 C 
ATOM     12  C   UNL     1       1.116   4.102  18.224  0.00  0.00    +0.000 C 
ATOM     13  C   UNL     1       1.120   2.800  20.344  0.00  0.00    +0.000 C 
ENDBRANCH   8  10
ENDBRANCH   2   5
BRANCH   1  14
ATOM     14  C   UNL     1       7.111   5.331  15.835  0.00  0.00    +0.000 C 
BRANCH  14  18
ATOM     15  C   UNL     1       6.104   3.540  12.483  0.00  0.00    +0.000 A 
ATOM     16  C   UNL     1       7.188   4.341  12.188  0.00  0.00    +0.000 A 
ATOM     17  C   UNL     1       7.662   5.050  13.328  0.00  0.00    +0.000 A 
ATOM     18  C   UNL     1       6.924   4.775  14.462  0.00  0.00    +0.000 A 
ATOM     19  S   UNL     1       5.668   3.657  14.134  0.00  0.00    +0.000 S 
BRANCH  15  21
ATOM     20  C   UNL     1       4.012   3.265  11.143  0.00  0.00    +0.000 C 
ATOM     21  C   UNL     1       5.340   2.647  11.551  0.00  0.00    +0.000 C 
ENDBRANCH  15  21
ENDBRANCH  14  18
ENDBRANCH   1  14
TORSDOF 5
ENDMDL
MODEL 3
REMARK VINA RESULT:      -7.2      0.233      1.011
REMARK  Name = 
REMARK  9 active torsions:
REMARK  status: ('A' for Active; 'I' for Inactive)
REMARK    1  A    between atoms: C_1  and  C_2
REMARK    2  A    between atoms: C_2  and  C_3
REMARK    3  A    between atoms: C_6  and  C_7
REMARK    4  A    between atoms: C_7  and  N_8
REMARK    5  A    between atoms: C_9  and  C_11
REMARK    6  A    between atoms: N_14  and  C_15
REMARK    7  A    between atoms: C_15  and  C_16
REMARK    8  A    between atoms: C_15  and  C_17
REMARK    9  A    between atoms: C_15  and  C_18
REMARK                            x       y       z     vdW  Elec       q    Type
REMARK                         _______ _______ _______ _____ _____    ______ ____
ROOT
ATOM      1  N   UNL     1       6.180   5.063  16.685  0.00  0.00    +0.000 N 
ATOM      2  C   UNL     1       6.280   4.815  18.039  0.00  0.00    +0.000 C 
ATOM      3  O   UNL     1       7.359   4.632  18.600  0.00  0.00    +0.000 OA
ATOM      4  H   UNL     1       5.261   5.326  16.340  0.00  0.00    +0.000 HD
ENDROOT
BRANCH   2   5
ATOM      5  C   UNL     1       4.973   4.783  18.734  0.00  0.00    +0.000 A 
ATOM      6  N   UNL     1       4.361   5.898  19.267  0.00  0.00    +0.000 NA
ATOM      7  C   UNL     1       3.265   5.423  19.808  0.00  0.00    +0.000 A 
ATOM      8  N   UNL     1       3.215   4.071  19.641  0.00  0.00    +0.000 N 
ATOM      9  N   UNL     1       4.268   3.645  18.909  0.00  0.00    +0.000 NA
BRANCH   8  10
ATOM     10  C   UNL     1       2.190   3.131  20.117  0.00  0.00    +0.000 C 
ATOM     11  C   UNL     1       2.072   1.961  19.126  0.00  0.00    +0.000 C 
ATOM     12  C   UNL     1       2.559   2.575  21.510  0.00  0.00    +0.000 C 
ATOM     13  C   UNL     1       0.814   3.819  20.246  0.00  0.00    +0.000 C 
ENDBRANCH   8  10
ENDBRANCH   2   5
BRANCH   1  14
ATOM     14  C   UNL     1       7.346   5.246  15.861  0.00  0.00    +0.000 C 
BRANCH  14  18
ATOM     15  C   UNL     1       6.091   3.521  12.557  0.00  0.00    +0.000 A 
ATOM     16  C   UNL     1       7.119   4.366  12.192  0.00  0.00    +0.000 A 
ATOM     17  C   UNL     1       7.674   5.056  13.306  0.00  0.00    +0.000 A 
ATOM     18  C   UNL     1       7.051   4.724  14.493  0.00  0.00    +0.000 A 
ATOM     19  S   UNL     1       5.804   3.576  14.244  0.00  0.00    +0.000 S 
BRANCH  15  21
ATOM     20  C   UNL     1       3.991   3.316  11.217  0.00  0.00    +0.000 C 
ATOM     21  C   UNL     1       5.272   2.632  11.670  0.00  0.00    +0.000 C 
ENDBRANCH  15  21
ENDBRANCH  14  18
ENDBRANCH   1  14
TORSDOF 5
ENDMDL
MODEL 4
REMARK VINA RESULT:      -7.2      1.046      1.528
REMARK  Name = 
REMARK  9 active torsions:
REMARK  status: ('A' for Active; 'I' for Inactive)
REMARK    1  A    between atoms: C_1  and  C_2
REMARK    2  A    between atoms: C_2  and  C_3
REMARK    3  A    between atoms: C_6  and  C_7
REMARK    4  A    between atoms: C_7  and  N_8
REMARK    5  A    between atoms: C_9  and  C_11
REMARK    6  A    between atoms: N_14  and  C_15
REMARK    7  A    between atoms: C_15  and  C_16
REMARK    8  A    between atoms: C_15  and  C_17
REMARK    9  A    between atoms: C_15  and  C_18
REMARK                            x       y       z     vdW  Elec       q    Type
REMARK                         _______ _______ _______ _____ _____    ______ ____
ROOT
ATOM      1  N   UNL     1       6.470   4.825  16.932  0.00  0.00    +0.000 N 
ATOM      2  C   UNL     1       5.477   5.430  17.676  0.00  0.00    +0.000 C 
ATOM      3  O   UNL     1       5.249   6.637  17.617  0.00  0.00    +0.000 OA
ATOM      4  H   UNL     1       6.496   3.809  16.954  0.00  0.00    +0.000 HD
ENDROOT
BRANCH   2   5
ATOM      5  C   UNL     1       4.730   4.491  18.544  0.00  0.00    +0.000 A 
ATOM      6  N   UNL     1       5.262   3.323  19.048  0.00  0.00    +0.000 NA
ATOM      7  C   UNL     1       4.269   2.793  19.719  0.00  0.00    +0.000 A 
ATOM      8  N   UNL     1       3.165   3.584  19.615  0.00  0.00    +0.000 N 
ATOM      9  N   UNL     1       3.449   4.704  18.914  0.00  0.00    +0.000 NA
BRANCH   8  10
ATOM     10  C   UNL     1       1.825   3.359  20.176  0.00  0.00    +0.000 C 
ATOM     11  C   UNL     1       0.983   2.548  19.178  0.00  0.00    +0.000 C 
ATOM     12  C   UNL     1       1.911   2.582  21.509  0.00  0.00    +0.000 C 
ATOM     13  C   UNL     1       1.108   4.694  20.468  0.00  0.00    +0.000 C 
ENDBRANCH   8  10
ENDBRANCH   2   5
BRANCH   1  14
ATOM     14  C   UNL     1       7.226   5.550  15.946  0.00  0.00    +0.000 C 
BRANCH  14  18
ATOM     15  C   UNL     1       6.135   3.568  12.731  0.00  0.00    +0.000 A 
ATOM     16  C   UNL     1       7.181   4.385  12.351  0.00  0.00    +0.000 A 
ATOM     17  C   UNL     1       7.681   5.162  13.434  0.00  0.00    +0.000 A 
ATOM     18  C   UNL     1       7.000   4.922  14.611  0.00  0.00    +0.000 A 
ATOM     19  S   UNL     1       5.765   3.755  14.391  0.00  0.00    +0.000 S 
BRANCH  15  21
ATOM     20  C   UNL     1       4.136   3.268  11.262  0.00  0.00    +0.000 C 
ATOM     21  C   UNL     1       5.361   2.610  11.877  0.00  0.00    +0.000 C 
ENDBRANCH  15  21
ENDBRANCH  14  18
ENDBRANCH   1  14
TORSDOF 5
ENDMDL
MODEL 5
REMARK VINA RESULT:      -7.1      1.032      1.750
REMARK  Name = 
REMARK  9 active torsions:
REMARK  status: ('A' for Active; 'I' for Inactive)
REMARK    1  A    between atoms: C_1  and  C_2
REMARK    2  A    between atoms: C_2  and  C_3
REMARK    3  A    between atoms: C_6  and  C_7
REMARK    4  A    between atoms: C_7  and  N_8
REMARK    5  A    between atoms: C_9  and  C_11
REMARK    6  A    between atoms: N_14  and  C_15
REMARK    7  A    between atoms: C_15  and  C_16
REMARK    8  A    between atoms: C_15  and  C_17
REMARK    9  A    between atoms: C_15  and  C_18
REMARK                            x       y       z     vdW  Elec       q    Type
REMARK                         _______ _______ _______ _____ _____    ______ ____
ROOT
ATOM      1  N   UNL     1       6.033   4.887  16.506  0.00  0.00    +0.000 N 
ATOM      2  C   UNL     1       6.338   4.462  17.783  0.00  0.00    +0.000 C 
ATOM      3  O   UNL     1       7.486   4.467  18.224  0.00  0.00    +0.000 OA
ATOM      4  H   UNL     1       5.045   4.964  16.280  0.00  0.00    +0.000 HD
ENDROOT
BRANCH   2   5
ATOM      5  C   UNL     1       5.161   4.002  18.553  0.00  0.00    +0.000 A 
ATOM      6  N   UNL     1       5.244   3.235  19.696  0.00  0.00    +0.000 NA
ATOM      7  C   UNL     1       3.992   3.029  20.025  0.00  0.00    +0.000 A 
ATOM      8  N   UNL     1       3.171   3.621  19.113  0.00  0.00    +0.000 N 
ATOM      9  N   UNL     1       3.894   4.295  18.192  0.00  0.00    +0.000 NA
BRANCH   8  10
ATOM     10  C   UNL     1       1.701   3.614  19.069  0.00  0.00    +0.000 C 
ATOM     11  C   UNL     1       1.198   2.162  19.022  0.00  0.00    +0.000 C 
ATOM     12  C   UNL     1       1.112   4.310  20.315  0.00  0.00    +0.000 C 
ATOM     13  C   UNL     1       1.174   4.367  17.829  0.00  0.00    +0.000 C 
ENDBRANCH   8  10
ENDBRANCH   2   5
BRANCH   1  14
ATOM     14  C   UNL     1       7.024   5.477  15.646  0.00  0.00    +0.000 C 
BRANCH  14  18
ATOM     15  C   UNL     1       6.277   3.449  12.361  0.00  0.00    +0.000 A 
ATOM     16  C   UNL     1       7.310   4.315  12.061  0.00  0.00    +0.000 A 
ATOM     17  C   UNL     1       7.688   5.113  13.177  0.00  0.00    +0.000 A 
ATOM     18  C   UNL     1       6.930   4.840  14.299  0.00  0.00    +0.000 A 
ATOM     19  S   UNL     1       5.773   3.616  13.988  0.00  0.00    +0.000 S 
BRANCH  15  21
ATOM     20  C   UNL     1       6.564   1.331  11.067  0.00  0.00    +0.000 C 
ATOM     21  C   UNL     1       5.617   2.456  11.453  0.00  0.00    +0.000 C 
ENDBRANCH  15  21
ENDBRANCH  14  18
ENDBRANCH   1  14
TORSDOF 5
ENDMDL
MODEL 6
REMARK VINA RESULT:      -7.1      1.035      1.687
REMARK  Name = 
REMARK  9 active torsions:
REMARK  status: ('A' for Active; 'I' for Inactive)
REMARK    1  A    between atoms: C_1  and  C_2
REMARK    2  A    between atoms: C_2  and  C_3
REMARK    3  A    between atoms: C_6  and  C_7
REMARK    4  A    between atoms: C_7  and  N_8
REMARK    5  A    between atoms: C_9  and  C_11
REMARK    6  A    between atoms: N_14  and  C_15
REMARK    7  A    between atoms: C_15  and  C_16
REMARK    8  A    between atoms: C_15  and  C_17
REMARK    9  A    between atoms: C_15  and  C_18
REMARK                            x       y       z     vdW  Elec       q    Type
REMARK                         _______ _______ _______ _____ _____    ______ ____
ROOT
ATOM      1  N   UNL     1       5.277   5.112  17.105  0.00  0.00    +0.000 N 
ATOM      2  C   UNL     1       5.840   4.458  18.183  0.00  0.00    +0.000 C 
ATOM      3  O   UNL     1       7.052   4.450  18.391  0.00  0.00    +0.000 OA
ATOM      4  H   UNL     1       4.262   5.167  17.091  0.00  0.00    +0.000 HD
ENDROOT
BRANCH   2   5
ATOM      5  C   UNL     1       4.851   3.773  19.045  0.00  0.00    +0.000 A 
ATOM      6  N   UNL     1       5.129   2.641  19.781  0.00  0.00    +0.000 NA
ATOM      7  C   UNL     1       3.986   2.356  20.357  0.00  0.00    +0.000 A 
ATOM      8  N   UNL     1       3.038   3.256  19.975  0.00  0.00    +0.000 N 
ATOM      9  N   UNL     1       3.579   4.205  19.179  0.00  0.00    +0.000 NA
BRANCH   8  10
ATOM     10  C   UNL     1       1.616   3.297  20.347  0.00  0.00    +0.000 C 
ATOM     11  C   UNL     1       1.422   2.593  21.700  0.00  0.00    +0.000 C 
ATOM     12  C   UNL     1       1.120   4.755  20.463  0.00  0.00    +0.000 C 
ATOM     13  C   UNL     1       0.739   2.596  19.287  0.00  0.00    +0.000 C 
ENDBRANCH   8  10
ENDBRANCH   2   5
BRANCH   1  14
ATOM     14  C   UNL     1       6.063   5.929  16.220  0.00  0.00    +0.000 C 
BRANCH  14  18
ATOM     15  C   UNL     1       6.019   3.728  12.962  0.00  0.00    +0.000 A 
ATOM     16  C   UNL     1       7.236   4.379  12.978  0.00  0.00    +0.000 A 
ATOM     17  C   UNL     1       7.387   5.214  14.121  0.00  0.00    +0.000 A 
ATOM     18  C   UNL     1       6.279   5.183  14.944  0.00  0.00    +0.000 A 
ATOM     19  S   UNL     1       5.070   4.138  14.326  0.00  0.00    +0.000 S 
BRANCH  15  21
ATOM     20  C   UNL     1       4.180   3.233  11.344  0.00  0.00    +0.000 C 
ATOM     21  C   UNL     1       5.504   2.769  11.931  0.00  0.00    +0.000 C 
ENDBRANCH  15  21
ENDBRANCH  14  18
ENDBRANCH   1  14
TORSDOF 5
ENDMDL
MODEL 7
REMARK VINA RESULT:      -6.8      1.124      1.145
REMARK  Name = 
REMARK  9 active torsions:
REMARK  status: ('A' for Active; 'I' for Inactive)
REMARK    1  A    between atoms: C_1  and  C_2
REMARK    2  A    between atoms: C_2  and  C_3
REMARK    3  A    between atoms: C_6  and  C_7
REMARK    4  A    between atoms: C_7  and  N_8
REMARK    5  A    between atoms: C_9  and  C_11
REMARK    6  A    between atoms: N_14  and  C_15
REMARK    7  A    between atoms: C_15  and  C_16
REMARK    8  A    between atoms: C_15  and  C_17
REMARK    9  A    between atoms: C_15  and  C_18
REMARK                            x       y       z     vdW  Elec       q    Type
REMARK                         _______ _______ _______ _____ _____    ______ ____
ROOT
ATOM      1  N   UNL     1       6.010   5.067  16.532  0.00  0.00    +0.000 N 
ATOM      2  C   UNL     1       5.239   6.014  17.175  0.00  0.00    +0.000 C 
ATOM      3  O   UNL     1       5.505   7.214  17.144  0.00  0.00    +0.000 OA
ATOM      4  H   UNL     1       5.638   4.121  16.510  0.00  0.00    +0.000 HD
ENDROOT
BRANCH   2   5
ATOM      5  C   UNL     1       4.080   5.444  17.899  0.00  0.00    +0.000 A 
ATOM      6  N   UNL     1       3.046   6.200  18.407  0.00  0.00    +0.000 NA
ATOM      7  C   UNL     1       2.270   5.318  18.988  0.00  0.00    +0.000 A 
ATOM      8  N   UNL     1       2.814   4.074  18.868  0.00  0.00    +0.000 N 
ATOM      9  N   UNL     1       3.943   4.120  18.128  0.00  0.00    +0.000 NA
BRANCH   8  10
ATOM     10  C   UNL     1       2.304   2.801  19.398  0.00  0.00    +0.000 C 
ATOM     11  C   UNL     1       0.822   2.647  19.018  0.00  0.00    +0.000 C 
ATOM     12  C   UNL     1       3.097   1.608  18.819  0.00  0.00    +0.000 C 
ATOM     13  C   UNL     1       2.438   2.739  20.934  0.00  0.00    +0.000 C 
ENDBRANCH   8  10
ENDBRANCH   2   5
BRANCH   1  14
ATOM     14  C   UNL     1       7.110   5.436  15.681  0.00  0.00    +0.000 C 
BRANCH  14  18
ATOM     15  C   UNL     1       6.057   3.495  12.428  0.00  0.00    +0.000 A 
ATOM     16  C   UNL     1       7.168   4.242  12.096  0.00  0.00    +0.000 A 
ATOM     17  C   UNL     1       7.662   4.997  13.197  0.00  0.00    +0.000 A 
ATOM     18  C   UNL     1       6.910   4.810  14.340  0.00  0.00    +0.000 A 
ATOM     19  S   UNL     1       5.619   3.718  14.068  0.00  0.00    +0.000 S 
BRANCH  15  21
ATOM     20  C   UNL     1       3.951   3.206  11.114  0.00  0.00    +0.000 C 
ATOM     21  C   UNL     1       5.267   2.577  11.544  0.00  0.00    +0.000 C 
ENDBRANCH  15  21
ENDBRANCH  14  18
ENDBRANCH   1  14
TORSDOF 5
ENDMDL
MODEL 8
REMARK VINA RESULT:      -6.8      1.292      1.468
REMARK  Name = 
REMARK  9 active torsions:
REMARK  status: ('A' for Active; 'I' for Inactive)
REMARK    1  A    between atoms: C_1  and  C_2
REMARK    2  A    between atoms: C_2  and  C_3
REMARK    3  A    between atoms: C_6  and  C_7
REMARK    4  A    between atoms: C_7  and  N_8
REMARK    5  A    between atoms: C_9  and  C_11
REMARK    6  A    between atoms: N_14  and  C_15
REMARK    7  A    between atoms: C_15  and  C_16
REMARK    8  A    between atoms: C_15  and  C_17
REMARK    9  A    between atoms: C_15  and  C_18
REMARK                            x       y       z     vdW  Elec       q    Type
REMARK                         _______ _______ _______ _____ _____    ______ ____
ROOT
ATOM      1  N   UNL     1       6.145   5.076  16.443  0.00  0.00    +0.000 N 
ATOM      2  C   UNL     1       5.124   5.977  16.670  0.00  0.00    +0.000 C 
ATOM      3  O   UNL     1       5.148   7.127  16.233  0.00  0.00    +0.000 OA
ATOM      4  H   UNL     1       5.974   4.118  16.735  0.00  0.00    +0.000 HD
ENDROOT
BRANCH   2   5
ATOM      5  C   UNL     1       4.018   5.429  17.487  0.00  0.00    +0.000 A 
ATOM      6  N   UNL     1       3.036   6.203  18.066  0.00  0.00    +0.000 NA
ATOM      7  C   UNL     1       2.296   5.335  18.713  0.00  0.00    +0.000 A 
ATOM      8  N   UNL     1       2.813   4.083  18.562  0.00  0.00    +0.000 N 
ATOM      9  N   UNL     1       3.883   4.109  17.737  0.00  0.00    +0.000 NA
BRANCH   8  10
ATOM     10  C   UNL     1       2.330   2.821  19.141  0.00  0.00    +0.000 C 
ATOM     11  C   UNL     1       2.407   2.900  20.674  0.00  0.00    +0.000 C 
ATOM     12  C   UNL     1       0.868   2.550  18.724  0.00  0.00    +0.000 C 
ATOM     13  C   UNL     1       3.176   1.623  18.658  0.00  0.00    +0.000 C 
ENDBRANCH   8  10
ENDBRANCH   2   5
BRANCH   1  14
ATOM     14  C   UNL     1       7.250   5.386  15.576  0.00  0.00    +0.000 C 
BRANCH  14  18
ATOM     15  C   UNL     1       6.075   3.473  12.348  0.00  0.00    +0.000 A 
ATOM     16  C   UNL     1       7.123   4.285  11.963  0.00  0.00    +0.000 A 
ATOM     17  C   UNL     1       7.653   5.036  13.049  0.00  0.00    +0.000 A 
ATOM     18  C   UNL     1       6.991   4.784  14.234  0.00  0.00    +0.000 A 
ATOM     19  S   UNL     1       5.739   3.635  14.018  0.00  0.00    +0.000 S 
BRANCH  15  21
ATOM     20  C   UNL     1       3.935   3.145  11.100  0.00  0.00    +0.000 C 
ATOM     21  C   UNL     1       5.273   2.539  11.492  0.00  0.00    +0.000 C 
ENDBRANCH  15  21
ENDBRANCH  14  18
ENDBRANCH   1  14
TORSDOF 5
ENDMDL
MODEL 9
REMARK VINA RESULT:      -6.7      1.075      1.457
REMARK  Name = 
REMARK  9 active torsions:
REMARK  status: ('A' for Active; 'I' for Inactive)
REMARK    1  A    between atoms: C_1  and  C_2
REMARK    2  A    between atoms: C_2  and  C_3
REMARK    3  A    between atoms: C_6  and  C_7
REMARK    4  A    between atoms: C_7  and  N_8
REMARK    5  A    between atoms: C_9  and  C_11
REMARK    6  A    between atoms: N_14  and  C_15
REMARK    7  A    between atoms: C_15  and  C_16
REMARK    8  A    between atoms: C_15  and  C_17
REMARK    9  A    between atoms: C_15  and  C_18
REMARK                            x       y       z     vdW  Elec       q    Type
REMARK                         _______ _______ _______ _____ _____    ______ ____
ROOT
ATOM      1  N   UNL     1       6.391   4.698  16.524  0.00  0.00    +0.000 N 
ATOM      2  C   UNL     1       6.136   5.226  17.773  0.00  0.00    +0.000 C 
ATOM      3  O   UNL     1       6.720   6.219  18.203  0.00  0.00    +0.000 OA
ATOM      4  H   UNL     1       5.770   3.957  16.211  0.00  0.00    +0.000 HD
ENDROOT
BRANCH   2   5
ATOM      5  C   UNL     1       5.107   4.481  18.533  0.00  0.00    +0.000 A 
ATOM      6  N   UNL     1       5.396   3.582  19.538  0.00  0.00    +0.000 NA
ATOM      7  C   UNL     1       4.219   3.137  19.906  0.00  0.00    +0.000 A 
ATOM      8  N   UNL     1       3.247   3.716  19.147  0.00  0.00    +0.000 N 
ATOM      9  N   UNL     1       3.784   4.620  18.298  0.00  0.00    +0.000 NA
BRANCH   8  10
ATOM     10  C   UNL     1       1.795   3.485  19.191  0.00  0.00    +0.000 C 
ATOM     11  C   UNL     1       1.153   4.028  17.905  0.00  0.00    +0.000 C 
ATOM     12  C   UNL     1       1.483   1.977  19.311  0.00  0.00    +0.000 C 
ATOM     13  C   UNL     1       1.153   4.186  20.407  0.00  0.00    +0.000 C 
ENDBRANCH   8  10
ENDBRANCH   2   5
BRANCH   1  14
ATOM     14  C   UNL     1       7.275   5.349  15.593  0.00  0.00    +0.000 C 
BRANCH  14  18
ATOM     15  C   UNL     1       6.205   3.468  12.309  0.00  0.00    +0.000 A 
ATOM     16  C   UNL     1       7.231   4.321  11.956  0.00  0.00    +0.000 A 
ATOM     17  C   UNL     1       7.721   5.066  13.065  0.00  0.00    +0.000 A 
ATOM     18  C   UNL     1       7.053   4.767  14.235  0.00  0.00    +0.000 A 
ATOM     19  S   UNL     1       5.842   3.583  13.978  0.00  0.00    +0.000 S 
BRANCH  15  21
ATOM     20  C   UNL     1       6.233   1.255  11.150  0.00  0.00    +0.000 C 
ATOM     21  C   UNL     1       5.446   2.526  11.424  0.00  0.00    +0.000 C 
ENDBRANCH  15  21
ENDBRANCH  14  18
ENDBRANCH   1  14
TORSDOF 5
ENDMDL
