MODEL 1
REMARK VINA RESULT:      -9.1      0.000      0.000
REMARK  Name = 
REMARK  4 active torsions:
REMARK  status: ('A' for Active; 'I' for Inactive)
REMARK    1  A    between atoms: C_2  and  O_3
REMARK    2  A    between atoms: C_2  and  C_16
REMARK    3  A    between atoms: O_3  and  C_4
REMARK    4  A    between atoms: C_10  and  C_11
REMARK                            x       y       z     vdW  Elec       q    Type
REMARK                         _______ _______ _______ _____ _____    ______ ____
ROOT
ATOM      1  O   UNL     1       4.426   3.059  17.595  0.00  0.00    +0.000 OA
ENDROOT
BRANCH   1   2
ATOM      2  C   UNL     1       5.390   4.062  17.312  0.00  0.00    +0.000 A 
ATOM      3  C   UNL     1       5.942   4.888  18.307  0.00  0.00    +0.000 A 
ATOM      4  C   UNL     1       6.844   5.906  17.981  0.00  0.00    +0.000 A 
ATOM      5  C   UNL     1       7.255   6.114  16.663  0.00  0.00    +0.000 A 
ATOM      6  C   UNL     1       6.749   5.233  15.711  0.00  0.00    +0.000 A 
ATOM      7  O   UNL     1       7.070   5.243  14.390  0.00  0.00    +0.000 OA
ATOM      8  C   UNL     1       6.380   4.227  13.801  0.00  0.00    +0.000 A 
ATOM      9  C   UNL     1       5.607   3.573  14.737  0.00  0.00    +0.000 A 
ATOM     10  C   UNL     1       5.842   4.216  15.985  0.00  0.00    +0.000 A 
BRANCH   8  11
ATOM     11  C   UNL     1       6.470   3.872  12.326  0.00  0.00    +0.000 C 
ATOM     12  C   UNL     1       6.348   2.414  11.932  0.00  0.00    +0.000 C 
ATOM     13  C   UNL     1       5.221   3.346  11.648  0.00  0.00    +0.000 C 
ENDBRANCH   8  11
ENDBRANCH   1   2
BRANCH   1  15
ATOM     14  O   UNL     1       2.376   2.982  16.475  0.00  0.00    +0.000 OA
ATOM     15  C   UNL     1       3.061   3.270  17.447  0.00  0.00    +0.000 C 
BRANCH  15  16
ATOM     16  C   UNL     1       2.455   3.758  18.715  0.00  0.00    +0.000 A 
ATOM     17  C   UNL     1       2.063   2.736  19.603  0.00  0.00    +0.000 A 
ATOM     18  C   UNL     1       1.523   3.039  20.845  0.00  0.00    +0.000 A 
ATOM     19  C   UNL     1       1.387   4.368  21.226  0.00  0.00    +0.000 A 
ATOM     20  C   UNL     1       1.759   5.410  20.364  0.00  0.00    +0.000 A 
ATOM     21  C   UNL     1       1.612   6.740  20.790  0.00  0.00    +0.000 A 
ATOM     22  C   UNL     1       1.938   7.804  19.955  0.00  0.00    +0.000 A 
ATOM     23  C   UNL     1       2.382   7.551  18.664  0.00  0.00    +0.000 A 
ATOM     24  C   UNL     1       2.536   6.233  18.223  0.00  0.00    +0.000 A 
ATOM     25  C   UNL     1       2.271   5.124  19.067  0.00  0.00    +0.000 A 
ENDBRANCH  15  16
ENDBRANCH   1  15
TORSDOF 4
ENDMDL
MODEL 2
REMARK VINA RESULT:      -8.6      1.030      1.319
REMARK  Name = 
REMARK  4 active torsions:
REMARK  status: ('A' for Active; 'I' for Inactive)
REMARK    1  A    between atoms: C_2  and  O_3
REMARK    2  A    between atoms: C_2  and  C_16
REMARK    3  A    between atoms: O_3  and  C_4
REMARK    4  A    between atoms: C_10  and  C_11
REMARK                            x       y       z     vdW  Elec       q    Type
REMARK                         _______ _______ _______ _____ _____    ______ ____
ROOT
ATOM      1  O   UNL     1       5.427   3.509  18.802  0.00  0.00    +0.000 OA
ENDROOT
BRANCH   1   2
ATOM      2  C   UNL     1       6.167   4.545  18.175  0.00  0.00    +0.000 A 
ATOM      3  C   UNL     1       6.722   5.622  18.889  0.00  0.00    +0.000 A 
ATOM      4  C   UNL     1       7.393   6.656  18.229  0.00  0.00    +0.000 A 
ATOM      5  C   UNL     1       7.567   6.636  16.844  0.00  0.00    +0.000 A 
ATOM      6  C   UNL     1       7.073   5.521  16.173  0.00  0.00    +0.000 A 
ATOM      7  O   UNL     1       7.191   5.298  14.837  0.00  0.00    +0.000 OA
ATOM      8  C   UNL     1       6.592   4.103  14.575  0.00  0.00    +0.000 A 
ATOM      9  C   UNL     1       6.077   3.565  15.737  0.00  0.00    +0.000 A 
ATOM     10  C   UNL     1       6.389   4.476  16.785  0.00  0.00    +0.000 A 
BRANCH   8  11
ATOM     11  C   UNL     1       6.518   3.466  13.198  0.00  0.00    +0.000 C 
ATOM     12  C   UNL     1       5.388   3.878  12.278  0.00  0.00    +0.000 C 
ATOM     13  C   UNL     1       6.773   4.350  11.995  0.00  0.00    +0.000 C 
ENDBRANCH   8  11
ENDBRANCH   1   2
BRANCH   1  15
ATOM     14  O   UNL     1       3.612   2.352  17.890  0.00  0.00    +0.000 OA
ATOM     15  C   UNL     1       4.083   3.280  18.532  0.00  0.00    +0.000 C 
BRANCH  15  16
ATOM     16  C   UNL     1       3.218   4.235  19.276  0.00  0.00    +0.000 A 
ATOM     17  C   UNL     1       2.643   3.705  20.449  0.00  0.00    +0.000 A 
ATOM     18  C   UNL     1       1.848   4.492  21.271  0.00  0.00    +0.000 A 
ATOM     19  C   UNL     1       1.635   5.826  20.945  0.00  0.00    +0.000 A 
ATOM     20  C   UNL     1       2.186   6.383  19.781  0.00  0.00    +0.000 A 
ATOM     21  C   UNL     1       1.954   7.737  19.492  0.00  0.00    +0.000 A 
ATOM     22  C   UNL     1       2.455   8.322  18.332  0.00  0.00    +0.000 A 
ATOM     23  C   UNL     1       3.166   7.547  17.427  0.00  0.00    +0.000 A 
ATOM     24  C   UNL     1       3.408   6.198  17.699  0.00  0.00    +0.000 A 
ATOM     25  C   UNL     1       2.965   5.583  18.899  0.00  0.00    +0.000 A 
ENDBRANCH  15  16
ENDBRANCH   1  15
TORSDOF 4
ENDMDL
MODEL 3
REMARK VINA RESULT:      -8.4      0.846      1.050
REMARK  Name = 
REMARK  4 active torsions:
REMARK  status: ('A' for Active; 'I' for Inactive)
REMARK    1  A    between atoms: C_2  and  O_3
REMARK    2  A    between atoms: C_2  and  C_16
REMARK    3  A    between atoms: O_3  and  C_4
REMARK    4  A    between atoms: C_10  and  C_11
REMARK                            x       y       z     vdW  Elec       q    Type
REMARK                         _______ _______ _______ _____ _____    ______ ____
ROOT
ATOM      1  O   UNL     1       4.206   2.993  17.731  0.00  0.00    +0.000 OA
ENDROOT
BRANCH   1   2
ATOM      2  C   UNL     1       5.274   3.930  17.720  0.00  0.00    +0.000 A 
ATOM      3  C   UNL     1       5.867   4.419  18.897  0.00  0.00    +0.000 A 
ATOM      4  C   UNL     1       6.875   5.387  18.848  0.00  0.00    +0.000 A 
ATOM      5  C   UNL     1       7.353   5.872  17.629  0.00  0.00    +0.000 A 
ATOM      6  C   UNL     1       6.799   5.315  16.480  0.00  0.00    +0.000 A 
ATOM      7  O   UNL     1       7.168   5.621  15.208  0.00  0.00    +0.000 OA
ATOM      8  C   UNL     1       6.404   4.860  14.374  0.00  0.00    +0.000 A 
ATOM      9  C   UNL     1       5.536   4.078  15.108  0.00  0.00    +0.000 A 
ATOM     10  C   UNL     1       5.787   4.361  16.480  0.00  0.00    +0.000 A 
BRANCH   8  11
ATOM     11  C   UNL     1       6.513   4.878  12.859  0.00  0.00    +0.000 C 
ATOM     12  C   UNL     1       7.874   5.129  12.242  0.00  0.00    +0.000 C 
ATOM     13  C   UNL     1       7.289   3.759  12.193  0.00  0.00    +0.000 C 
ENDBRANCH   8  11
ENDBRANCH   1   2
BRANCH   1  15
ATOM     14  O   UNL     1       2.102   3.040  16.715  0.00  0.00    +0.000 OA
ATOM     15  C   UNL     1       2.877   3.373  17.601  0.00  0.00    +0.000 C 
BRANCH  15  16
ATOM     16  C   UNL     1       2.419   4.134  18.795  0.00  0.00    +0.000 A 
ATOM     17  C   UNL     1       2.124   3.332  19.916  0.00  0.00    +0.000 A 
ATOM     18  C   UNL     1       1.729   3.904  21.117  0.00  0.00    +0.000 A 
ATOM     19  C   UNL     1       1.643   5.287  21.222  0.00  0.00    +0.000 A 
ATOM     20  C   UNL     1       1.922   6.114  20.123  0.00  0.00    +0.000 A 
ATOM     21  C   UNL     1       1.832   7.508  20.272  0.00  0.00    +0.000 A 
ATOM     22  C   UNL     1       2.068   8.363  19.200  0.00  0.00    +0.000 A 
ATOM     23  C   UNL     1       2.362   7.832  17.952  0.00  0.00    +0.000 A 
ATOM     24  C   UNL     1       2.458   6.447  17.786  0.00  0.00    +0.000 A 
ATOM     25  C   UNL     1       2.283   5.548  18.868  0.00  0.00    +0.000 A 
ENDBRANCH  15  16
ENDBRANCH   1  15
TORSDOF 4
ENDMDL
MODEL 4
REMARK VINA RESULT:      -8.2      2.995      5.352
REMARK  Name = 
REMARK  4 active torsions:
REMARK  status: ('A' for Active; 'I' for Inactive)
REMARK    1  A    between atoms: C_2  and  O_3
REMARK    2  A    between atoms: C_2  and  C_16
REMARK    3  A    between atoms: O_3  and  C_4
REMARK    4  A    between atoms: C_10  and  C_11
REMARK                            x       y       z     vdW  Elec       q    Type
REMARK                         _______ _______ _______ _____ _____    ______ ____
ROOT
ATOM      1  O   UNL     1       2.523   7.139  19.989  0.00  0.00    +0.000 OA
ENDROOT
BRANCH   1   2
ATOM      2  C   UNL     1       2.241   5.768  19.754  0.00  0.00    +0.000 A 
ATOM      3  C   UNL     1       1.291   5.049  20.500  0.00  0.00    +0.000 A 
ATOM      4  C   UNL     1       1.084   3.683  20.280  0.00  0.00    +0.000 A 
ATOM      5  C   UNL     1       1.785   2.996  19.288  0.00  0.00    +0.000 A 
ATOM      6  C   UNL     1       2.664   3.751  18.515  0.00  0.00    +0.000 A 
ATOM      7  O   UNL     1       3.395   3.273  17.474  0.00  0.00    +0.000 OA
ATOM      8  C   UNL     1       4.115   4.316  16.976  0.00  0.00    +0.000 A 
ATOM      9  C   UNL     1       3.859   5.460  17.704  0.00  0.00    +0.000 A 
ATOM     10  C   UNL     1       2.912   5.105  18.705  0.00  0.00    +0.000 A 
BRANCH   8  11
ATOM     11  C   UNL     1       5.053   4.220  15.785  0.00  0.00    +0.000 C 
ATOM     12  C   UNL     1       5.883   5.435  15.427  0.00  0.00    +0.000 C 
ATOM     13  C   UNL     1       6.544   4.257  16.053  0.00  0.00    +0.000 C 
ENDBRANCH   8  11
ENDBRANCH   1   2
BRANCH   1  15
ATOM     14  O   UNL     1       1.811   8.348  18.121  0.00  0.00    +0.000 OA
ATOM     15  C   UNL     1       1.857   8.164  19.329  0.00  0.00    +0.000 C 
BRANCH  15  16
ATOM     16  C   UNL     1       1.029   8.960  20.275  0.00  0.00    +0.000 A 
ATOM     17  C   UNL     1       1.249   8.659  21.634  0.00  0.00    +0.000 A 
ATOM     18  C   UNL     1       0.581   9.352  22.634  0.00  0.00    +0.000 A 
ATOM     19  C   UNL     1      -0.299  10.371  22.290  0.00  0.00    +0.000 A 
ATOM     20  C   UNL     1      -0.546  10.691  20.947  0.00  0.00    +0.000 A 
ATOM     21  C   UNL     1      -1.437  11.733  20.642  0.00  0.00    +0.000 A 
ATOM     22  C   UNL     1      -1.736  12.062  19.323  0.00  0.00    +0.000 A 
ATOM     23  C   UNL     1      -1.174  11.326  18.290  0.00  0.00    +0.000 A 
ATOM     24  C   UNL     1      -0.284  10.286  18.575  0.00  0.00    +0.000 A 
ATOM     25  C   UNL     1       0.090   9.963  19.904  0.00  0.00    +0.000 A 
ENDBRANCH  15  16
ENDBRANCH   1  15
TORSDOF 4
ENDMDL
MODEL 5
REMARK VINA RESULT:      -8.0      2.795      5.181
REMARK  Name = 
REMARK  4 active torsions:
REMARK  status: ('A' for Active; 'I' for Inactive)
REMARK    1  A    between atoms: C_2  and  O_3
REMARK    2  A    between atoms: C_2  and  C_16
REMARK    3  A    between atoms: O_3  and  C_4
REMARK    4  A    between atoms: C_10  and  C_11
REMARK                            x       y       z     vdW  Elec       q    Type
REMARK                         _______ _______ _______ _____ _____    ______ ____
ROOT
ATOM      1  O   UNL     1       1.790   6.256  18.325  0.00  0.00    +0.000 OA
ENDROOT
BRANCH   1   2
ATOM      2  C   UNL     1       2.506   5.080  17.976  0.00  0.00    +0.000 A 
ATOM      3  C   UNL     1       1.885   3.828  17.827  0.00  0.00    +0.000 A 
ATOM      4  C   UNL     1       2.632   2.681  17.542  0.00  0.00    +0.000 A 
ATOM      5  C   UNL     1       4.015   2.746  17.358  0.00  0.00    +0.000 A 
ATOM      6  C   UNL     1       4.591   4.011  17.437  0.00  0.00    +0.000 A 
ATOM      7  O   UNL     1       5.908   4.282  17.238  0.00  0.00    +0.000 OA
ATOM      8  C   UNL     1       6.069   5.626  17.392  0.00  0.00    +0.000 A 
ATOM      9  C   UNL     1       4.862   6.216  17.703  0.00  0.00    +0.000 A 
ATOM     10  C   UNL     1       3.891   5.176  17.730  0.00  0.00    +0.000 A 
BRANCH   8  11
ATOM     11  C   UNL     1       7.393   6.354  17.231  0.00  0.00    +0.000 C 
ATOM     12  C   UNL     1       7.430   7.842  17.515  0.00  0.00    +0.000 C 
ATOM     13  C   UNL     1       8.059   6.896  18.480  0.00  0.00    +0.000 C 
ENDBRANCH   8  11
ENDBRANCH   1   2
BRANCH   1  15
ATOM     14  O   UNL     1       2.335   6.357  20.596  0.00  0.00    +0.000 OA
ATOM     15  C   UNL     1       1.918   6.868  19.565  0.00  0.00    +0.000 C 
BRANCH  15  16
ATOM     16  C   UNL     1       1.636   8.326  19.473  0.00  0.00    +0.000 A 
ATOM     17  C   UNL     1       2.088   8.931  18.283  0.00  0.00    +0.000 A 
ATOM     18  C   UNL     1       1.857  10.278  18.036  0.00  0.00    +0.000 A 
ATOM     19  C   UNL     1       1.150  11.033  18.964  0.00  0.00    +0.000 A 
ATOM     20  C   UNL     1       0.693  10.464  20.162  0.00  0.00    +0.000 A 
ATOM     21  C   UNL     1      -0.024  11.260  21.070  0.00  0.00    +0.000 A 
ATOM     22  C   UNL     1      -0.468  10.744  22.285  0.00  0.00    +0.000 A 
ATOM     23  C   UNL     1      -0.167   9.432  22.623  0.00  0.00    +0.000 A 
ATOM     24  C   UNL     1       0.544   8.625  21.730  0.00  0.00    +0.000 A 
ATOM     25  C   UNL     1       0.959   9.098  20.459  0.00  0.00    +0.000 A 
ENDBRANCH  15  16
ENDBRANCH   1  15
TORSDOF 4
ENDMDL
MODEL 6
REMARK VINA RESULT:      -7.8      1.628      2.864
REMARK  Name = 
REMARK  4 active torsions:
REMARK  status: ('A' for Active; 'I' for Inactive)
REMARK    1  A    between atoms: C_2  and  O_3
REMARK    2  A    between atoms: C_2  and  C_16
REMARK    3  A    between atoms: O_3  and  C_4
REMARK    4  A    between atoms: C_10  and  C_11
REMARK                            x       y       z     vdW  Elec       q    Type
REMARK                         _______ _______ _______ _____ _____    ______ ____
ROOT
ATOM      1  O   UNL     1       3.969   6.604  17.332  0.00  0.00    +0.000 OA
ENDROOT
BRANCH   1   2
ATOM      2  C   UNL     1       5.233   6.000  17.563  0.00  0.00    +0.000 A 
ATOM      3  C   UNL     1       5.903   6.090  18.796  0.00  0.00    +0.000 A 
ATOM      4  C   UNL     1       7.175   5.533  18.968  0.00  0.00    +0.000 A 
ATOM      5  C   UNL     1       7.805   4.837  17.935  0.00  0.00    +0.000 A 
ATOM      6  C   UNL     1       7.085   4.699  16.752  0.00  0.00    +0.000 A 
ATOM      7  O   UNL     1       7.508   4.015  15.656  0.00  0.00    +0.000 OA
ATOM      8  C   UNL     1       6.522   4.106  14.720  0.00  0.00    +0.000 A 
ATOM      9  C   UNL     1       5.473   4.858  15.207  0.00  0.00    +0.000 A 
ATOM     10  C   UNL     1       5.825   5.246  16.530  0.00  0.00    +0.000 A 
BRANCH   8  11
ATOM     11  C   UNL     1       6.581   3.457  13.347  0.00  0.00    +0.000 C 
ATOM     12  C   UNL     1       5.459   3.745  12.371  0.00  0.00    +0.000 C 
ATOM     13  C   UNL     1       6.798   4.358  12.148  0.00  0.00    +0.000 C 
ENDBRANCH   8  11
ENDBRANCH   1   2
BRANCH   1  15
ATOM     14  O   UNL     1       2.182   7.285  18.676  0.00  0.00    +0.000 OA
ATOM     15  C   UNL     1       2.883   6.416  18.178  0.00  0.00    +0.000 C 
BRANCH  15  16
ATOM     16  C   UNL     1       2.540   4.972  18.293  0.00  0.00    +0.000 A 
ATOM     17  C   UNL     1       2.425   4.302  17.059  0.00  0.00    +0.000 A 
ATOM     18  C   UNL     1       2.153   2.941  17.010  0.00  0.00    +0.000 A 
ATOM     19  C   UNL     1       2.015   2.227  18.194  0.00  0.00    +0.000 A 
ATOM     20  C   UNL     1       2.117   2.865  19.439  0.00  0.00    +0.000 A 
ATOM     21  C   UNL     1       1.979   2.106  20.612  0.00  0.00    +0.000 A 
ATOM     22  C   UNL     1       2.041   2.704  21.868  0.00  0.00    +0.000 A 
ATOM     23  C   UNL     1       2.204   4.078  21.965  0.00  0.00    +0.000 A 
ATOM     24  C   UNL     1       2.345   4.849  20.808  0.00  0.00    +0.000 A 
ATOM     25  C   UNL     1       2.348   4.267  19.514  0.00  0.00    +0.000 A 
ENDBRANCH  15  16
ENDBRANCH   1  15
TORSDOF 4
ENDMDL
MODEL 7
REMARK VINA RESULT:      -7.7      4.273      8.067
REMARK  Name = 
REMARK  4 active torsions:
REMARK  status: ('A' for Active; 'I' for Inactive)
REMARK    1  A    between atoms: C_2  and  O_3
REMARK    2  A    between atoms: C_2  and  C_16
REMARK    3  A    between atoms: O_3  and  C_4
REMARK    4  A    between atoms: C_10  and  C_11
REMARK                            x       y       z     vdW  Elec       q    Type
REMARK                         _______ _______ _______ _____ _____    ______ ____
ROOT
ATOM      1  O   UNL     1       1.653   8.612  19.515  0.00  0.00    +0.000 OA
ENDROOT
BRANCH   1   2
ATOM      2  C   UNL     1       0.769   9.578  20.065  0.00  0.00    +0.000 A 
ATOM      3  C   UNL     1       0.871  10.032  21.392  0.00  0.00    +0.000 A 
ATOM      4  C   UNL     1      -0.055  10.938  21.917  0.00  0.00    +0.000 A 
ATOM      5  C   UNL     1      -1.089  11.452  21.133  0.00  0.00    +0.000 A 
ATOM      6  C   UNL     1      -1.119  11.042  19.803  0.00  0.00    +0.000 A 
ATOM      7  O   UNL     1      -2.015  11.470  18.874  0.00  0.00    +0.000 OA
ATOM      8  C   UNL     1      -1.707  10.850  17.702  0.00  0.00    +0.000 A 
ATOM      9  C   UNL     1      -0.624  10.013  17.878  0.00  0.00    +0.000 A 
ATOM     10  C   UNL     1      -0.229  10.134  19.240  0.00  0.00    +0.000 A 
BRANCH   8  11
ATOM     11  C   UNL     1      -2.452  11.066  16.396  0.00  0.00    +0.000 C 
ATOM     12  C   UNL     1      -2.962   9.849  15.652  0.00  0.00    +0.000 C 
ATOM     13  C   UNL     1      -3.929  10.733  16.361  0.00  0.00    +0.000 C 
ENDBRANCH   8  11
ENDBRANCH   1   2
BRANCH   1  15
ATOM     14  O   UNL     1       1.396   6.960  21.148  0.00  0.00    +0.000 OA
ATOM     15  C   UNL     1       1.817   7.348  20.067  0.00  0.00    +0.000 C 
BRANCH  15  16
ATOM     16  C   UNL     1       2.447   6.416  19.093  0.00  0.00    +0.000 A 
ATOM     17  C   UNL     1       3.355   7.029  18.207  0.00  0.00    +0.000 A 
ATOM     18  C   UNL     1       4.054   6.279  17.271  0.00  0.00    +0.000 A 
ATOM     19  C   UNL     1       3.871   4.903  17.222  0.00  0.00    +0.000 A 
ATOM     20  C   UNL     1       2.968   4.262  18.083  0.00  0.00    +0.000 A 
ATOM     21  C   UNL     1       2.818   2.868  18.007  0.00  0.00    +0.000 A 
ATOM     22  C   UNL     1       1.911   2.196  18.820  0.00  0.00    +0.000 A 
ATOM     23  C   UNL     1       1.113   2.917  19.697  0.00  0.00    +0.000 A 
ATOM     24  C   UNL     1       1.250   4.305  19.788  0.00  0.00    +0.000 A 
ATOM     25  C   UNL     1       2.206   5.016  19.019  0.00  0.00    +0.000 A 
ENDBRANCH  15  16
ENDBRANCH   1  15
TORSDOF 4
ENDMDL
MODEL 8
REMARK VINA RESULT:      -7.7      2.952      5.578
REMARK  Name = 
REMARK  4 active torsions:
REMARK  status: ('A' for Active; 'I' for Inactive)
REMARK    1  A    between atoms: C_2  and  O_3
REMARK    2  A    between atoms: C_2  and  C_16
REMARK    3  A    between atoms: O_3  and  C_4
REMARK    4  A    between atoms: C_10  and  C_11
REMARK                            x       y       z     vdW  Elec       q    Type
REMARK                         _______ _______ _______ _____ _____    ______ ____
ROOT
ATOM      1  O   UNL     1       2.577   7.775  19.387  0.00  0.00    +0.000 OA
ENDROOT
BRANCH   1   2
ATOM      2  C   UNL     1       2.485   6.366  19.536  0.00  0.00    +0.000 A 
ATOM      3  C   UNL     1       1.708   5.757  20.538  0.00  0.00    +0.000 A 
ATOM      4  C   UNL     1       1.690   4.367  20.692  0.00  0.00    +0.000 A 
ATOM      5  C   UNL     1       2.411   3.535  19.833  0.00  0.00    +0.000 A 
ATOM      6  C   UNL     1       3.110   4.162  18.806  0.00  0.00    +0.000 A 
ATOM      7  O   UNL     1       3.826   3.521  17.845  0.00  0.00    +0.000 OA
ATOM      8  C   UNL     1       4.346   4.477  17.026  0.00  0.00    +0.000 A 
ATOM      9  C   UNL     1       3.977   5.731  17.466  0.00  0.00    +0.000 A 
ATOM     10  C   UNL     1       3.168   5.539  18.621  0.00  0.00    +0.000 A 
BRANCH   8  11
ATOM     11  C   UNL     1       5.199   4.186  15.802  0.00  0.00    +0.000 C 
ATOM     12  C   UNL     1       5.801   5.358  15.055  0.00  0.00    +0.000 C 
ATOM     13  C   UNL     1       6.681   4.489  15.885  0.00  0.00    +0.000 C 
ENDBRANCH   8  11
ENDBRANCH   1   2
BRANCH   1  15
ATOM     14  O   UNL     1       1.126   8.128  17.590  0.00  0.00    +0.000 OA
ATOM     15  C   UNL     1       1.687   8.505  18.609  0.00  0.00    +0.000 C 
BRANCH  15  16
ATOM     16  C   UNL     1       1.343   9.797  19.261  0.00  0.00    +0.000 A 
ATOM     17  C   UNL     1       1.744  10.938  18.538  0.00  0.00    +0.000 A 
ATOM     18  C   UNL     1       1.451  12.214  19.000  0.00  0.00    +0.000 A 
ATOM     19  C   UNL     1       0.733  12.367  20.180  0.00  0.00    +0.000 A 
ATOM     20  C   UNL     1       0.326  11.253  20.929  0.00  0.00    +0.000 A 
ATOM     21  C   UNL     1      -0.404  11.451  22.112  0.00  0.00    +0.000 A 
ATOM     22  C   UNL     1      -0.800  10.375  22.902  0.00  0.00    +0.000 A 
ATOM     23  C   UNL     1      -0.437   9.087  22.536  0.00  0.00    +0.000 A 
ATOM     24  C   UNL     1       0.288   8.871  21.360  0.00  0.00    +0.000 A 
ATOM     25  C   UNL     1       0.656   9.937  20.500  0.00  0.00    +0.000 A 
ENDBRANCH  15  16
ENDBRANCH   1  15
TORSDOF 4
ENDMDL
MODEL 9
REMARK VINA RESULT:      -7.7      3.027      5.608
REMARK  Name = 
REMARK  4 active torsions:
REMARK  status: ('A' for Active; 'I' for Inactive)
REMARK    1  A    between atoms: C_2  and  O_3
REMARK    2  A    between atoms: C_2  and  C_16
REMARK    3  A    between atoms: O_3  and  C_4
REMARK    4  A    between atoms: C_10  and  C_11
REMARK                            x       y       z     vdW  Elec       q    Type
REMARK                         _______ _______ _______ _____ _____    ______ ____
ROOT
ATOM      1  O   UNL     1       1.974   6.674  20.812  0.00  0.00    +0.000 OA
ENDROOT
BRANCH   1   2
ATOM      2  C   UNL     1       2.130   5.396  20.213  0.00  0.00    +0.000 A 
ATOM      3  C   UNL     1       1.086   4.457  20.143  0.00  0.00    +0.000 A 
ATOM      4  C   UNL     1       1.295   3.186  19.600  0.00  0.00    +0.000 A 
ATOM      5  C   UNL     1       2.535   2.818  19.075  0.00  0.00    +0.000 A 
ATOM      6  C   UNL     1       3.527   3.794  19.091  0.00  0.00    +0.000 A 
ATOM      7  O   UNL     1       4.779   3.642  18.582  0.00  0.00    +0.000 OA
ATOM      8  C   UNL     1       5.439   4.817  18.780  0.00  0.00    +0.000 A 
ATOM      9  C   UNL     1       4.619   5.718  19.428  0.00  0.00    +0.000 A 
ATOM     10  C   UNL     1       3.370   5.065  19.631  0.00  0.00    +0.000 A 
BRANCH   8  11
ATOM     11  C   UNL     1       6.867   5.083  18.338  0.00  0.00    +0.000 C 
ATOM     12  C   UNL     1       7.329   4.495  17.020  0.00  0.00    +0.000 C 
ATOM     13  C   UNL     1       7.079   5.960  17.120  0.00  0.00    +0.000 C 
ENDBRANCH   8  11
ENDBRANCH   1   2
BRANCH   1  15
ATOM     14  O   UNL     1       2.144   8.024  18.912  0.00  0.00    +0.000 OA
ATOM     15  C   UNL     1       1.790   7.832  20.067  0.00  0.00    +0.000 C 
BRANCH  15  16
ATOM     16  C   UNL     1       0.931   8.805  20.795  0.00  0.00    +0.000 A 
ATOM     17  C   UNL     1       0.994   8.698  22.199  0.00  0.00    +0.000 A 
ATOM     18  C   UNL     1       0.282   9.569  23.013  0.00  0.00    +0.000 A 
ATOM     19  C   UNL     1      -0.485  10.574  22.435  0.00  0.00    +0.000 A 
ATOM     20  C   UNL     1      -0.575  10.703  21.041  0.00  0.00    +0.000 A 
ATOM     21  C   UNL     1      -1.355  11.737  20.497  0.00  0.00    +0.000 A 
ATOM     22  C   UNL     1      -1.498  11.882  19.120  0.00  0.00    +0.000 A 
ATOM     23  C   UNL     1      -0.892  10.969  18.268  0.00  0.00    +0.000 A 
ATOM     24  C   UNL     1      -0.110   9.935  18.792  0.00  0.00    +0.000 A 
ATOM     25  C   UNL     1       0.108   9.793  20.186  0.00  0.00    +0.000 A 
ENDBRANCH  15  16
ENDBRANCH   1  15
TORSDOF 4
ENDMDL
