MODEL 1
REMARK VINA RESULT:      -8.7      0.000      0.000
REMARK  Name = 
REMARK  5 active torsions:
REMARK  status: ('A' for Active; 'I' for Inactive)
REMARK    1  A    between atoms: C_2  and  C_5
REMARK    2  A    between atoms: C_8  and  N_9
REMARK    3  A    between atoms: N_9  and  C_10
REMARK    4  A    between atoms: N_19  and  C_20
REMARK    5  A    between atoms: C_20  and  C_21
REMARK                            x       y       z     vdW  Elec       q    Type
REMARK                         _______ _______ _______ _____ _____    ______ ____
ROOT
ATOM      1  C   UNL     1      -0.211  10.550  19.776  0.00  0.00    +0.000 A 
ATOM      2  N   UNL     1      -0.363  10.405  21.120  0.00  0.00    +0.000 NA
ATOM      3  C   UNL     1       0.327   9.448  21.759  0.00  0.00    +0.000 A 
ATOM      4 CL   UNL     1       0.090   9.384  23.451  0.00  0.00    +0.000 Cl
ATOM      5  N   UNL     1       1.195   8.560  21.256  0.00  0.00    +0.000 NA
ATOM      6  C   UNL     1       1.317   8.724  19.930  0.00  0.00    +0.000 A 
ATOM      7  C   UNL     1       0.667   9.653  19.130  0.00  0.00    +0.000 A 
ATOM      8  N   UNL     1       1.055   9.510  17.813  0.00  0.00    +0.000 NA
ATOM      9  C   UNL     1       1.922   8.515  17.820  0.00  0.00    +0.000 A 
ATOM     10  N   UNL     1       2.124   8.020  19.082  0.00  0.00    +0.000 N 
ENDROOT
BRANCH   1  11
ATOM     11  N   UNL     1      -0.865  11.579  19.068  0.00  0.00    +0.000 N 
ATOM     12  H   UNL     1      -0.357  12.455  19.142  0.00  0.00    +0.000 HD
BRANCH  11  16
ATOM     13  C   UNL     1      -5.052  11.794  18.381  0.00  0.00    +0.000 A 
ATOM     14  C   UNL     1      -4.467  12.393  19.504  0.00  0.00    +0.000 A 
ATOM     15  C   UNL     1      -3.079  12.354  19.695  0.00  0.00    +0.000 A 
ATOM     16  C   UNL     1      -2.239  11.702  18.781  0.00  0.00    +0.000 A 
ATOM     17  C   UNL     1      -2.831  11.177  17.627  0.00  0.00    +0.000 A 
ATOM     18  C   UNL     1      -4.214  11.204  17.432  0.00  0.00    +0.000 A 
BRANCH  13  20
ATOM     19  F   UNL     1      -7.056  10.494  18.115  0.00  0.00    +0.000 F 
ATOM     20  C   UNL     1      -6.545  11.756  18.179  0.00  0.00    +0.000 C 
ATOM     21  F   UNL     1      -6.929  12.369  17.024  0.00  0.00    +0.000 F 
ATOM     22  F   UNL     1      -7.225  12.385  19.177  0.00  0.00    +0.000 F 
ENDBRANCH  13  20
ENDBRANCH  11  16
ENDBRANCH   1  11
BRANCH  10  23
ATOM     23  C   UNL     1       2.924   6.864  19.445  0.00  0.00    +0.000 C 
BRANCH  23  24
ATOM     24  C   UNL     1       2.169   5.557  19.375  0.00  0.00    +0.000 A 
ATOM     25  C   UNL     1       2.044   4.845  18.172  0.00  0.00    +0.000 A 
ATOM     26  C   UNL     1       1.433   3.590  18.148  0.00  0.00    +0.000 A 
ATOM     27  C   UNL     1       0.946   3.025  19.325  0.00  0.00    +0.000 A 
ATOM     28  C   UNL     1       1.058   3.722  20.525  0.00  0.00    +0.000 A 
ATOM     29  C   UNL     1       1.663   4.981  20.551  0.00  0.00    +0.000 A 
ENDBRANCH  23  24
ENDBRANCH  10  23
TORSDOF 5
ENDMDL
MODEL 2
REMARK VINA RESULT:      -8.5      4.277      8.099
REMARK  Name = 
REMARK  5 active torsions:
REMARK  status: ('A' for Active; 'I' for Inactive)
REMARK    1  A    between atoms: C_2  and  C_5
REMARK    2  A    between atoms: C_8  and  N_9
REMARK    3  A    between atoms: N_9  and  C_10
REMARK    4  A    between atoms: N_19  and  C_20
REMARK    5  A    between atoms: C_20  and  C_21
REMARK                            x       y       z     vdW  Elec       q    Type
REMARK                         _______ _______ _______ _____ _____    ______ ____
ROOT
ATOM      1  C   UNL     1       1.385   8.523  20.764  0.00  0.00    +0.000 A 
ATOM      2  N   UNL     1       0.751   8.838  21.925  0.00  0.00    +0.000 NA
ATOM      3  C   UNL     1      -0.145   9.837  21.935  0.00  0.00    +0.000 A 
ATOM      4 CL   UNL     1      -0.908  10.119  23.439  0.00  0.00    +0.000 Cl
ATOM      5  N   UNL     1      -0.539  10.620  20.922  0.00  0.00    +0.000 NA
ATOM      6  C   UNL     1       0.108  10.290  19.795  0.00  0.00    +0.000 A 
ATOM      7  C   UNL     1       1.062   9.297  19.628  0.00  0.00    +0.000 A 
ATOM      8  N   UNL     1       1.497   9.261  18.318  0.00  0.00    +0.000 NA
ATOM      9  C   UNL     1       0.817  10.214  17.709  0.00  0.00    +0.000 A 
ATOM     10  N   UNL     1      -0.048  10.851  18.558  0.00  0.00    +0.000 N 
ENDROOT
BRANCH   1  11
ATOM     11  N   UNL     1       2.287   7.442  20.687  0.00  0.00    +0.000 N 
ATOM     12  H   UNL     1       3.249   7.765  20.730  0.00  0.00    +0.000 HD
BRANCH  11  16
ATOM     13  C   UNL     1       1.858   3.575  18.980  0.00  0.00    +0.000 A 
ATOM     14  C   UNL     1       1.233   3.911  20.188  0.00  0.00    +0.000 A 
ATOM     15  C   UNL     1       1.345   5.205  20.717  0.00  0.00    +0.000 A 
ATOM     16  C   UNL     1       2.097   6.192  20.065  0.00  0.00    +0.000 A 
ATOM     17  C   UNL     1       2.650   5.863  18.822  0.00  0.00    +0.000 A 
ATOM     18  C   UNL     1       2.551   4.574  18.292  0.00  0.00    +0.000 A 
BRANCH  13  20
ATOM     19  F   UNL     1       2.224   2.099  17.120  0.00  0.00    +0.000 F 
ATOM     20  C   UNL     1       1.817   2.179  18.418  0.00  0.00    +0.000 C 
ATOM     21  F   UNL     1       0.564   1.644  18.445  0.00  0.00    +0.000 F 
ATOM     22  F   UNL     1       2.606   1.311  19.111  0.00  0.00    +0.000 F 
ENDBRANCH  13  20
ENDBRANCH  11  16
ENDBRANCH   1  11
BRANCH  10  23
ATOM     23  C   UNL     1      -0.869  12.010  18.256  0.00  0.00    +0.000 C 
BRANCH  23  24
ATOM     24  C   UNL     1      -2.302  11.667  17.919  0.00  0.00    +0.000 A 
ATOM     25  C   UNL     1      -3.351  11.942  18.810  0.00  0.00    +0.000 A 
ATOM     26  C   UNL     1      -4.678  11.715  18.439  0.00  0.00    +0.000 A 
ATOM     27  C   UNL     1      -4.976  11.218  17.172  0.00  0.00    +0.000 A 
ATOM     28  C   UNL     1      -3.945  10.936  16.280  0.00  0.00    +0.000 A 
ATOM     29  C   UNL     1      -2.616  11.156  16.650  0.00  0.00    +0.000 A 
ENDBRANCH  23  24
ENDBRANCH  10  23
TORSDOF 5
ENDMDL
MODEL 3
REMARK VINA RESULT:      -8.3      4.263      7.996
REMARK  Name = 
REMARK  5 active torsions:
REMARK  status: ('A' for Active; 'I' for Inactive)
REMARK    1  A    between atoms: C_2  and  C_5
REMARK    2  A    between atoms: C_8  and  N_9
REMARK    3  A    between atoms: N_9  and  C_10
REMARK    4  A    between atoms: N_19  and  C_20
REMARK    5  A    between atoms: C_20  and  C_21
REMARK                            x       y       z     vdW  Elec       q    Type
REMARK                         _______ _______ _______ _____ _____    ______ ____
ROOT
ATOM      1  C   UNL     1       1.313   8.577  20.847  0.00  0.00    +0.000 A 
ATOM      2  N   UNL     1       0.646   8.900  21.987  0.00  0.00    +0.000 NA
ATOM      3  C   UNL     1      -0.234   9.912  21.968  0.00  0.00    +0.000 A 
ATOM      4 CL   UNL     1      -1.044  10.203  23.447  0.00  0.00    +0.000 Cl
ATOM      5  N   UNL     1      -0.583  10.703  20.945  0.00  0.00    +0.000 NA
ATOM      6  C   UNL     1       0.097  10.365  19.839  0.00  0.00    +0.000 A 
ATOM      7  C   UNL     1       1.041   9.358  19.702  0.00  0.00    +0.000 A 
ATOM      8  N   UNL     1       1.518   9.318  18.408  0.00  0.00    +0.000 NA
ATOM      9  C   UNL     1       0.874  10.282  17.778  0.00  0.00    +0.000 A 
ATOM     10  N   UNL     1      -0.009  10.931  18.600  0.00  0.00    +0.000 N 
ENDROOT
BRANCH   1  11
ATOM     11  N   UNL     1       2.201   7.483  20.797  0.00  0.00    +0.000 N 
ATOM     12  H   UNL     1       3.166   7.790  20.885  0.00  0.00    +0.000 HD
BRANCH  11  16
ATOM     13  C   UNL     1       1.808   3.646  19.016  0.00  0.00    +0.000 A 
ATOM     14  C   UNL     1       1.235   3.932  20.262  0.00  0.00    +0.000 A 
ATOM     15  C   UNL     1       1.333   5.216  20.817  0.00  0.00    +0.000 A 
ATOM     16  C   UNL     1       2.020   6.243  20.154  0.00  0.00    +0.000 A 
ATOM     17  C   UNL     1       2.518   5.962  18.877  0.00  0.00    +0.000 A 
ATOM     18  C   UNL     1       2.433   4.683  18.319  0.00  0.00    +0.000 A 
BRANCH  13  20
ATOM     19  F   UNL     1       0.541   1.700  18.396  0.00  0.00    +0.000 F 
ATOM     20  C   UNL     1       1.782   2.263  18.421  0.00  0.00    +0.000 C 
ATOM     21  F   UNL     1       2.570   1.387  19.107  0.00  0.00    +0.000 F 
ATOM     22  F   UNL     1       2.230   2.236  17.135  0.00  0.00    +0.000 F 
ENDBRANCH  13  20
ENDBRANCH  11  16
ENDBRANCH   1  11
BRANCH  10  23
ATOM     23  C   UNL     1      -0.803  12.102  18.273  0.00  0.00    +0.000 C 
BRANCH  23  24
ATOM     24  C   UNL     1      -2.228  11.782  17.886  0.00  0.00    +0.000 A 
ATOM     25  C   UNL     1      -2.538  11.202  16.646  0.00  0.00    +0.000 A 
ATOM     26  C   UNL     1      -3.847  10.817  16.347  0.00  0.00    +0.000 A 
ATOM     27  C   UNL     1      -4.861  11.000  17.284  0.00  0.00    +0.000 A 
ATOM     28  C   UNL     1      -4.569  11.580  18.516  0.00  0.00    +0.000 A 
ATOM     29  C   UNL     1      -3.262  11.971  18.816  0.00  0.00    +0.000 A 
ENDBRANCH  23  24
ENDBRANCH  10  23
TORSDOF 5
ENDMDL
MODEL 4
REMARK VINA RESULT:      -8.3      0.451      1.048
REMARK  Name = 
REMARK  5 active torsions:
REMARK  status: ('A' for Active; 'I' for Inactive)
REMARK    1  A    between atoms: C_2  and  C_5
REMARK    2  A    between atoms: C_8  and  N_9
REMARK    3  A    between atoms: N_9  and  C_10
REMARK    4  A    between atoms: N_19  and  C_20
REMARK    5  A    between atoms: C_20  and  C_21
REMARK                            x       y       z     vdW  Elec       q    Type
REMARK                         _______ _______ _______ _____ _____    ______ ____
ROOT
ATOM      1  C   UNL     1      -0.240  10.544  19.819  0.00  0.00    +0.000 A 
ATOM      2  N   UNL     1      -0.357  10.395  21.166  0.00  0.00    +0.000 NA
ATOM      3  C   UNL     1       0.362   9.448  21.786  0.00  0.00    +0.000 A 
ATOM      4 CL   UNL     1       0.166   9.377  23.484  0.00  0.00    +0.000 Cl
ATOM      5  N   UNL     1       1.231   8.574  21.261  0.00  0.00    +0.000 NA
ATOM      6  C   UNL     1       1.318   8.741  19.933  0.00  0.00    +0.000 A 
ATOM      7  C   UNL     1       0.637   9.662  19.151  0.00  0.00    +0.000 A 
ATOM      8  N   UNL     1       0.995   9.526  17.824  0.00  0.00    +0.000 NA
ATOM      9  C   UNL     1       1.876   8.544  17.809  0.00  0.00    +0.000 A 
ATOM     10  N   UNL     1       2.116   8.051  19.065  0.00  0.00    +0.000 N 
ENDROOT
BRANCH   1  11
ATOM     11  N   UNL     1      -0.925  11.564  19.128  0.00  0.00    +0.000 N 
ATOM     12  H   UNL     1      -0.367  12.412  19.079  0.00  0.00    +0.000 HD
BRANCH  11  16
ATOM     13  C   UNL     1      -5.077  12.283  18.584  0.00  0.00    +0.000 A 
ATOM     14  C   UNL     1      -4.339  11.541  17.653  0.00  0.00    +0.000 A 
ATOM     15  C   UNL     1      -2.979  11.273  17.867  0.00  0.00    +0.000 A 
ATOM     16  C   UNL     1      -2.317  11.751  19.007  0.00  0.00    +0.000 A 
ATOM     17  C   UNL     1      -3.086  12.422  19.963  0.00  0.00    +0.000 A 
ATOM     18  C   UNL     1      -4.439  12.702  19.754  0.00  0.00    +0.000 A 
BRANCH  13  20
ATOM     19  F   UNL     1      -7.129  11.898  17.393  0.00  0.00    +0.000 F 
ATOM     20  C   UNL     1      -6.520  12.650  18.353  0.00  0.00    +0.000 C 
ATOM     21  F   UNL     1      -6.670  13.946  17.958  0.00  0.00    +0.000 F 
ATOM     22  F   UNL     1      -7.282  12.513  19.474  0.00  0.00    +0.000 F 
ENDBRANCH  13  20
ENDBRANCH  11  16
ENDBRANCH   1  11
BRANCH  10  23
ATOM     23  C   UNL     1       2.941   6.906  19.407  0.00  0.00    +0.000 C 
BRANCH  23  24
ATOM     24  C   UNL     1       2.196   5.592  19.386  0.00  0.00    +0.000 A 
ATOM     25  C   UNL     1       2.019   4.867  18.196  0.00  0.00    +0.000 A 
ATOM     26  C   UNL     1       1.419   3.607  18.212  0.00  0.00    +0.000 A 
ATOM     27  C   UNL     1       0.995   3.049  19.417  0.00  0.00    +0.000 A 
ATOM     28  C   UNL     1       1.159   3.758  20.603  0.00  0.00    +0.000 A 
ATOM     29  C   UNL     1       1.753   5.021  20.590  0.00  0.00    +0.000 A 
ENDBRANCH  23  24
ENDBRANCH  10  23
TORSDOF 5
ENDMDL
MODEL 5
REMARK VINA RESULT:      -8.2      0.418      1.351
REMARK  Name = 
REMARK  5 active torsions:
REMARK  status: ('A' for Active; 'I' for Inactive)
REMARK    1  A    between atoms: C_2  and  C_5
REMARK    2  A    between atoms: C_8  and  N_9
REMARK    3  A    between atoms: N_9  and  C_10
REMARK    4  A    between atoms: N_19  and  C_20
REMARK    5  A    between atoms: C_20  and  C_21
REMARK                            x       y       z     vdW  Elec       q    Type
REMARK                         _______ _______ _______ _____ _____    ______ ____
ROOT
ATOM      1  C   UNL     1      -0.255  10.517  19.681  0.00  0.00    +0.000 A 
ATOM      2  N   UNL     1      -0.418  10.385  21.025  0.00  0.00    +0.000 NA
ATOM      3  C   UNL     1       0.298   9.463  21.686  0.00  0.00    +0.000 A 
ATOM      4 CL   UNL     1       0.042   9.414  23.376  0.00  0.00    +0.000 Cl
ATOM      5  N   UNL     1       1.204   8.601  21.206  0.00  0.00    +0.000 NA
ATOM      6  C   UNL     1       1.336   8.750  19.879  0.00  0.00    +0.000 A 
ATOM      7  C   UNL     1       0.664   9.644  19.058  0.00  0.00    +0.000 A 
ATOM      8  N   UNL     1       1.073   9.497  17.748  0.00  0.00    +0.000 NA
ATOM      9  C   UNL     1       1.975   8.533  17.781  0.00  0.00    +0.000 A 
ATOM     10  N   UNL     1       2.179   8.064  19.051  0.00  0.00    +0.000 N 
ENDROOT
BRANCH   1  11
ATOM     11  N   UNL     1      -0.936  11.512  18.950  0.00  0.00    +0.000 N 
ATOM     12  H   UNL     1      -0.398  12.372  18.912  0.00  0.00    +0.000 HD
BRANCH  11  16
ATOM     13  C   UNL     1      -5.079  12.133  18.241  0.00  0.00    +0.000 A 
ATOM     14  C   UNL     1      -4.273  11.467  17.308  0.00  0.00    +0.000 A 
ATOM     15  C   UNL     1      -2.917  11.228  17.575  0.00  0.00    +0.000 A 
ATOM     16  C   UNL     1      -2.326  11.662  18.770  0.00  0.00    +0.000 A 
ATOM     17  C   UNL     1      -3.162  12.255  19.722  0.00  0.00    +0.000 A 
ATOM     18  C   UNL     1      -4.512  12.505  19.462  0.00  0.00    +0.000 A 
BRANCH  13  20
ATOM     19  F   UNL     1      -7.401  11.548  18.444  0.00  0.00    +0.000 F 
ATOM     20  C   UNL     1      -6.520  12.468  17.959  0.00  0.00    +0.000 C 
ATOM     21  F   UNL     1      -6.781  12.561  16.625  0.00  0.00    +0.000 F 
ATOM     22  F   UNL     1      -6.896  13.662  18.495  0.00  0.00    +0.000 F 
ENDBRANCH  13  20
ENDBRANCH  11  16
ENDBRANCH   1  11
BRANCH  10  23
ATOM     23  C   UNL     1       3.015   6.943  19.441  0.00  0.00    +0.000 C 
BRANCH  23  24
ATOM     24  C   UNL     1       2.314   5.607  19.364  0.00  0.00    +0.000 A 
ATOM     25  C   UNL     1       1.721   5.023  20.494  0.00  0.00    +0.000 A 
ATOM     26  C   UNL     1       0.988   3.840  20.384  0.00  0.00    +0.000 A 
ATOM     27  C   UNL     1       0.831   3.227  19.142  0.00  0.00    +0.000 A 
ATOM     28  C   UNL     1       1.418   3.792  18.013  0.00  0.00    +0.000 A 
ATOM     29  C   UNL     1       2.156   4.972  18.121  0.00  0.00    +0.000 A 
ENDBRANCH  23  24
ENDBRANCH  10  23
TORSDOF 5
ENDMDL
MODEL 6
REMARK VINA RESULT:      -8.2      4.102      4.769
REMARK  Name = 
REMARK  5 active torsions:
REMARK  status: ('A' for Active; 'I' for Inactive)
REMARK    1  A    between atoms: C_2  and  C_5
REMARK    2  A    between atoms: C_8  and  N_9
REMARK    3  A    between atoms: N_9  and  C_10
REMARK    4  A    between atoms: N_19  and  C_20
REMARK    5  A    between atoms: C_20  and  C_21
REMARK                            x       y       z     vdW  Elec       q    Type
REMARK                         _______ _______ _______ _____ _____    ______ ____
ROOT
ATOM      1  C   UNL     1       0.529  10.369  19.279  0.00  0.00    +0.000 A 
ATOM      2  N   UNL     1       0.103  10.262  20.566  0.00  0.00    +0.000 NA
ATOM      3  C   UNL     1       0.526   9.232  21.314  0.00  0.00    +0.000 A 
ATOM      4 CL   UNL     1      -0.042   9.220  22.928  0.00  0.00    +0.000 Cl
ATOM      5  N   UNL     1       1.351   8.232  20.977  0.00  0.00    +0.000 NA
ATOM      6  C   UNL     1       1.748   8.362  19.702  0.00  0.00    +0.000 A 
ATOM      7  C   UNL     1       1.392   9.357  18.804  0.00  0.00    +0.000 A 
ATOM      8  N   UNL     1       2.006   9.148  17.585  0.00  0.00    +0.000 NA
ATOM      9  C   UNL     1       2.718   8.049  17.748  0.00  0.00    +0.000 A 
ATOM     10  N   UNL     1       2.606   7.548  19.018  0.00  0.00    +0.000 N 
ENDROOT
BRANCH   1  11
ATOM     11  N   UNL     1       0.165  11.465  18.471  0.00  0.00    +0.000 N 
ATOM     12  H   UNL     1      -0.079  11.162  17.532  0.00  0.00    +0.000 HD
BRANCH  11  16
ATOM     13  C   UNL     1       1.318  15.552  18.595  0.00  0.00    +0.000 A 
ATOM     14  C   UNL     1      -0.017  15.167  18.776  0.00  0.00    +0.000 A 
ATOM     15  C   UNL     1      -0.377  13.812  18.779  0.00  0.00    +0.000 A 
ATOM     16  C   UNL     1       0.581  12.806  18.583  0.00  0.00    +0.000 A 
ATOM     17  C   UNL     1       1.918  13.204  18.481  0.00  0.00    +0.000 A 
ATOM     18  C   UNL     1       2.285  14.553  18.469  0.00  0.00    +0.000 A 
BRANCH  13  20
ATOM     19  F   UNL     1       1.581  17.545  17.277  0.00  0.00    +0.000 F 
ATOM     20  C   UNL     1       1.730  16.999  18.517  0.00  0.00    +0.000 C 
ATOM     21  F   UNL     1       3.040  17.184  18.846  0.00  0.00    +0.000 F 
ATOM     22  F   UNL     1       1.019  17.793  19.363  0.00  0.00    +0.000 F 
ENDBRANCH  13  20
ENDBRANCH  11  16
ENDBRANCH   1  11
BRANCH  10  23
ATOM     23  C   UNL     1       3.163   6.302  19.514  0.00  0.00    +0.000 C 
BRANCH  23  24
ATOM     24  C   UNL     1       2.242   5.116  19.348  0.00  0.00    +0.000 A 
ATOM     25  C   UNL     1       2.115   4.452  18.118  0.00  0.00    +0.000 A 
ATOM     26  C   UNL     1       1.340   3.296  18.009  0.00  0.00    +0.000 A 
ATOM     27  C   UNL     1       0.687   2.783  19.128  0.00  0.00    +0.000 A 
ATOM     28  C   UNL     1       0.800   3.434  20.353  0.00  0.00    +0.000 A 
ATOM     29  C   UNL     1       1.569   4.594  20.464  0.00  0.00    +0.000 A 
ENDBRANCH  23  24
ENDBRANCH  10  23
TORSDOF 5
ENDMDL
MODEL 7
REMARK VINA RESULT:      -8.2      4.318      5.065
REMARK  Name = 
REMARK  5 active torsions:
REMARK  status: ('A' for Active; 'I' for Inactive)
REMARK    1  A    between atoms: C_2  and  C_5
REMARK    2  A    between atoms: C_8  and  N_9
REMARK    3  A    between atoms: N_9  and  C_10
REMARK    4  A    between atoms: N_19  and  C_20
REMARK    5  A    between atoms: C_20  and  C_21
REMARK                            x       y       z     vdW  Elec       q    Type
REMARK                         _______ _______ _______ _____ _____    ______ ____
ROOT
ATOM      1  C   UNL     1       0.495  10.417  19.325  0.00  0.00    +0.000 A 
ATOM      2  N   UNL     1       0.112  10.329  20.627  0.00  0.00    +0.000 NA
ATOM      3  C   UNL     1       0.557   9.309  21.375  0.00  0.00    +0.000 A 
ATOM      4 CL   UNL     1       0.044   9.322  23.006  0.00  0.00    +0.000 Cl
ATOM      5  N   UNL     1       1.370   8.303  21.025  0.00  0.00    +0.000 NA
ATOM      6  C   UNL     1       1.724   8.414  19.736  0.00  0.00    +0.000 A 
ATOM      7  C   UNL     1       1.340   9.397  18.836  0.00  0.00    +0.000 A 
ATOM      8  N   UNL     1       1.913   9.169  17.601  0.00  0.00    +0.000 NA
ATOM      9  C   UNL     1       2.628   8.070  17.755  0.00  0.00    +0.000 A 
ATOM     10  N   UNL     1       2.557   7.589  19.035  0.00  0.00    +0.000 N 
ENDROOT
BRANCH   1  11
ATOM     11  N   UNL     1       0.105  11.502  18.513  0.00  0.00    +0.000 N 
ATOM     12  H   UNL     1      -0.324  11.179  17.651  0.00  0.00    +0.000 HD
BRANCH  11  16
ATOM     13  C   UNL     1       1.906  15.350  18.558  0.00  0.00    +0.000 A 
ATOM     14  C   UNL     1       2.645  14.204  18.233  0.00  0.00    +0.000 A 
ATOM     15  C   UNL     1       2.028  12.947  18.177  0.00  0.00    +0.000 A 
ATOM     16  C   UNL     1       0.663  12.795  18.461  0.00  0.00    +0.000 A 
ATOM     17  C   UNL     1      -0.075  13.958  18.707  0.00  0.00    +0.000 A 
ATOM     18  C   UNL     1       0.533  15.214  18.773  0.00  0.00    +0.000 A 
BRANCH  13  20
ATOM     19  F   UNL     1       3.506  16.762  19.665  0.00  0.00    +0.000 F 
ATOM     20  C   UNL     1       2.549  16.705  18.695  0.00  0.00    +0.000 C 
ATOM     21  F   UNL     1       1.648  17.678  19.009  0.00  0.00    +0.000 F 
ATOM     22  F   UNL     1       3.156  17.117  17.548  0.00  0.00    +0.000 F 
ENDBRANCH  13  20
ENDBRANCH  11  16
ENDBRANCH   1  11
BRANCH  10  23
ATOM     23  C   UNL     1       3.128   6.349  19.531  0.00  0.00    +0.000 C 
BRANCH  23  24
ATOM     24  C   UNL     1       2.233   5.147  19.336  0.00  0.00    +0.000 A 
ATOM     25  C   UNL     1       2.163   4.477  18.105  0.00  0.00    +0.000 A 
ATOM     26  C   UNL     1       1.411   3.307  17.972  0.00  0.00    +0.000 A 
ATOM     27  C   UNL     1       0.726   2.788  19.069  0.00  0.00    +0.000 A 
ATOM     28  C   UNL     1       0.783   3.445  20.295  0.00  0.00    +0.000 A 
ATOM     29  C   UNL     1       1.528   4.618  20.429  0.00  0.00    +0.000 A 
ENDBRANCH  23  24
ENDBRANCH  10  23
TORSDOF 5
ENDMDL
MODEL 8
REMARK VINA RESULT:      -8.1      8.797     10.373
REMARK  Name = 
REMARK  5 active torsions:
REMARK  status: ('A' for Active; 'I' for Inactive)
REMARK    1  A    between atoms: C_2  and  C_5
REMARK    2  A    between atoms: C_8  and  N_9
REMARK    3  A    between atoms: N_9  and  C_10
REMARK    4  A    between atoms: N_19  and  C_20
REMARK    5  A    between atoms: C_20  and  C_21
REMARK                            x       y       z     vdW  Elec       q    Type
REMARK                         _______ _______ _______ _____ _____    ______ ____
ROOT
ATOM      1  C   UNL     1       7.556   7.519  17.789  0.00  0.00    +0.000 A 
ATOM      2  N   UNL     1       8.173   6.951  18.860  0.00  0.00    +0.000 NA
ATOM      3  C   UNL     1       7.868   5.690  19.201  0.00  0.00    +0.000 A 
ATOM      4 CL   UNL     1       8.733   5.066  20.538  0.00  0.00    +0.000 Cl
ATOM      5  N   UNL     1       7.002   4.849  18.620  0.00  0.00    +0.000 NA
ATOM      6  C   UNL     1       6.406   5.440  17.573  0.00  0.00    +0.000 A 
ATOM      7  C   UNL     1       6.605   6.730  17.105  0.00  0.00    +0.000 A 
ATOM      8  N   UNL     1       5.807   6.972  16.005  0.00  0.00    +0.000 NA
ATOM      9  C   UNL     1       5.142   5.848  15.813  0.00  0.00    +0.000 A 
ATOM     10  N   UNL     1       5.486   4.887  16.728  0.00  0.00    +0.000 N 
ENDROOT
BRANCH   1  11
ATOM     11  N   UNL     1       7.886   8.818  17.351  0.00  0.00    +0.000 N 
ATOM     12  H   UNL     1       8.085   8.829  16.355  0.00  0.00    +0.000 HD
BRANCH  11  16
ATOM     13  C   UNL     1       9.804  11.993  19.423  0.00  0.00    +0.000 A 
ATOM     14  C   UNL     1       9.102  12.220  18.232  0.00  0.00    +0.000 A 
ATOM     15  C   UNL     1       8.435  11.172  17.583  0.00  0.00    +0.000 A 
ATOM     16  C   UNL     1       8.465   9.866  18.094  0.00  0.00    +0.000 A 
ATOM     17  C   UNL     1       9.104   9.672  19.323  0.00  0.00    +0.000 A 
ATOM     18  C   UNL     1       9.779  10.709  19.973  0.00  0.00    +0.000 A 
BRANCH  13  20
ATOM     19  F   UNL     1      10.287  13.221  21.431  0.00  0.00    +0.000 F 
ATOM     20  C   UNL     1      10.589  13.079  20.110  0.00  0.00    +0.000 C 
ATOM     21  F   UNL     1      10.381  14.304  19.550  0.00  0.00    +0.000 F 
ATOM     22  F   UNL     1      11.934  12.870  20.055  0.00  0.00    +0.000 F 
ENDBRANCH  13  20
ENDBRANCH  11  16
ENDBRANCH   1  11
BRANCH  10  23
ATOM     23  C   UNL     1       4.881   3.576  16.881  0.00  0.00    +0.000 C 
BRANCH  23  24
ATOM     24  C   UNL     1       3.731   3.548  17.860  0.00  0.00    +0.000 A 
ATOM     25  C   UNL     1       2.444   3.974  17.493  0.00  0.00    +0.000 A 
ATOM     26  C   UNL     1       1.372   3.844  18.378  0.00  0.00    +0.000 A 
ATOM     27  C   UNL     1       1.567   3.280  19.637  0.00  0.00    +0.000 A 
ATOM     28  C   UNL     1       2.839   2.858  20.016  0.00  0.00    +0.000 A 
ATOM     29  C   UNL     1       3.914   2.992  19.136  0.00  0.00    +0.000 A 
ENDBRANCH  23  24
ENDBRANCH  10  23
TORSDOF 5
ENDMDL
MODEL 9
REMARK VINA RESULT:      -8.0      4.069      8.060
REMARK  Name = 
REMARK  5 active torsions:
REMARK  status: ('A' for Active; 'I' for Inactive)
REMARK    1  A    between atoms: C_2  and  C_5
REMARK    2  A    between atoms: C_8  and  N_9
REMARK    3  A    between atoms: N_9  and  C_10
REMARK    4  A    between atoms: N_19  and  C_20
REMARK    5  A    between atoms: C_20  and  C_21
REMARK                            x       y       z     vdW  Elec       q    Type
REMARK                         _______ _______ _______ _____ _____    ______ ____
ROOT
ATOM      1  C   UNL     1       1.508   8.552  20.610  0.00  0.00    +0.000 A 
ATOM      2  N   UNL     1       0.826   8.711  21.776  0.00  0.00    +0.000 NA
ATOM      3  C   UNL     1      -0.141   9.638  21.851  0.00  0.00    +0.000 A 
ATOM      4 CL   UNL     1      -0.957   9.721  23.351  0.00  0.00    +0.000 Cl
ATOM      5  N   UNL     1      -0.570  10.482  20.903  0.00  0.00    +0.000 NA
ATOM      6  C   UNL     1       0.125  10.306  19.770  0.00  0.00    +0.000 A 
ATOM      7  C   UNL     1       1.154   9.404  19.540  0.00  0.00    +0.000 A 
ATOM      8  N   UNL     1       1.619   9.523  18.246  0.00  0.00    +0.000 NA
ATOM      9  C   UNL     1       0.884  10.477  17.707  0.00  0.00    +0.000 A 
ATOM     10  N   UNL     1      -0.044  10.968  18.586  0.00  0.00    +0.000 N 
ENDROOT
BRANCH   1  11
ATOM     11  N   UNL     1       2.489   7.552  20.460  0.00  0.00    +0.000 N 
ATOM     12  H   UNL     1       3.400   7.958  20.265  0.00  0.00    +0.000 HD
BRANCH  11  16
ATOM     13  C   UNL     1       1.760   3.605  19.067  0.00  0.00    +0.000 A 
ATOM     14  C   UNL     1       2.076   4.643  18.180  0.00  0.00    +0.000 A 
ATOM     15  C   UNL     1       2.359   5.930  18.657  0.00  0.00    +0.000 A 
ATOM     16  C   UNL     1       2.318   6.221  20.028  0.00  0.00    +0.000 A 
ATOM     17  C   UNL     1       2.078   5.157  20.904  0.00  0.00    +0.000 A 
ATOM     18  C   UNL     1       1.786   3.872  20.438  0.00  0.00    +0.000 A 
BRANCH  13  20
ATOM     19  F   UNL     1       0.046   2.071  18.370  0.00  0.00    +0.000 F 
ATOM     20  C   UNL     1       1.382   2.228  18.587  0.00  0.00    +0.000 C 
ATOM     21  F   UNL     1       1.728   1.254  19.476  0.00  0.00    +0.000 F 
ATOM     22  F   UNL     1       1.993   1.895  17.416  0.00  0.00    +0.000 F 
ENDBRANCH  13  20
ENDBRANCH  11  16
ENDBRANCH   1  11
BRANCH  10  23
ATOM     23  C   UNL     1      -0.943  12.087  18.368  0.00  0.00    +0.000 C 
BRANCH  23  24
ATOM     24  C   UNL     1      -2.352  11.675  18.010  0.00  0.00    +0.000 A 
ATOM     25  C   UNL     1      -3.423  11.882  18.892  0.00  0.00    +0.000 A 
ATOM     26  C   UNL     1      -4.732  11.591  18.504  0.00  0.00    +0.000 A 
ATOM     27  C   UNL     1      -4.990  11.096  17.227  0.00  0.00    +0.000 A 
ATOM     28  C   UNL     1      -3.936  10.881  16.343  0.00  0.00    +0.000 A 
ATOM     29  C   UNL     1      -2.626  11.165  16.730  0.00  0.00    +0.000 A 
ENDBRANCH  23  24
ENDBRANCH  10  23
TORSDOF 5
ENDMDL
