MODEL 1
REMARK VINA RESULT:      -7.8      0.000      0.000
REMARK  Name = 
REMARK  7 active torsions:
REMARK  status: ('A' for Active; 'I' for Inactive)
REMARK    1  A    between atoms: O_1  and  C_2
REMARK    2  A    between atoms: C_10  and  N_11
REMARK    3  A    between atoms: N_12  and  C_13
REMARK    4  A    between atoms: C_13  and  S_14
REMARK    5  A    between atoms: N_15  and  C_16
REMARK    6  A    between atoms: C_16  and  C_17
REMARK    7  A    between atoms: C_17  and  C_18
REMARK                            x       y       z     vdW  Elec       q    Type
REMARK                         _______ _______ _______ _____ _____    ______ ____
ROOT
ATOM      1  N   UNL     1       5.315   5.217  18.575  0.00  0.00    +0.000 NA
ATOM      2  N   UNL     1       5.746   5.986  17.690  0.00  0.00    +0.000 NA
ENDROOT
BRANCH   1  11
ATOM      3  C   UNL     1       3.991   3.925  16.967  0.00  0.00    +0.000 A 
ATOM      4  N   UNL     1       2.791   3.256  16.991  0.00  0.00    +0.000 N 
ATOM      5  C   UNL     1       2.200   3.362  18.232  0.00  0.00    +0.000 A 
ATOM      6  C   UNL     1       0.990   2.831  18.697  0.00  0.00    +0.000 A 
ATOM      7  C   UNL     1       0.633   3.095  20.021  0.00  0.00    +0.000 A 
ATOM      8  C   UNL     1       1.457   3.855  20.846  0.00  0.00    +0.000 A 
ATOM      9  C   UNL     1       2.665   4.376  20.367  0.00  0.00    +0.000 A 
ATOM     10  C   UNL     1       3.050   4.135  19.033  0.00  0.00    +0.000 A 
ATOM     11  C   UNL     1       4.168   4.485  18.216  0.00  0.00    +0.000 A 
ATOM     12  H   UNL     1       2.387   2.743  16.223  0.00  0.00    +0.000 HD
BRANCH   3  13
ATOM     13  O   UNL     1       4.759   3.960  15.880  0.00  0.00    +0.000 OA
ATOM     14  H   UNL     1       4.789   3.083  15.463  0.00  0.00    +0.000 HD
ENDBRANCH   3  13
ENDBRANCH   1  11
BRANCH   2  15
ATOM     15  C   UNL     1       6.899   6.665  18.048  0.00  0.00    +0.000 C 
ATOM     16  N   UNL     1       7.125   7.796  17.458  0.00  0.00    +0.000 NA
BRANCH  15  17
ATOM     17  S   UNL     1       8.027   5.934  19.211  0.00  0.00    +0.000 S 
ATOM     18  H   UNL     1       9.085   5.961  18.392  0.00  0.00    +0.000 HD
ENDBRANCH  15  17
BRANCH  16  19
ATOM     19  C   UNL     1       8.364   8.531  17.759  0.00  0.00    +0.000 C 
BRANCH  19  20
ATOM     20  C   UNL     1       8.076  10.023  17.992  0.00  0.00    +0.000 C 
BRANCH  20  21
ATOM     21  C   UNL     1       9.270  10.734  18.605  0.00  0.00    +0.000 A 
ATOM     22  C   UNL     1      10.323  11.180  17.793  0.00  0.00    +0.000 A 
ATOM     23  C   UNL     1      11.459  11.771  18.356  0.00  0.00    +0.000 A 
ATOM     24  C   UNL     1      11.550  11.936  19.734  0.00  0.00    +0.000 A 
ATOM     25  C   UNL     1      10.502  11.520  20.553  0.00  0.00    +0.000 A 
ATOM     26  C   UNL     1       9.369  10.916  19.993  0.00  0.00    +0.000 A 
ENDBRANCH  20  21
ENDBRANCH  19  20
ENDBRANCH  16  19
ENDBRANCH   2  15
TORSDOF 7
ENDMDL
MODEL 2
REMARK VINA RESULT:      -7.7      0.121      1.010
REMARK  Name = 
REMARK  7 active torsions:
REMARK  status: ('A' for Active; 'I' for Inactive)
REMARK    1  A    between atoms: O_1  and  C_2
REMARK    2  A    between atoms: C_10  and  N_11
REMARK    3  A    between atoms: N_12  and  C_13
REMARK    4  A    between atoms: C_13  and  S_14
REMARK    5  A    between atoms: N_15  and  C_16
REMARK    6  A    between atoms: C_16  and  C_17
REMARK    7  A    between atoms: C_17  and  C_18
REMARK                            x       y       z     vdW  Elec       q    Type
REMARK                         _______ _______ _______ _____ _____    ______ ____
ROOT
ATOM      1  N   UNL     1       5.356   5.070  18.547  0.00  0.00    +0.000 NA
ATOM      2  N   UNL     1       5.667   5.991  17.763  0.00  0.00    +0.000 NA
ENDROOT
BRANCH   1  11
ATOM      3  C   UNL     1       3.956   3.832  16.961  0.00  0.00    +0.000 A 
ATOM      4  N   UNL     1       2.738   3.200  17.008  0.00  0.00    +0.000 N 
ATOM      5  C   UNL     1       2.178   3.315  18.262  0.00  0.00    +0.000 A 
ATOM      6  C   UNL     1       0.962   2.818  18.751  0.00  0.00    +0.000 A 
ATOM      7  C   UNL     1       0.644   3.082  20.085  0.00  0.00    +0.000 A 
ATOM      8  C   UNL     1       1.509   3.810  20.896  0.00  0.00    +0.000 A 
ATOM      9  C   UNL     1       2.722   4.297  20.394  0.00  0.00    +0.000 A 
ATOM     10  C   UNL     1       3.069   4.054  19.049  0.00  0.00    +0.000 A 
ATOM     11  C   UNL     1       4.178   4.376  18.209  0.00  0.00    +0.000 A 
ATOM     12  H   UNL     1       2.301   2.705  16.245  0.00  0.00    +0.000 HD
BRANCH   3  13
ATOM     13  O   UNL     1       4.701   3.851  15.857  0.00  0.00    +0.000 OA
ATOM     14  H   UNL     1       5.622   4.065  16.078  0.00  0.00    +0.000 HD
ENDBRANCH   3  13
ENDBRANCH   1  11
BRANCH   2  15
ATOM     15  C   UNL     1       6.849   6.634  18.091  0.00  0.00    +0.000 C 
ATOM     16  N   UNL     1       7.076   7.777  17.528  0.00  0.00    +0.000 NA
BRANCH  15  17
ATOM     17  S   UNL     1       8.010   5.840  19.178  0.00  0.00    +0.000 S 
ATOM     18  H   UNL     1       8.539   5.047  18.238  0.00  0.00    +0.000 HD
ENDBRANCH  15  17
BRANCH  16  19
ATOM     19  C   UNL     1       8.343   8.475  17.796  0.00  0.00    +0.000 C 
BRANCH  19  20
ATOM     20  C   UNL     1       8.127   9.995  17.882  0.00  0.00    +0.000 C 
BRANCH  20  21
ATOM     21  C   UNL     1       9.292  10.687  18.568  0.00  0.00    +0.000 A 
ATOM     22  C   UNL     1       9.335  10.786  19.966  0.00  0.00    +0.000 A 
ATOM     23  C   UNL     1      10.367  11.484  20.603  0.00  0.00    +0.000 A 
ATOM     24  C   UNL     1      11.375  12.078  19.850  0.00  0.00    +0.000 A 
ATOM     25  C   UNL     1      11.360  11.968  18.461  0.00  0.00    +0.000 A 
ATOM     26  C   UNL     1      10.321  11.281  17.822  0.00  0.00    +0.000 A 
ENDBRANCH  20  21
ENDBRANCH  19  20
ENDBRANCH  16  19
ENDBRANCH   2  15
TORSDOF 7
ENDMDL
MODEL 3
REMARK VINA RESULT:      -7.5      3.777      5.672
REMARK  Name = 
REMARK  7 active torsions:
REMARK  status: ('A' for Active; 'I' for Inactive)
REMARK    1  A    between atoms: O_1  and  C_2
REMARK    2  A    between atoms: C_10  and  N_11
REMARK    3  A    between atoms: N_12  and  C_13
REMARK    4  A    between atoms: C_13  and  S_14
REMARK    5  A    between atoms: N_15  and  C_16
REMARK    6  A    between atoms: C_16  and  C_17
REMARK    7  A    between atoms: C_17  and  C_18
REMARK                            x       y       z     vdW  Elec       q    Type
REMARK                         _______ _______ _______ _____ _____    ______ ____
ROOT
ATOM      1  N   UNL     1       3.303   5.906  18.426  0.00  0.00    +0.000 NA
ATOM      2  N   UNL     1       2.925   4.716  18.398  0.00  0.00    +0.000 NA
ENDROOT
BRANCH   1  11
ATOM      3  C   UNL     1       2.148   6.418  20.526  0.00  0.00    +0.000 A 
ATOM      4  N   UNL     1       1.456   7.490  21.033  0.00  0.00    +0.000 N 
ATOM      5  C   UNL     1       1.398   8.512  20.110  0.00  0.00    +0.000 A 
ATOM      6  C   UNL     1       0.805   9.779  20.209  0.00  0.00    +0.000 A 
ATOM      7  C   UNL     1       0.906  10.629  19.106  0.00  0.00    +0.000 A 
ATOM      8  C   UNL     1       1.575  10.230  17.953  0.00  0.00    +0.000 A 
ATOM      9  C   UNL     1       2.166   8.962  17.871  0.00  0.00    +0.000 A 
ATOM     10  C   UNL     1       2.075   8.077  18.964  0.00  0.00    +0.000 A 
ATOM     11  C   UNL     1       2.533   6.754  19.244  0.00  0.00    +0.000 A 
ATOM     12  H   UNL     1       1.047   7.547  21.954  0.00  0.00    +0.000 HD
BRANCH   3  13
ATOM     13  O   UNL     1       2.351   5.309  21.234  0.00  0.00    +0.000 OA
ATOM     14  H   UNL     1       2.987   4.732  20.780  0.00  0.00    +0.000 HD
ENDBRANCH   3  13
ENDBRANCH   1  11
BRANCH   2  15
ATOM     15  C   UNL     1       3.720   3.891  17.620  0.00  0.00    +0.000 C 
ATOM     16  N   UNL     1       4.466   4.460  16.728  0.00  0.00    +0.000 NA
BRANCH  15  17
ATOM     17  S   UNL     1       3.620   2.127  17.821  0.00  0.00    +0.000 S 
ATOM     18  H   UNL     1       4.922   1.904  17.606  0.00  0.00    +0.000 HD
ENDBRANCH  15  17
BRANCH  16  19
ATOM     19  C   UNL     1       5.286   3.626  15.835  0.00  0.00    +0.000 C 
BRANCH  19  20
ATOM     20  C   UNL     1       6.631   4.304  15.530  0.00  0.00    +0.000 C 
BRANCH  20  21
ATOM     21  C   UNL     1       7.083   5.191  16.678  0.00  0.00    +0.000 A 
ATOM     22  C   UNL     1       7.078   6.587  16.541  0.00  0.00    +0.000 A 
ATOM     23  C   UNL     1       7.559   7.408  17.566  0.00  0.00    +0.000 A 
ATOM     24  C   UNL     1       8.038   6.845  18.745  0.00  0.00    +0.000 A 
ATOM     25  C   UNL     1       8.026   5.461  18.906  0.00  0.00    +0.000 A 
ATOM     26  C   UNL     1       7.557   4.636  17.876  0.00  0.00    +0.000 A 
ENDBRANCH  20  21
ENDBRANCH  19  20
ENDBRANCH  16  19
ENDBRANCH   2  15
TORSDOF 7
ENDMDL
MODEL 4
REMARK VINA RESULT:      -7.5      4.593      7.925
REMARK  Name = 
REMARK  7 active torsions:
REMARK  status: ('A' for Active; 'I' for Inactive)
REMARK    1  A    between atoms: O_1  and  C_2
REMARK    2  A    between atoms: C_10  and  N_11
REMARK    3  A    between atoms: N_12  and  C_13
REMARK    4  A    between atoms: C_13  and  S_14
REMARK    5  A    between atoms: N_15  and  C_16
REMARK    6  A    between atoms: C_16  and  C_17
REMARK    7  A    between atoms: C_17  and  C_18
REMARK                            x       y       z     vdW  Elec       q    Type
REMARK                         _______ _______ _______ _____ _____    ______ ____
ROOT
ATOM      1  N   UNL     1       4.817   3.748  16.561  0.00  0.00    +0.000 NA
ATOM      2  N   UNL     1       5.169   3.383  17.703  0.00  0.00    +0.000 NA
ENDROOT
BRANCH   1  11
ATOM      3  C   UNL     1       6.733   5.261  16.354  0.00  0.00    +0.000 A 
ATOM      4  N   UNL     1       7.579   5.647  15.342  0.00  0.00    +0.000 N 
ATOM      5  C   UNL     1       7.236   5.027  14.159  0.00  0.00    +0.000 A 
ATOM      6  C   UNL     1       7.829   5.121  12.893  0.00  0.00    +0.000 A 
ATOM      7  C   UNL     1       7.272   4.366  11.859  0.00  0.00    +0.000 A 
ATOM      8  C   UNL     1       6.170   3.546  12.085  0.00  0.00    +0.000 A 
ATOM      9  C   UNL     1       5.591   3.460  13.358  0.00  0.00    +0.000 A 
ATOM     10  C   UNL     1       6.125   4.216  14.421  0.00  0.00    +0.000 A 
ATOM     11  C   UNL     1       5.820   4.384  15.806  0.00  0.00    +0.000 A 
ATOM     12  H   UNL     1       8.354   6.285  15.433  0.00  0.00    +0.000 HD
BRANCH   3  13
ATOM     13  O   UNL     1       6.867   5.716  17.598  0.00  0.00    +0.000 OA
ATOM     14  H   UNL     1       6.808   6.686  17.609  0.00  0.00    +0.000 HD
ENDBRANCH   3  13
ENDBRANCH   1  11
BRANCH   2  15
ATOM     15  C   UNL     1       4.180   2.723  18.413  0.00  0.00    +0.000 C 
ATOM     16  N   UNL     1       3.079   2.459  17.785  0.00  0.00    +0.000 NA
BRANCH  15  17
ATOM     17  S   UNL     1       4.429   2.352  20.133  0.00  0.00    +0.000 S 
ATOM     18  H   UNL     1       4.798   1.081  19.935  0.00  0.00    +0.000 HD
ENDBRANCH  15  17
BRANCH  16  19
ATOM     19  C   UNL     1       1.973   1.811  18.509  0.00  0.00    +0.000 C 
BRANCH  19  20
ATOM     20  C   UNL     1       0.807   2.790  18.723  0.00  0.00    +0.000 C 
BRANCH  20  21
ATOM     21  C   UNL     1       1.304   4.189  19.046  0.00  0.00    +0.000 A 
ATOM     22  C   UNL     1       1.724   5.048  18.020  0.00  0.00    +0.000 A 
ATOM     23  C   UNL     1       2.250   6.310  18.315  0.00  0.00    +0.000 A 
ATOM     24  C   UNL     1       2.350   6.734  19.636  0.00  0.00    +0.000 A 
ATOM     25  C   UNL     1       1.914   5.902  20.665  0.00  0.00    +0.000 A 
ATOM     26  C   UNL     1       1.400   4.633  20.374  0.00  0.00    +0.000 A 
ENDBRANCH  20  21
ENDBRANCH  19  20
ENDBRANCH  16  19
ENDBRANCH   2  15
TORSDOF 7
ENDMDL
MODEL 5
REMARK VINA RESULT:      -7.5      4.555      7.938
REMARK  Name = 
REMARK  7 active torsions:
REMARK  status: ('A' for Active; 'I' for Inactive)
REMARK    1  A    between atoms: O_1  and  C_2
REMARK    2  A    between atoms: C_10  and  N_11
REMARK    3  A    between atoms: N_12  and  C_13
REMARK    4  A    between atoms: C_13  and  S_14
REMARK    5  A    between atoms: N_15  and  C_16
REMARK    6  A    between atoms: C_16  and  C_17
REMARK    7  A    between atoms: C_17  and  C_18
REMARK                            x       y       z     vdW  Elec       q    Type
REMARK                         _______ _______ _______ _____ _____    ______ ____
ROOT
ATOM      1  N   UNL     1       4.780   3.920  16.597  0.00  0.00    +0.000 NA
ATOM      2  N   UNL     1       5.182   3.281  17.592  0.00  0.00    +0.000 NA
ENDROOT
BRANCH   1  11
ATOM      3  C   UNL     1       6.739   5.365  16.316  0.00  0.00    +0.000 A 
ATOM      4  N   UNL     1       7.588   5.683  15.284  0.00  0.00    +0.000 N 
ATOM      5  C   UNL     1       7.219   5.026  14.130  0.00  0.00    +0.000 A 
ATOM      6  C   UNL     1       7.804   5.051  12.857  0.00  0.00    +0.000 A 
ATOM      7  C   UNL     1       7.217   4.272  11.858  0.00  0.00    +0.000 A 
ATOM      8  C   UNL     1       6.093   3.496  12.125  0.00  0.00    +0.000 A 
ATOM      9  C   UNL     1       5.521   3.479  13.404  0.00  0.00    +0.000 A 
ATOM     10  C   UNL     1       6.086   4.261  14.431  0.00  0.00    +0.000 A 
ATOM     11  C   UNL     1       5.796   4.494  15.810  0.00  0.00    +0.000 A 
ATOM     12  H   UNL     1       8.384   6.300  15.344  0.00  0.00    +0.000 HD
BRANCH   3  13
ATOM     13  O   UNL     1       6.895   5.865  17.540  0.00  0.00    +0.000 OA
ATOM     14  H   UNL     1       6.168   5.576  18.116  0.00  0.00    +0.000 HD
ENDBRANCH   3  13
ENDBRANCH   1  11
BRANCH   2  15
ATOM     15  C   UNL     1       4.169   2.690  18.328  0.00  0.00    +0.000 C 
ATOM     16  N   UNL     1       3.047   2.471  17.720  0.00  0.00    +0.000 NA
BRANCH  15  17
ATOM     17  S   UNL     1       4.422   2.343  20.053  0.00  0.00    +0.000 S 
ATOM     18  H   UNL     1       4.726   3.602  20.390  0.00  0.00    +0.000 HD
ENDBRANCH  15  17
BRANCH  16  19
ATOM     19  C   UNL     1       1.919   1.899  18.472  0.00  0.00    +0.000 C 
BRANCH  19  20
ATOM     20  C   UNL     1       0.808   2.943  18.677  0.00  0.00    +0.000 C 
BRANCH  20  21
ATOM     21  C   UNL     1       1.381   4.309  19.015  0.00  0.00    +0.000 A 
ATOM     22  C   UNL     1       1.474   4.728  20.351  0.00  0.00    +0.000 A 
ATOM     23  C   UNL     1       1.933   6.011  20.667  0.00  0.00    +0.000 A 
ATOM     24  C   UNL     1       2.316   6.884  19.654  0.00  0.00    +0.000 A 
ATOM     25  C   UNL     1       2.252   6.474  18.324  0.00  0.00    +0.000 A 
ATOM     26  C   UNL     1       1.781   5.195  18.004  0.00  0.00    +0.000 A 
ENDBRANCH  20  21
ENDBRANCH  19  20
ENDBRANCH  16  19
ENDBRANCH   2  15
TORSDOF 7
ENDMDL
MODEL 6
REMARK VINA RESULT:      -7.5      5.147      8.087
REMARK  Name = 
REMARK  7 active torsions:
REMARK  status: ('A' for Active; 'I' for Inactive)
REMARK    1  A    between atoms: O_1  and  C_2
REMARK    2  A    between atoms: C_10  and  N_11
REMARK    3  A    between atoms: N_12  and  C_13
REMARK    4  A    between atoms: C_13  and  S_14
REMARK    5  A    between atoms: N_15  and  C_16
REMARK    6  A    between atoms: C_16  and  C_17
REMARK    7  A    between atoms: C_17  and  C_18
REMARK                            x       y       z     vdW  Elec       q    Type
REMARK                         _______ _______ _______ _____ _____    ______ ____
ROOT
ATOM      1  N   UNL     1       2.397   7.244  19.262  0.00  0.00    +0.000 NA
ATOM      2  N   UNL     1       3.236   7.217  18.337  0.00  0.00    +0.000 NA
ENDROOT
BRANCH   1  11
ATOM      3  C   UNL     1       1.579   9.388  18.402  0.00  0.00    +0.000 A 
ATOM      4  N   UNL     1       0.852  10.438  18.907  0.00  0.00    +0.000 N 
ATOM      5  C   UNL     1       0.525  10.214  20.227  0.00  0.00    +0.000 A 
ATOM      6  C   UNL     1      -0.209  11.009  21.117  0.00  0.00    +0.000 A 
ATOM      7  C   UNL     1      -0.397  10.526  22.414  0.00  0.00    +0.000 A 
ATOM      8  C   UNL     1       0.126   9.296  22.802  0.00  0.00    +0.000 A 
ATOM      9  C   UNL     1       0.854   8.511  21.899  0.00  0.00    +0.000 A 
ATOM     10  C   UNL     1       1.068   8.974  20.585  0.00  0.00    +0.000 A 
ATOM     11  C   UNL     1       1.733   8.474  19.424  0.00  0.00    +0.000 A 
ATOM     12  H   UNL     1       0.576  11.264  18.396  0.00  0.00    +0.000 HD
BRANCH   3  13
ATOM     13  O   UNL     1       2.004   9.364  17.141  0.00  0.00    +0.000 OA
ATOM     14  H   UNL     1       2.549  10.147  16.955  0.00  0.00    +0.000 HD
ENDBRANCH   3  13
ENDBRANCH   1  11
BRANCH   2  15
ATOM     15  C   UNL     1       3.848   5.986  18.167  0.00  0.00    +0.000 C 
ATOM     16  N   UNL     1       3.311   5.172  17.315  0.00  0.00    +0.000 NA
BRANCH  15  17
ATOM     17  S   UNL     1       5.257   5.558  19.162  0.00  0.00    +0.000 S 
ATOM     18  H   UNL     1       4.703   4.464  19.699  0.00  0.00    +0.000 HD
ENDBRANCH  15  17
BRANCH  16  19
ATOM     19  C   UNL     1       3.886   3.829  17.139  0.00  0.00    +0.000 C 
BRANCH  19  20
ATOM     20  C   UNL     1       2.844   2.740  17.439  0.00  0.00    +0.000 C 
BRANCH  20  21
ATOM     21  C   UNL     1       2.427   2.753  18.900  0.00  0.00    +0.000 A 
ATOM     22  C   UNL     1       1.116   3.095  19.260  0.00  0.00    +0.000 A 
ATOM     23  C   UNL     1       0.743   3.180  20.606  0.00  0.00    +0.000 A 
ATOM     24  C   UNL     1       1.672   2.910  21.606  0.00  0.00    +0.000 A 
ATOM     25  C   UNL     1       2.972   2.545  21.263  0.00  0.00    +0.000 A 
ATOM     26  C   UNL     1       3.351   2.473  19.917  0.00  0.00    +0.000 A 
ENDBRANCH  20  21
ENDBRANCH  19  20
ENDBRANCH  16  19
ENDBRANCH   2  15
TORSDOF 7
ENDMDL
MODEL 7
REMARK VINA RESULT:      -7.4      4.604      6.305
REMARK  Name = 
REMARK  7 active torsions:
REMARK  status: ('A' for Active; 'I' for Inactive)
REMARK    1  A    between atoms: O_1  and  C_2
REMARK    2  A    between atoms: C_10  and  N_11
REMARK    3  A    between atoms: N_12  and  C_13
REMARK    4  A    between atoms: C_13  and  S_14
REMARK    5  A    between atoms: N_15  and  C_16
REMARK    6  A    between atoms: C_16  and  C_17
REMARK    7  A    between atoms: C_17  and  C_18
REMARK                            x       y       z     vdW  Elec       q    Type
REMARK                         _______ _______ _______ _____ _____    ______ ____
ROOT
ATOM      1  N   UNL     1       2.280   7.604  19.651  0.00  0.00    +0.000 NA
ATOM      2  N   UNL     1       2.170   6.977  18.576  0.00  0.00    +0.000 NA
ENDROOT
BRANCH   1  11
ATOM      3  C   UNL     1       1.349   9.631  18.636  0.00  0.00    +0.000 A 
ATOM      4  N   UNL     1       0.547  10.664  19.057  0.00  0.00    +0.000 N 
ATOM      5  C   UNL     1       0.208  10.507  20.384  0.00  0.00    +0.000 A 
ATOM      6  C   UNL     1      -0.592  11.311  21.207  0.00  0.00    +0.000 A 
ATOM      7  C   UNL     1      -0.776  10.904  22.529  0.00  0.00    +0.000 A 
ATOM      8  C   UNL     1      -0.186   9.738  23.008  0.00  0.00    +0.000 A 
ATOM      9  C   UNL     1       0.609   8.942  22.171  0.00  0.00    +0.000 A 
ATOM     10  C   UNL     1       0.820   9.330  20.833  0.00  0.00    +0.000 A 
ATOM     11  C   UNL     1       1.538   8.798  19.719  0.00  0.00    +0.000 A 
ATOM     12  H   UNL     1       0.231  11.434  18.488  0.00  0.00    +0.000 HD
BRANCH   3  13
ATOM     13  O   UNL     1       1.800   9.551  17.386  0.00  0.00    +0.000 OA
ATOM     14  H   UNL     1       1.900   8.620  17.124  0.00  0.00    +0.000 HD
ENDBRANCH   3  13
ENDBRANCH   1  11
BRANCH   2  15
ATOM     15  C   UNL     1       2.875   5.785  18.544  0.00  0.00    +0.000 C 
ATOM     16  N   UNL     1       3.432   5.458  17.422  0.00  0.00    +0.000 NA
BRANCH  15  17
ATOM     17  S   UNL     1       2.913   4.747  19.986  0.00  0.00    +0.000 S 
ATOM     18  H   UNL     1       3.639   3.775  19.421  0.00  0.00    +0.000 HD
ENDBRANCH  15  17
BRANCH  16  19
ATOM     19  C   UNL     1       4.144   4.174  17.318  0.00  0.00    +0.000 C 
BRANCH  19  20
ATOM     20  C   UNL     1       5.454   4.335  16.530  0.00  0.00    +0.000 C 
BRANCH  20  21
ATOM     21  C   UNL     1       6.416   5.279  17.231  0.00  0.00    +0.000 A 
ATOM     22  C   UNL     1       7.029   4.902  18.436  0.00  0.00    +0.000 A 
ATOM     23  C   UNL     1       7.859   5.793  19.124  0.00  0.00    +0.000 A 
ATOM     24  C   UNL     1       8.098   7.064  18.611  0.00  0.00    +0.000 A 
ATOM     25  C   UNL     1       7.516   7.444  17.404  0.00  0.00    +0.000 A 
ATOM     26  C   UNL     1       6.673   6.559  16.719  0.00  0.00    +0.000 A 
ENDBRANCH  20  21
ENDBRANCH  19  20
ENDBRANCH  16  19
ENDBRANCH   2  15
TORSDOF 7
ENDMDL
MODEL 8
REMARK VINA RESULT:      -7.3      4.798      6.396
REMARK  Name = 
REMARK  7 active torsions:
REMARK  status: ('A' for Active; 'I' for Inactive)
REMARK    1  A    between atoms: O_1  and  C_2
REMARK    2  A    between atoms: C_10  and  N_11
REMARK    3  A    between atoms: N_12  and  C_13
REMARK    4  A    between atoms: C_13  and  S_14
REMARK    5  A    between atoms: N_15  and  C_16
REMARK    6  A    between atoms: C_16  and  C_17
REMARK    7  A    between atoms: C_17  and  C_18
REMARK                            x       y       z     vdW  Elec       q    Type
REMARK                         _______ _______ _______ _____ _____    ______ ____
ROOT
ATOM      1  N   UNL     1       2.066   7.810  19.799  0.00  0.00    +0.000 NA
ATOM      2  N   UNL     1       2.087   7.267  18.674  0.00  0.00    +0.000 NA
ENDROOT
BRANCH   1  11
ATOM      3  C   UNL     1       1.227   9.877  18.785  0.00  0.00    +0.000 A 
ATOM      4  N   UNL     1       0.435  10.922  19.193  0.00  0.00    +0.000 N 
ATOM      5  C   UNL     1       0.036  10.750  20.501  0.00  0.00    +0.000 A 
ATOM      6  C   UNL     1      -0.778  11.559  21.305  0.00  0.00    +0.000 A 
ATOM      7  C   UNL     1      -1.027  11.133  22.611  0.00  0.00    +0.000 A 
ATOM      8  C   UNL     1      -0.486   9.943  23.091  0.00  0.00    +0.000 A 
ATOM      9  C   UNL     1       0.323   9.144  22.274  0.00  0.00    +0.000 A 
ATOM     10  C   UNL     1       0.600   9.550  20.952  0.00  0.00    +0.000 A 
ATOM     11  C   UNL     1       1.351   9.020  19.860  0.00  0.00    +0.000 A 
ATOM     12  H   UNL     1       0.161  11.711  18.626  0.00  0.00    +0.000 HD
BRANCH   3  13
ATOM     13  O   UNL     1       1.729   9.808  17.554  0.00  0.00    +0.000 OA
ATOM     14  H   UNL     1       1.901  10.702  17.212  0.00  0.00    +0.000 HD
ENDBRANCH   3  13
ENDBRANCH   1  11
BRANCH   2  15
ATOM     15  C   UNL     1       2.761   6.057  18.646  0.00  0.00    +0.000 C 
ATOM     16  N   UNL     1       3.269   5.691  17.513  0.00  0.00    +0.000 NA
BRANCH  15  17
ATOM     17  S   UNL     1       2.823   5.050  20.109  0.00  0.00    +0.000 S 
ATOM     18  H   UNL     1       1.879   4.190  19.709  0.00  0.00    +0.000 HD
ENDBRANCH  15  17
BRANCH  16  19
ATOM     19  C   UNL     1       3.944   4.387  17.413  0.00  0.00    +0.000 C 
BRANCH  19  20
ATOM     20  C   UNL     1       5.276   4.514  16.655  0.00  0.00    +0.000 C 
BRANCH  20  21
ATOM     21  C   UNL     1       6.247   5.430  17.380  0.00  0.00    +0.000 A 
ATOM     22  C   UNL     1       6.554   6.695  16.858  0.00  0.00    +0.000 A 
ATOM     23  C   UNL     1       7.501   7.515  17.481  0.00  0.00    +0.000 A 
ATOM     24  C   UNL     1       8.141   7.087  18.639  0.00  0.00    +0.000 A 
ATOM     25  C   UNL     1       7.829   5.843  19.184  0.00  0.00    +0.000 A 
ATOM     26  C   UNL     1       6.891   5.015  18.555  0.00  0.00    +0.000 A 
ENDBRANCH  20  21
ENDBRANCH  19  20
ENDBRANCH  16  19
ENDBRANCH   2  15
TORSDOF 7
ENDMDL
MODEL 9
REMARK VINA RESULT:      -7.3      4.923      8.014
REMARK  Name = 
REMARK  7 active torsions:
REMARK  status: ('A' for Active; 'I' for Inactive)
REMARK    1  A    between atoms: O_1  and  C_2
REMARK    2  A    between atoms: C_10  and  N_11
REMARK    3  A    between atoms: N_12  and  C_13
REMARK    4  A    between atoms: C_13  and  S_14
REMARK    5  A    between atoms: N_15  and  C_16
REMARK    6  A    between atoms: C_16  and  C_17
REMARK    7  A    between atoms: C_17  and  C_18
REMARK                            x       y       z     vdW  Elec       q    Type
REMARK                         _______ _______ _______ _____ _____    ______ ____
ROOT
ATOM      1  N   UNL     1       2.475   7.652  18.824  0.00  0.00    +0.000 NA
ATOM      2  N   UNL     1       3.402   7.850  18.010  0.00  0.00    +0.000 NA
ENDROOT
BRANCH   1  11
ATOM      3  C   UNL     1       1.546   9.864  18.323  0.00  0.00    +0.000 A 
ATOM      4  N   UNL     1       0.759  10.775  18.985  0.00  0.00    +0.000 N 
ATOM      5  C   UNL     1       0.435  10.314  20.243  0.00  0.00    +0.000 A 
ATOM      6  C   UNL     1      -0.348  10.907  21.242  0.00  0.00    +0.000 A 
ATOM      7  C   UNL     1      -0.518  10.204  22.436  0.00  0.00    +0.000 A 
ATOM      8  C   UNL     1       0.068   8.955  22.620  0.00  0.00    +0.000 A 
ATOM      9  C   UNL     1       0.846   8.373  21.611  0.00  0.00    +0.000 A 
ATOM     10  C   UNL     1       1.043   9.062  20.397  0.00  0.00    +0.000 A 
ATOM     11  C   UNL     1       1.743   8.801  19.180  0.00  0.00    +0.000 A 
ATOM     12  H   UNL     1       0.441  11.658  18.616  0.00  0.00    +0.000 HD
BRANCH   3  13
ATOM     13  O   UNL     1       1.981  10.076  17.083  0.00  0.00    +0.000 OA
ATOM     14  H   UNL     1       1.354  10.639  16.599  0.00  0.00    +0.000 HD
ENDBRANCH   3  13
ENDBRANCH   1  11
BRANCH   2  15
ATOM     15  C   UNL     1       4.082   6.701  17.641  0.00  0.00    +0.000 C 
ATOM     16  N   UNL     1       4.102   5.728  18.495  0.00  0.00    +0.000 NA
BRANCH  15  17
ATOM     17  S   UNL     1       4.944   6.649  16.088  0.00  0.00    +0.000 S 
ATOM     18  H   UNL     1       5.925   7.480  16.461  0.00  0.00    +0.000 HD
ENDBRANCH  15  17
BRANCH  16  19
ATOM     19  C   UNL     1       4.859   4.507  18.178  0.00  0.00    +0.000 C 
BRANCH  19  20
ATOM     20  C   UNL     1       3.918   3.303  18.011  0.00  0.00    +0.000 C 
BRANCH  20  21
ATOM     21  C   UNL     1       2.973   3.165  19.193  0.00  0.00    +0.000 A 
ATOM     22  C   UNL     1       3.454   2.743  20.441  0.00  0.00    +0.000 A 
ATOM     23  C   UNL     1       2.579   2.545  21.515  0.00  0.00    +0.000 A 
ATOM     24  C   UNL     1       1.217   2.778  21.357  0.00  0.00    +0.000 A 
ATOM     25  C   UNL     1       0.727   3.222  20.131  0.00  0.00    +0.000 A 
ATOM     26  C   UNL     1       1.598   3.408  19.051  0.00  0.00    +0.000 A 
ENDBRANCH  20  21
ENDBRANCH  19  20
ENDBRANCH  16  19
ENDBRANCH   2  15
TORSDOF 7
ENDMDL
