MODEL 1
REMARK VINA RESULT:      -7.6      0.000      0.000
REMARK  Name = 
REMARK  9 active torsions:
REMARK  status: ('A' for Active; 'I' for Inactive)
REMARK    1  A    between atoms: C_1  and  C_2
REMARK    2  A    between atoms: C_2  and  C_3
REMARK    3  A    between atoms: C_2  and  C_16
REMARK    4  A    between atoms: C_2  and  S_20
REMARK    5  A    between atoms: C_3  and  C_4
REMARK    6  A    between atoms: C_4  and  N_5
REMARK    7  A    between atoms: C_7  and  C_8
REMARK    8  A    between atoms: N_18  and  O_19
REMARK    9  A    between atoms: S_20  and  C_21
REMARK                            x       y       z     vdW  Elec       q    Type
REMARK                         _______ _______ _______ _____ _____    ______ ____
ROOT
ATOM      1  C   UNL     1       5.005   6.600  17.560  0.00  0.00    +0.000 C 
ENDROOT
BRANCH   1   3
ATOM      2  C   UNL     1       4.709   4.104  17.139  0.00  0.00    +0.000 C 
ATOM      3  C   UNL     1       5.694   5.210  17.557  0.00  0.00    +0.000 C 
BRANCH   3   4
ATOM      4  C   UNL     1       6.269   4.907  18.934  0.00  0.00    +0.000 C 
ATOM      5  O   UNL     1       5.719   4.137  19.724  0.00  0.00    +0.000 OA
ATOM      6  N   UNL     1       7.399   5.591  19.302  0.00  0.00    +0.000 N 
ATOM      7  H   UNL     1       8.015   6.097  18.664  0.00  0.00    +0.000 HD
BRANCH   6   8
ATOM      8  O   UNL     1       7.907   5.315  20.590  0.00  0.00    +0.000 OA
ATOM      9  H   UNL     1       8.772   4.893  20.402  0.00  0.00    +0.000 HD
ENDBRANCH   6   8
ENDBRANCH   3   4
BRANCH   3  10
ATOM     10  S   UNL     1       7.068   5.264  16.367  0.00  0.00    +0.000 S 
ATOM     11  C   UNL     1       6.407   4.880  14.757  0.00  0.00    +0.000 C 
ATOM     12  O   UNL     1       7.544   6.633  16.309  0.00  0.00    +0.000 OA
ATOM     13  O   UNL     1       7.993   4.200  16.722  0.00  0.00    +0.000 OA
ENDBRANCH   3  10
ENDBRANCH   1   3
BRANCH   1  14
ATOM     14  C   UNL     1       3.479   6.556  17.429  0.00  0.00    +0.000 C 
BRANCH  14  15
ATOM     15  N   UNL     1       2.809   6.884  18.673  0.00  0.00    +0.000 N 
ATOM     16  C   UNL     1       2.203   8.068  18.972  0.00  0.00    +0.000 A 
ATOM     17  C   UNL     1       1.629   7.906  20.214  0.00  0.00    +0.000 A 
ATOM     18  C   UNL     1       1.953   6.580  20.572  0.00  0.00    +0.000 A 
ATOM     19  N   UNL     1       2.680   5.960  19.638  0.00  0.00    +0.000 NA
BRANCH  17  20
ATOM     20  C   UNL     1       0.896   8.938  20.916  0.00  0.00    +0.000 A 
ATOM     21  C   UNL     1       0.606   8.800  22.282  0.00  0.00    +0.000 A 
ATOM     22  C   UNL     1      -0.145   9.769  22.948  0.00  0.00    +0.000 A 
ATOM     23  C   UNL     1      -0.605  10.881  22.253  0.00  0.00    +0.000 A 
ATOM     24  C   UNL     1      -0.303  11.046  20.902  0.00  0.00    +0.000 A 
ATOM     25  C   UNL     1       0.450  10.078  20.235  0.00  0.00    +0.000 A 
ENDBRANCH  17  20
ENDBRANCH  14  15
ENDBRANCH   1  14
TORSDOF 7
ENDMDL
MODEL 2
REMARK VINA RESULT:      -7.5      0.836      1.553
REMARK  Name = 
REMARK  9 active torsions:
REMARK  status: ('A' for Active; 'I' for Inactive)
REMARK    1  A    between atoms: C_1  and  C_2
REMARK    2  A    between atoms: C_2  and  C_3
REMARK    3  A    between atoms: C_2  and  C_16
REMARK    4  A    between atoms: C_2  and  S_20
REMARK    5  A    between atoms: C_3  and  C_4
REMARK    6  A    between atoms: C_4  and  N_5
REMARK    7  A    between atoms: C_7  and  C_8
REMARK    8  A    between atoms: N_18  and  O_19
REMARK    9  A    between atoms: S_20  and  C_21
REMARK                            x       y       z     vdW  Elec       q    Type
REMARK                         _______ _______ _______ _____ _____    ______ ____
ROOT
ATOM      1  C   UNL     1       4.147   6.145  17.717  0.00  0.00    +0.000 C 
ENDROOT
BRANCH   1   3
ATOM      2  C   UNL     1       4.372   3.674  17.136  0.00  0.00    +0.000 C 
ATOM      3  C   UNL     1       5.125   4.955  17.535  0.00  0.00    +0.000 C 
BRANCH   3   4
ATOM      4  C   UNL     1       5.913   4.723  18.817  0.00  0.00    +0.000 C 
ATOM      5  O   UNL     1       5.656   3.799  19.592  0.00  0.00    +0.000 OA
ATOM      6  N   UNL     1       6.887   5.638  19.124  0.00  0.00    +0.000 N 
ATOM      7  H   UNL     1       7.289   6.313  18.472  0.00  0.00    +0.000 HD
BRANCH   6   8
ATOM      8  O   UNL     1       7.593   5.420  20.328  0.00  0.00    +0.000 OA
ATOM      9  H   UNL     1       8.489   5.166  20.017  0.00  0.00    +0.000 HD
ENDBRANCH   6   8
ENDBRANCH   3   4
BRANCH   3  10
ATOM     10  S   UNL     1       6.301   5.389  16.217  0.00  0.00    +0.000 S 
ATOM     11  C   UNL     1       5.647   4.767  14.680  0.00  0.00    +0.000 C 
ATOM     12  O   UNL     1       6.324   6.835  16.108  0.00  0.00    +0.000 OA
ATOM     13  O   UNL     1       7.538   4.672  16.484  0.00  0.00    +0.000 OA
ENDBRANCH   3  10
ENDBRANCH   1   3
BRANCH   1  14
ATOM     14  C   UNL     1       3.266   6.061  18.968  0.00  0.00    +0.000 C 
BRANCH  14  15
ATOM     15  N   UNL     1       2.449   7.246  19.148  0.00  0.00    +0.000 N 
ATOM     16  C   UNL     1       1.794   7.605  20.289  0.00  0.00    +0.000 A 
ATOM     17  C   UNL     1       1.223   8.833  20.035  0.00  0.00    +0.000 A 
ATOM     18  C   UNL     1       1.600   9.121  18.706  0.00  0.00    +0.000 A 
ATOM     19  N   UNL     1       2.339   8.149  18.162  0.00  0.00    +0.000 NA
BRANCH  17  20
ATOM     20  C   UNL     1       0.415   9.570  20.985  0.00  0.00    +0.000 A 
ATOM     21  C   UNL     1      -0.266  10.731  20.588  0.00  0.00    +0.000 A 
ATOM     22  C   UNL     1      -1.002  11.470  21.515  0.00  0.00    +0.000 A 
ATOM     23  C   UNL     1      -1.063  11.051  22.838  0.00  0.00    +0.000 A 
ATOM     24  C   UNL     1      -0.413   9.886  23.242  0.00  0.00    +0.000 A 
ATOM     25  C   UNL     1       0.322   9.143  22.316  0.00  0.00    +0.000 A 
ENDBRANCH  17  20
ENDBRANCH  14  15
ENDBRANCH   1  14
TORSDOF 7
ENDMDL
MODEL 3
REMARK VINA RESULT:      -7.5      5.695      7.212
REMARK  Name = 
REMARK  9 active torsions:
REMARK  status: ('A' for Active; 'I' for Inactive)
REMARK    1  A    between atoms: C_1  and  C_2
REMARK    2  A    between atoms: C_2  and  C_3
REMARK    3  A    between atoms: C_2  and  C_16
REMARK    4  A    between atoms: C_2  and  S_20
REMARK    5  A    between atoms: C_3  and  C_4
REMARK    6  A    between atoms: C_4  and  N_5
REMARK    7  A    between atoms: C_7  and  C_8
REMARK    8  A    between atoms: N_18  and  O_19
REMARK    9  A    between atoms: S_20  and  C_21
REMARK                            x       y       z     vdW  Elec       q    Type
REMARK                         _______ _______ _______ _____ _____    ______ ____
ROOT
ATOM      1  C   UNL     1       7.993   7.413  17.571  0.00  0.00    +0.000 C 
ENDROOT
BRANCH   1   3
ATOM      2  C   UNL     1       5.487   6.956  17.501  0.00  0.00    +0.000 C 
ATOM      3  C   UNL     1       6.879   6.346  17.740  0.00  0.00    +0.000 C 
BRANCH   3   4
ATOM      4  C   UNL     1       6.951   5.730  19.131  0.00  0.00    +0.000 C 
ATOM      5  O   UNL     1       5.952   5.310  19.718  0.00  0.00    +0.000 OA
ATOM      6  N   UNL     1       8.174   5.728  19.749  0.00  0.00    +0.000 N 
ATOM      7  H   UNL     1       9.070   5.880  19.284  0.00  0.00    +0.000 HD
BRANCH   6   8
ATOM      8  O   UNL     1       8.218   5.173  21.047  0.00  0.00    +0.000 OA
ATOM      9  H   UNL     1       7.286   5.232  21.346  0.00  0.00    +0.000 HD
ENDBRANCH   6   8
ENDBRANCH   3   4
BRANCH   3  10
ATOM     10  S   UNL     1       7.170   5.029  16.520  0.00  0.00    +0.000 S 
ATOM     11  C   UNL     1       5.648   4.121  16.328  0.00  0.00    +0.000 C 
ATOM     12  O   UNL     1       7.442   5.665  15.244  0.00  0.00    +0.000 OA
ATOM     13  O   UNL     1       8.150   4.118  17.088  0.00  0.00    +0.000 OA
ENDBRANCH   3  10
ENDBRANCH   1   3
BRANCH   1  14
ATOM     14  C   UNL     1       7.493   8.861  17.558  0.00  0.00    +0.000 C 
BRANCH  14  15
ATOM     15  N   UNL     1       8.410   9.767  18.225  0.00  0.00    +0.000 N 
ATOM     16  C   UNL     1       8.681  11.051  17.857  0.00  0.00    +0.000 A 
ATOM     17  C   UNL     1       9.532  11.556  18.815  0.00  0.00    +0.000 A 
ATOM     18  C   UNL     1       9.708  10.486  19.717  0.00  0.00    +0.000 A 
ATOM     19  N   UNL     1       9.032   9.392  19.353  0.00  0.00    +0.000 NA
BRANCH  17  20
ATOM     20  C   UNL     1      10.083  12.895  18.794  0.00  0.00    +0.000 A 
ATOM     21  C   UNL     1       9.557  13.866  17.927  0.00  0.00    +0.000 A 
ATOM     22  C   UNL     1      10.121  15.141  17.868  0.00  0.00    +0.000 A 
ATOM     23  C   UNL     1      11.207  15.452  18.677  0.00  0.00    +0.000 A 
ATOM     24  C   UNL     1      11.724  14.507  19.562  0.00  0.00    +0.000 A 
ATOM     25  C   UNL     1      11.160  13.231  19.624  0.00  0.00    +0.000 A 
ENDBRANCH  17  20
ENDBRANCH  14  15
ENDBRANCH   1  14
TORSDOF 7
ENDMDL
MODEL 4
REMARK VINA RESULT:      -7.4      2.477      3.588
REMARK  Name = 
REMARK  9 active torsions:
REMARK  status: ('A' for Active; 'I' for Inactive)
REMARK    1  A    between atoms: C_1  and  C_2
REMARK    2  A    between atoms: C_2  and  C_3
REMARK    3  A    between atoms: C_2  and  C_16
REMARK    4  A    between atoms: C_2  and  S_20
REMARK    5  A    between atoms: C_3  and  C_4
REMARK    6  A    between atoms: C_4  and  N_5
REMARK    7  A    between atoms: C_7  and  C_8
REMARK    8  A    between atoms: N_18  and  O_19
REMARK    9  A    between atoms: S_20  and  C_21
REMARK                            x       y       z     vdW  Elec       q    Type
REMARK                         _______ _______ _______ _____ _____    ______ ____
ROOT
ATOM      1  C   UNL     1       3.101   5.588  19.439  0.00  0.00    +0.000 C 
ENDROOT
BRANCH   1   3
ATOM      2  C   UNL     1       1.746   4.335  17.681  0.00  0.00    +0.000 C 
ATOM      3  C   UNL     1       2.629   4.199  18.934  0.00  0.00    +0.000 C 
BRANCH   3   4
ATOM      4  C   UNL     1       1.870   3.472  20.035  0.00  0.00    +0.000 C 
ATOM      5  O   UNL     1       0.649   3.304  19.995  0.00  0.00    +0.000 OA
ATOM      6  N   UNL     1       2.592   3.069  21.129  0.00  0.00    +0.000 N 
ATOM      7  H   UNL     1       3.610   2.999  21.170  0.00  0.00    +0.000 HD
BRANCH   6   8
ATOM      8  O   UNL     1       1.869   2.415  22.150  0.00  0.00    +0.000 OA
ATOM      9  H   UNL     1       1.420   1.685  21.672  0.00  0.00    +0.000 HD
ENDBRANCH   6   8
ENDBRANCH   3   4
BRANCH   3  10
ATOM     10  S   UNL     1       4.104   3.220  18.519  0.00  0.00    +0.000 S 
ATOM     11  C   UNL     1       4.549   3.595  16.834  0.00  0.00    +0.000 C 
ATOM     12  O   UNL     1       5.193   3.691  19.354  0.00  0.00    +0.000 OA
ATOM     13  O   UNL     1       3.723   1.818  18.565  0.00  0.00    +0.000 OA
ENDBRANCH   3  10
ENDBRANCH   1   3
BRANCH   1  14
ATOM     14  C   UNL     1       3.115   6.685  18.368  0.00  0.00    +0.000 C 
BRANCH  14  15
ATOM     15  N   UNL     1       2.262   7.806  18.716  0.00  0.00    +0.000 N 
ATOM     16  C   UNL     1       1.666   8.019  19.924  0.00  0.00    +0.000 A 
ATOM     17  C   UNL     1       1.028   9.236  19.830  0.00  0.00    +0.000 A 
ATOM     18  C   UNL     1       1.307   9.671  18.518  0.00  0.00    +0.000 A 
ATOM     19  N   UNL     1       2.051   8.796  17.834  0.00  0.00    +0.000 NA
BRANCH  17  20
ATOM     20  C   UNL     1       0.253   9.836  20.896  0.00  0.00    +0.000 A 
ATOM     21  C   UNL     1      -0.445  11.034  20.679  0.00  0.00    +0.000 A 
ATOM     22  C   UNL     1      -1.150  11.640  21.720  0.00  0.00    +0.000 A 
ATOM     23  C   UNL     1      -1.164  11.050  22.978  0.00  0.00    +0.000 A 
ATOM     24  C   UNL     1      -0.496   9.847  23.202  0.00  0.00    +0.000 A 
ATOM     25  C   UNL     1       0.208   9.238  22.162  0.00  0.00    +0.000 A 
ENDBRANCH  17  20
ENDBRANCH  14  15
ENDBRANCH   1  14
TORSDOF 7
ENDMDL
MODEL 5
REMARK VINA RESULT:      -7.4      2.355      3.443
REMARK  Name = 
REMARK  9 active torsions:
REMARK  status: ('A' for Active; 'I' for Inactive)
REMARK    1  A    between atoms: C_1  and  C_2
REMARK    2  A    between atoms: C_2  and  C_3
REMARK    3  A    between atoms: C_2  and  C_16
REMARK    4  A    between atoms: C_2  and  S_20
REMARK    5  A    between atoms: C_3  and  C_4
REMARK    6  A    between atoms: C_4  and  N_5
REMARK    7  A    between atoms: C_7  and  C_8
REMARK    8  A    between atoms: N_18  and  O_19
REMARK    9  A    between atoms: S_20  and  C_21
REMARK                            x       y       z     vdW  Elec       q    Type
REMARK                         _______ _______ _______ _____ _____    ______ ____
ROOT
ATOM      1  C   UNL     1       2.641   5.366  17.993  0.00  0.00    +0.000 C 
ENDROOT
BRANCH   1   3
ATOM      2  C   UNL     1       3.051   4.409  20.319  0.00  0.00    +0.000 C 
ATOM      3  C   UNL     1       3.315   4.234  18.813  0.00  0.00    +0.000 C 
BRANCH   3   4
ATOM      4  C   UNL     1       4.813   4.212  18.541  0.00  0.00    +0.000 C 
ATOM      5  O   UNL     1       5.642   4.540  19.392  0.00  0.00    +0.000 OA
ATOM      6  N   UNL     1       5.211   3.880  17.273  0.00  0.00    +0.000 N 
ATOM      7  H   UNL     1       4.626   3.425  16.571  0.00  0.00    +0.000 HD
BRANCH   6   8
ATOM      8  O   UNL     1       6.603   3.885  17.032  0.00  0.00    +0.000 OA
ATOM      9  H   UNL     1       6.855   4.817  17.207  0.00  0.00    +0.000 HD
ENDBRANCH   6   8
ENDBRANCH   3   4
BRANCH   3  10
ATOM     10  S   UNL     1       2.615   2.647  18.265  0.00  0.00    +0.000 S 
ATOM     11  C   UNL     1       1.035   2.446  19.066  0.00  0.00    +0.000 C 
ATOM     12  O   UNL     1       2.352   2.752  16.842  0.00  0.00    +0.000 OA
ATOM     13  O   UNL     1       3.488   1.594  18.756  0.00  0.00    +0.000 OA
ENDBRANCH   3  10
ENDBRANCH   1   3
BRANCH   1  14
ATOM     14  C   UNL     1       3.366   6.714  18.050  0.00  0.00    +0.000 C 
BRANCH  14  15
ATOM     15  N   UNL     1       2.493   7.793  18.473  0.00  0.00    +0.000 N 
ATOM     16  C   UNL     1       1.925   7.931  19.705  0.00  0.00    +0.000 A 
ATOM     17  C   UNL     1       1.252   9.133  19.687  0.00  0.00    +0.000 A 
ATOM     18  C   UNL     1       1.483   9.638  18.390  0.00  0.00    +0.000 A 
ATOM     19  N   UNL     1       2.231   8.817  17.646  0.00  0.00    +0.000 NA
BRANCH  17  20
ATOM     20  C   UNL     1       0.491   9.659  20.800  0.00  0.00    +0.000 A 
ATOM     21  C   UNL     1      -0.301  10.808  20.640  0.00  0.00    +0.000 A 
ATOM     22  C   UNL     1      -0.994  11.346  21.725  0.00  0.00    +0.000 A 
ATOM     23  C   UNL     1      -0.903  10.737  22.971  0.00  0.00    +0.000 A 
ATOM     24  C   UNL     1      -0.141   9.582  23.140  0.00  0.00    +0.000 A 
ATOM     25  C   UNL     1       0.551   9.041  22.055  0.00  0.00    +0.000 A 
ENDBRANCH  17  20
ENDBRANCH  14  15
ENDBRANCH   1  14
TORSDOF 7
ENDMDL
MODEL 6
REMARK VINA RESULT:      -7.4      2.331      3.262
REMARK  Name = 
REMARK  9 active torsions:
REMARK  status: ('A' for Active; 'I' for Inactive)
REMARK    1  A    between atoms: C_1  and  C_2
REMARK    2  A    between atoms: C_2  and  C_3
REMARK    3  A    between atoms: C_2  and  C_16
REMARK    4  A    between atoms: C_2  and  S_20
REMARK    5  A    between atoms: C_3  and  C_4
REMARK    6  A    between atoms: C_4  and  N_5
REMARK    7  A    between atoms: C_7  and  C_8
REMARK    8  A    between atoms: N_18  and  O_19
REMARK    9  A    between atoms: S_20  and  C_21
REMARK                            x       y       z     vdW  Elec       q    Type
REMARK                         _______ _______ _______ _____ _____    ______ ____
ROOT
ATOM      1  C   UNL     1       2.755   5.479  17.841  0.00  0.00    +0.000 C 
ENDROOT
BRANCH   1   3
ATOM      2  C   UNL     1       3.062   4.506  20.176  0.00  0.00    +0.000 C 
ATOM      3  C   UNL     1       3.363   4.324  18.678  0.00  0.00    +0.000 C 
BRANCH   3   4
ATOM      4  C   UNL     1       4.867   4.246  18.450  0.00  0.00    +0.000 C 
ATOM      5  O   UNL     1       5.683   4.515  19.334  0.00  0.00    +0.000 OA
ATOM      6  N   UNL     1       5.290   3.936  17.184  0.00  0.00    +0.000 N 
ATOM      7  H   UNL     1       4.708   3.526  16.452  0.00  0.00    +0.000 HD
BRANCH   6   8
ATOM      8  O   UNL     1       6.687   3.890  16.985  0.00  0.00    +0.000 OA
ATOM      9  H   UNL     1       6.821   4.481  16.213  0.00  0.00    +0.000 HD
ENDBRANCH   6   8
ENDBRANCH   3   4
BRANCH   3  10
ATOM     10  S   UNL     1       2.622   2.764  18.107  0.00  0.00    +0.000 S 
ATOM     11  C   UNL     1       1.105   2.521  19.012  0.00  0.00    +0.000 C 
ATOM     12  O   UNL     1       2.255   2.937  16.714  0.00  0.00    +0.000 OA
ATOM     13  O   UNL     1       3.527   1.690  18.481  0.00  0.00    +0.000 OA
ENDBRANCH   3  10
ENDBRANCH   1   3
BRANCH   1  14
ATOM     14  C   UNL     1       3.406   6.847  18.075  0.00  0.00    +0.000 C 
BRANCH  14  15
ATOM     15  N   UNL     1       2.444   7.854  18.481  0.00  0.00    +0.000 N 
ATOM     16  C   UNL     1       1.997   8.072  19.751  0.00  0.00    +0.000 A 
ATOM     17  C   UNL     1       1.168   9.170  19.685  0.00  0.00    +0.000 A 
ATOM     18  C   UNL     1       1.189   9.536  18.322  0.00  0.00    +0.000 A 
ATOM     19  N   UNL     1       1.958   8.728  17.586  0.00  0.00    +0.000 NA
BRANCH  17  20
ATOM     20  C   UNL     1       0.464   9.732  20.819  0.00  0.00    +0.000 A 
ATOM     21  C   UNL     1       0.335   8.998  22.009  0.00  0.00    +0.000 A 
ATOM     22  C   UNL     1      -0.388   9.516  23.084  0.00  0.00    +0.000 A 
ATOM     23  C   UNL     1      -0.978  10.770  22.977  0.00  0.00    +0.000 A 
ATOM     24  C   UNL     1      -0.836  11.521  21.811  0.00  0.00    +0.000 A 
ATOM     25  C   UNL     1      -0.112  11.005  20.735  0.00  0.00    +0.000 A 
ENDBRANCH  17  20
ENDBRANCH  14  15
ENDBRANCH   1  14
TORSDOF 7
ENDMDL
MODEL 7
REMARK VINA RESULT:      -7.3      1.341      2.205
REMARK  Name = 
REMARK  9 active torsions:
REMARK  status: ('A' for Active; 'I' for Inactive)
REMARK    1  A    between atoms: C_1  and  C_2
REMARK    2  A    between atoms: C_2  and  C_3
REMARK    3  A    between atoms: C_2  and  C_16
REMARK    4  A    between atoms: C_2  and  S_20
REMARK    5  A    between atoms: C_3  and  C_4
REMARK    6  A    between atoms: C_4  and  N_5
REMARK    7  A    between atoms: C_7  and  C_8
REMARK    8  A    between atoms: N_18  and  O_19
REMARK    9  A    between atoms: S_20  and  C_21
REMARK                            x       y       z     vdW  Elec       q    Type
REMARK                         _______ _______ _______ _____ _____    ______ ____
ROOT
ATOM      1  C   UNL     1       4.590   6.474  17.884  0.00  0.00    +0.000 C 
ENDROOT
BRANCH   1   3
ATOM      2  C   UNL     1       4.607   4.320  16.524  0.00  0.00    +0.000 C 
ATOM      3  C   UNL     1       5.348   5.155  17.583  0.00  0.00    +0.000 C 
BRANCH   3   4
ATOM      4  C   UNL     1       5.521   4.347  18.862  0.00  0.00    +0.000 C 
ATOM      5  O   UNL     1       6.146   4.777  19.834  0.00  0.00    +0.000 OA
ATOM      6  N   UNL     1       5.016   3.073  18.869  0.00  0.00    +0.000 N 
ATOM      7  H   UNL     1       4.339   2.704  18.198  0.00  0.00    +0.000 HD
BRANCH   6   8
ATOM      8  O   UNL     1       5.205   2.330  20.055  0.00  0.00    +0.000 OA
ATOM      9  H   UNL     1       5.449   3.018  20.711  0.00  0.00    +0.000 HD
ENDBRANCH   6   8
ENDBRANCH   3   4
BRANCH   3  10
ATOM     10  S   UNL     1       7.000   5.585  16.955  0.00  0.00    +0.000 S 
ATOM     11  C   UNL     1       7.539   7.055  17.806  0.00  0.00    +0.000 C 
ATOM     12  O   UNL     1       7.907   4.520  17.342  0.00  0.00    +0.000 OA
ATOM     13  O   UNL     1       6.855   5.925  15.549  0.00  0.00    +0.000 OA
ENDBRANCH   3  10
ENDBRANCH   1   3
BRANCH   1  14
ATOM     14  C   UNL     1       3.071   6.396  17.692  0.00  0.00    +0.000 C 
BRANCH  14  15
ATOM     15  N   UNL     1       2.391   7.578  18.188  0.00  0.00    +0.000 N 
ATOM     16  C   UNL     1       1.807   7.714  19.412  0.00  0.00    +0.000 A 
ATOM     17  C   UNL     1       1.364   9.017  19.485  0.00  0.00    +0.000 A 
ATOM     18  C   UNL     1       1.737   9.577  18.246  0.00  0.00    +0.000 A 
ATOM     19  N   UNL     1       2.354   8.698  17.450  0.00  0.00    +0.000 NA
BRANCH  17  20
ATOM     20  C   UNL     1       0.664   9.579  20.622  0.00  0.00    +0.000 A 
ATOM     21  C   UNL     1       0.291  10.932  20.628  0.00  0.00    +0.000 A 
ATOM     22  C   UNL     1      -0.336  11.487  21.744  0.00  0.00    +0.000 A 
ATOM     23  C   UNL     1      -0.599  10.693  22.853  0.00  0.00    +0.000 A 
ATOM     24  C   UNL     1      -0.258   9.341  22.851  0.00  0.00    +0.000 A 
ATOM     25  C   UNL     1       0.368   8.783  21.735  0.00  0.00    +0.000 A 
ENDBRANCH  17  20
ENDBRANCH  14  15
ENDBRANCH   1  14
TORSDOF 7
ENDMDL
MODEL 8
REMARK VINA RESULT:      -7.3      1.056      1.402
REMARK  Name = 
REMARK  9 active torsions:
REMARK  status: ('A' for Active; 'I' for Inactive)
REMARK    1  A    between atoms: C_1  and  C_2
REMARK    2  A    between atoms: C_2  and  C_3
REMARK    3  A    between atoms: C_2  and  C_16
REMARK    4  A    between atoms: C_2  and  S_20
REMARK    5  A    between atoms: C_3  and  C_4
REMARK    6  A    between atoms: C_4  and  N_5
REMARK    7  A    between atoms: C_7  and  C_8
REMARK    8  A    between atoms: N_18  and  O_19
REMARK    9  A    between atoms: S_20  and  C_21
REMARK                            x       y       z     vdW  Elec       q    Type
REMARK                         _______ _______ _______ _____ _____    ______ ____
ROOT
ATOM      1  C   UNL     1       4.068   6.394  17.701  0.00  0.00    +0.000 C 
ENDROOT
BRANCH   1   3
ATOM      2  C   UNL     1       3.978   3.932  17.050  0.00  0.00    +0.000 C 
ATOM      3  C   UNL     1       4.896   5.122  17.379  0.00  0.00    +0.000 C 
BRANCH   3   4
ATOM      4  C   UNL     1       5.804   4.777  18.551  0.00  0.00    +0.000 C 
ATOM      5  O   UNL     1       5.758   3.685  19.122  0.00  0.00    +0.000 OA
ATOM      6  N   UNL     1       6.637   5.766  19.007  0.00  0.00    +0.000 N 
ATOM      7  H   UNL     1       6.875   6.618  18.497  0.00  0.00    +0.000 HD
BRANCH   6   8
ATOM      8  O   UNL     1       7.457   5.436  20.108  0.00  0.00    +0.000 OA
ATOM      9  H   UNL     1       8.332   5.797  19.851  0.00  0.00    +0.000 HD
ENDBRANCH   6   8
ENDBRANCH   3   4
BRANCH   3  10
ATOM     10  S   UNL     1       5.944   5.482  15.936  0.00  0.00    +0.000 S 
ATOM     11  C   UNL     1       5.588   4.260  14.688  0.00  0.00    +0.000 C 
ATOM     12  O   UNL     1       5.525   6.763  15.399  0.00  0.00    +0.000 OA
ATOM     13  O   UNL     1       7.326   5.295  16.345  0.00  0.00    +0.000 OA
ENDBRANCH   3  10
ENDBRANCH   1   3
BRANCH   1  14
ATOM     14  C   UNL     1       3.115   6.250  18.892  0.00  0.00    +0.000 C 
BRANCH  14  15
ATOM     15  N   UNL     1       2.315   7.442  19.106  0.00  0.00    +0.000 N 
ATOM     16  C   UNL     1       1.729   7.817  20.278  0.00  0.00    +0.000 A 
ATOM     17  C   UNL     1       1.150   9.045  20.044  0.00  0.00    +0.000 A 
ATOM     18  C   UNL     1       1.450   9.316  18.693  0.00  0.00    +0.000 A 
ATOM     19  N   UNL     1       2.152   8.335  18.117  0.00  0.00    +0.000 NA
BRANCH  17  20
ATOM     20  C   UNL     1       0.403   9.796  21.031  0.00  0.00    +0.000 A 
ATOM     21  C   UNL     1       0.108   9.230  22.281  0.00  0.00    +0.000 A 
ATOM     22  C   UNL     1      -0.657   9.932  23.213  0.00  0.00    +0.000 A 
ATOM     23  C   UNL     1      -1.125  11.204  22.902  0.00  0.00    +0.000 A 
ATOM     24  C   UNL     1      -0.818  11.789  21.675  0.00  0.00    +0.000 A 
ATOM     25  C   UNL     1      -0.052  11.089  20.742  0.00  0.00    +0.000 A 
ENDBRANCH  17  20
ENDBRANCH  14  15
ENDBRANCH   1  14
TORSDOF 7
ENDMDL
MODEL 9
REMARK VINA RESULT:      -7.2      2.621      3.476
REMARK  Name = 
REMARK  9 active torsions:
REMARK  status: ('A' for Active; 'I' for Inactive)
REMARK    1  A    between atoms: C_1  and  C_2
REMARK    2  A    between atoms: C_2  and  C_3
REMARK    3  A    between atoms: C_2  and  C_16
REMARK    4  A    between atoms: C_2  and  S_20
REMARK    5  A    between atoms: C_3  and  C_4
REMARK    6  A    between atoms: C_4  and  N_5
REMARK    7  A    between atoms: C_7  and  C_8
REMARK    8  A    between atoms: N_18  and  O_19
REMARK    9  A    between atoms: S_20  and  C_21
REMARK                            x       y       z     vdW  Elec       q    Type
REMARK                         _______ _______ _______ _____ _____    ______ ____
ROOT
ATOM      1  C   UNL     1       3.591   5.923  19.090  0.00  0.00    +0.000 C 
ENDROOT
BRANCH   1   3
ATOM      2  C   UNL     1       1.903   4.480  17.839  0.00  0.00    +0.000 C 
ATOM      3  C   UNL     1       2.920   4.528  18.993  0.00  0.00    +0.000 C 
BRANCH   3   4
ATOM      4  C   UNL     1       2.237   4.182  20.310  0.00  0.00    +0.000 C 
ATOM      5  O   UNL     1       2.355   4.882  21.318  0.00  0.00    +0.000 OA
ATOM      6  N   UNL     1       1.537   3.004  20.358  0.00  0.00    +0.000 N 
ATOM      7  H   UNL     1       1.235   2.464  19.545  0.00  0.00    +0.000 HD
BRANCH   6   8
ATOM      8  O   UNL     1       0.928   2.688  21.592  0.00  0.00    +0.000 OA
ATOM      9  H   UNL     1       1.529   3.101  22.249  0.00  0.00    +0.000 HD
ENDBRANCH   6   8
ENDBRANCH   3   4
BRANCH   3  10
ATOM     10  S   UNL     1       4.223   3.296  18.689  0.00  0.00    +0.000 S 
ATOM     11  C   UNL     1       3.481   1.920  17.832  0.00  0.00    +0.000 C 
ATOM     12  O   UNL     1       5.183   3.889  17.776  0.00  0.00    +0.000 OA
ATOM     13  O   UNL     1       4.673   2.810  19.983  0.00  0.00    +0.000 OA
ENDBRANCH   3  10
ENDBRANCH   1   3
BRANCH   1  14
ATOM     14  C   UNL     1       3.216   6.891  17.963  0.00  0.00    +0.000 C 
BRANCH  14  15
ATOM     15  N   UNL     1       2.348   7.960  18.420  0.00  0.00    +0.000 N 
ATOM     16  C   UNL     1       1.846   8.106  19.679  0.00  0.00    +0.000 A 
ATOM     17  C   UNL     1       1.152   9.296  19.683  0.00  0.00    +0.000 A 
ATOM     18  C   UNL     1       1.303   9.787  18.369  0.00  0.00    +0.000 A 
ATOM     19  N   UNL     1       2.024   8.969  17.596  0.00  0.00    +0.000 NA
BRANCH  17  20
ATOM     20  C   UNL     1       0.444   9.824  20.830  0.00  0.00    +0.000 A 
ATOM     21  C   UNL     1       0.329   9.065  22.006  0.00  0.00    +0.000 A 
ATOM     22  C   UNL     1      -0.398   9.551  23.093  0.00  0.00    +0.000 A 
ATOM     23  C   UNL     1      -1.008  10.797  23.012  0.00  0.00    +0.000 A 
ATOM     24  C   UNL     1      -0.881  11.574  21.861  0.00  0.00    +0.000 A 
ATOM     25  C   UNL     1      -0.152  11.090  20.773  0.00  0.00    +0.000 A 
ENDBRANCH  17  20
ENDBRANCH  14  15
ENDBRANCH   1  14
TORSDOF 7
ENDMDL
