MODEL 1
REMARK VINA RESULT:      -7.6      0.000      0.000
REMARK  Name = 
REMARK  3 active torsions:
REMARK  status: ('A' for Active; 'I' for Inactive)
REMARK    1  A    between atoms: C_1  and  C_2
REMARK    2  A    between atoms: C_6  and  C_7
REMARK    3  A    between atoms: C_8  and  N_9
REMARK                            x       y       z     vdW  Elec       q    Type
REMARK                         _______ _______ _______ _____ _____    ______ ____
ROOT
ATOM      1  N   UNL     1       4.691   4.827  19.774  0.00  0.00    +0.000 N 
ATOM      2  C   UNL     1       5.279   4.767  18.539  0.00  0.00    +0.000 A 
ATOM      3  N   UNL     1       4.640   4.863  17.420  0.00  0.00    +0.000 NA
ATOM      4  C   UNL     1       5.341   4.670  16.239  0.00  0.00    +0.000 A 
ATOM      5  C   UNL     1       4.639   4.601  15.034  0.00  0.00    +0.000 A 
ATOM      6  C   UNL     1       5.315   4.410  13.828  0.00  0.00    +0.000 A 
ATOM      7  C   UNL     1       6.704   4.291  13.823  0.00  0.00    +0.000 A 
ATOM      8  C   UNL     1       7.411   4.327  15.030  0.00  0.00    +0.000 A 
ATOM      9  C   UNL     1       6.714   4.503  16.232  0.00  0.00    +0.000 A 
ATOM     10  C   UNL     1       7.386   4.473  17.536  0.00  0.00    +0.000 A 
ATOM     11  O   UNL     1       8.600   4.314  17.605  0.00  0.00    +0.000 OA
ATOM     12  O   UNL     1       6.618   4.586  18.651  0.00  0.00    +0.000 OA
ATOM     13  H   UNL     1       5.328   4.618  20.538  0.00  0.00    +0.000 HD
ENDROOT
BRANCH   1  21
ATOM     14  C   UNL     1       4.325   1.985  20.228  0.00  0.00    +0.000 C 
ATOM     15  C   UNL     1       3.183   2.970  20.256  0.00  0.00    +0.000 A 
ATOM     16  C   UNL     1       1.890   2.460  20.464  0.00  0.00    +0.000 A 
ATOM     17  C   UNL     1       0.792   3.306  20.515  0.00  0.00    +0.000 A 
ATOM     18  C   UNL     1       0.968   4.671  20.334  0.00  0.00    +0.000 A 
ATOM     19  C   UNL     1       2.241   5.216  20.084  0.00  0.00    +0.000 A 
ATOM     20  C   UNL     1       2.292   6.702  19.843  0.00  0.00    +0.000 C 
ATOM     21  C   UNL     1       3.378   4.366  20.078  0.00  0.00    +0.000 A 
ENDBRANCH   1  21
TORSDOF 1
ENDMDL
MODEL 2
REMARK VINA RESULT:      -7.4      0.158      1.961
REMARK  Name = 
REMARK  3 active torsions:
REMARK  status: ('A' for Active; 'I' for Inactive)
REMARK    1  A    between atoms: C_1  and  C_2
REMARK    2  A    between atoms: C_6  and  C_7
REMARK    3  A    between atoms: C_8  and  N_9
REMARK                            x       y       z     vdW  Elec       q    Type
REMARK                         _______ _______ _______ _____ _____    ______ ____
ROOT
ATOM      1  N   UNL     1       4.632   4.772  19.626  0.00  0.00    +0.000 N 
ATOM      2  C   UNL     1       5.236   4.730  18.398  0.00  0.00    +0.000 A 
ATOM      3  N   UNL     1       4.605   4.762  17.271  0.00  0.00    +0.000 NA
ATOM      4  C   UNL     1       5.330   4.595  16.101  0.00  0.00    +0.000 A 
ATOM      5  C   UNL     1       4.648   4.457  14.891  0.00  0.00    +0.000 A 
ATOM      6  C   UNL     1       5.348   4.290  13.695  0.00  0.00    +0.000 A 
ATOM      7  C   UNL     1       6.743   4.265  13.706  0.00  0.00    +0.000 A 
ATOM      8  C   UNL     1       7.432   4.371  14.918  0.00  0.00    +0.000 A 
ATOM      9  C   UNL     1       6.711   4.522  16.111  0.00  0.00    +0.000 A 
ATOM     10  C   UNL     1       7.369   4.561  17.421  0.00  0.00    +0.000 A 
ATOM     11  O   UNL     1       8.590   4.486  17.505  0.00  0.00    +0.000 OA
ATOM     12  O   UNL     1       6.584   4.642  18.526  0.00  0.00    +0.000 OA
ATOM     13  H   UNL     1       5.273   4.621  20.400  0.00  0.00    +0.000 HD
ENDROOT
BRANCH   1  21
ATOM     14  C   UNL     1       2.384   6.601  19.760  0.00  0.00    +0.000 C 
ATOM     15  C   UNL     1       2.253   5.124  20.037  0.00  0.00    +0.000 A 
ATOM     16  C   UNL     1       0.988   4.647  20.422  0.00  0.00    +0.000 A 
ATOM     17  C   UNL     1       0.789   3.299  20.682  0.00  0.00    +0.000 A 
ATOM     18  C   UNL     1       1.854   2.414  20.584  0.00  0.00    +0.000 A 
ATOM     19  C   UNL     1       3.143   2.860  20.240  0.00  0.00    +0.000 A 
ATOM     20  C   UNL     1       4.227   1.815  20.228  0.00  0.00    +0.000 C 
ATOM     21  C   UNL     1       3.350   4.229  19.925  0.00  0.00    +0.000 A 
ENDBRANCH   1  21
TORSDOF 1
ENDMDL
MODEL 3
REMARK VINA RESULT:      -7.3      2.091      5.978
REMARK  Name = 
REMARK  3 active torsions:
REMARK  status: ('A' for Active; 'I' for Inactive)
REMARK    1  A    between atoms: C_1  and  C_2
REMARK    2  A    between atoms: C_6  and  C_7
REMARK    3  A    between atoms: C_8  and  N_9
REMARK                            x       y       z     vdW  Elec       q    Type
REMARK                         _______ _______ _______ _____ _____    ______ ____
ROOT
ATOM      1  N   UNL     1       6.535   4.104  18.292  0.00  0.00    +0.000 N 
ATOM      2  C   UNL     1       5.366   3.804  18.938  0.00  0.00    +0.000 A 
ATOM      3  N   UNL     1       4.266   4.470  18.809  0.00  0.00    +0.000 NA
ATOM      4  C   UNL     1       3.187   4.128  19.609  0.00  0.00    +0.000 A 
ATOM      5  C   UNL     1       2.052   4.942  19.605  0.00  0.00    +0.000 A 
ATOM      6  C   UNL     1       0.947   4.624  20.397  0.00  0.00    +0.000 A 
ATOM      7  C   UNL     1       0.974   3.483  21.198  0.00  0.00    +0.000 A 
ATOM      8  C   UNL     1       2.119   2.681  21.231  0.00  0.00    +0.000 A 
ATOM      9  C   UNL     1       3.224   3.025  20.441  0.00  0.00    +0.000 A 
ATOM     10  C   UNL     1       4.482   2.271  20.488  0.00  0.00    +0.000 A 
ATOM     11  O   UNL     1       4.591   1.289  21.215  0.00  0.00    +0.000 OA
ATOM     12  O   UNL     1       5.521   2.718  19.737  0.00  0.00    +0.000 OA
ATOM     13  H   UNL     1       7.325   3.545  18.600  0.00  0.00    +0.000 HD
ENDROOT
BRANCH   1  21
ATOM     14  C   UNL     1       8.300   5.497  20.125  0.00  0.00    +0.000 C 
ATOM     15  C   UNL     1       7.786   6.122  18.852  0.00  0.00    +0.000 A 
ATOM     16  C   UNL     1       8.153   7.454  18.589  0.00  0.00    +0.000 A 
ATOM     17  C   UNL     1       7.728   8.091  17.433  0.00  0.00    +0.000 A 
ATOM     18  C   UNL     1       6.912   7.416  16.535  0.00  0.00    +0.000 A 
ATOM     19  C   UNL     1       6.492   6.096  16.782  0.00  0.00    +0.000 A 
ATOM     20  C   UNL     1       5.559   5.494  15.764  0.00  0.00    +0.000 C 
ATOM     21  C   UNL     1       6.959   5.417  17.938  0.00  0.00    +0.000 A 
ENDBRANCH   1  21
TORSDOF 1
ENDMDL
MODEL 4
REMARK VINA RESULT:      -7.2      2.008      3.360
REMARK  Name = 
REMARK  3 active torsions:
REMARK  status: ('A' for Active; 'I' for Inactive)
REMARK    1  A    between atoms: C_1  and  C_2
REMARK    2  A    between atoms: C_6  and  C_7
REMARK    3  A    between atoms: C_8  and  N_9
REMARK                            x       y       z     vdW  Elec       q    Type
REMARK                         _______ _______ _______ _____ _____    ______ ____
ROOT
ATOM      1  N   UNL     1       3.691   2.801  17.990  0.00  0.00    +0.000 N 
ATOM      2  C   UNL     1       4.656   3.719  17.674  0.00  0.00    +0.000 A 
ATOM      3  N   UNL     1       5.424   4.299  18.536  0.00  0.00    +0.000 NA
ATOM      4  C   UNL     1       6.282   5.295  18.093  0.00  0.00    +0.000 A 
ATOM      5  C   UNL     1       6.992   6.048  19.031  0.00  0.00    +0.000 A 
ATOM      6  C   UNL     1       7.865   7.055  18.619  0.00  0.00    +0.000 A 
ATOM      7  C   UNL     1       8.035   7.312  17.259  0.00  0.00    +0.000 A 
ATOM      8  C   UNL     1       7.303   6.584  16.315  0.00  0.00    +0.000 A 
ATOM      9  C   UNL     1       6.419   5.586  16.749  0.00  0.00    +0.000 A 
ATOM     10  C   UNL     1       5.566   4.840  15.817  0.00  0.00    +0.000 A 
ATOM     11  O   UNL     1       5.625   5.058  14.612  0.00  0.00    +0.000 OA
ATOM     12  O   UNL     1       4.692   3.940  16.336  0.00  0.00    +0.000 OA
ATOM     13  H   UNL     1       3.108   2.536  17.201  0.00  0.00    +0.000 HD
ENDROOT
BRANCH   1  21
ATOM     14  C   UNL     1       1.073   4.048  17.951  0.00  0.00    +0.000 C 
ATOM     15  C   UNL     1       1.670   3.443  19.197  0.00  0.00    +0.000 A 
ATOM     16  C   UNL     1       0.929   3.543  20.387  0.00  0.00    +0.000 A 
ATOM     17  C   UNL     1       1.410   3.000  21.570  0.00  0.00    +0.000 A 
ATOM     18  C   UNL     1       2.647   2.370  21.584  0.00  0.00    +0.000 A 
ATOM     19  C   UNL     1       3.435   2.285  20.423  0.00  0.00    +0.000 A 
ATOM     20  C   UNL     1       4.784   1.633  20.581  0.00  0.00    +0.000 C 
ATOM     21  C   UNL     1       2.934   2.794  19.196  0.00  0.00    +0.000 A 
ENDBRANCH   1  21
TORSDOF 1
ENDMDL
MODEL 5
REMARK VINA RESULT:      -7.1      3.446      6.295
REMARK  Name = 
REMARK  3 active torsions:
REMARK  status: ('A' for Active; 'I' for Inactive)
REMARK    1  A    between atoms: C_1  and  C_2
REMARK    2  A    between atoms: C_6  and  C_7
REMARK    3  A    between atoms: C_8  and  N_9
REMARK                            x       y       z     vdW  Elec       q    Type
REMARK                         _______ _______ _______ _____ _____    ______ ____
ROOT
ATOM      1  N   UNL     1       3.608   6.112  18.106  0.00  0.00    +0.000 N 
ATOM      2  C   UNL     1       2.853   7.110  18.661  0.00  0.00    +0.000 A 
ATOM      3  N   UNL     1       2.397   7.095  19.871  0.00  0.00    +0.000 NA
ATOM      4  C   UNL     1       1.549   8.116  20.271  0.00  0.00    +0.000 A 
ATOM      5  C   UNL     1       0.914   8.026  21.512  0.00  0.00    +0.000 A 
ATOM      6  C   UNL     1       0.056   9.038  21.946  0.00  0.00    +0.000 A 
ATOM      7  C   UNL     1      -0.168  10.151  21.136  0.00  0.00    +0.000 A 
ATOM      8  C   UNL     1       0.439  10.233  19.879  0.00  0.00    +0.000 A 
ATOM      9  C   UNL     1       1.285   9.199  19.454  0.00  0.00    +0.000 A 
ATOM     10  C   UNL     1       1.891   9.186  18.117  0.00  0.00    +0.000 A 
ATOM     11  O   UNL     1       1.687  10.108  17.334  0.00  0.00    +0.000 OA
ATOM     12  O   UNL     1       2.643   8.110  17.770  0.00  0.00    +0.000 OA
ATOM     13  H   UNL     1       3.780   6.238  17.112  0.00  0.00    +0.000 HD
ENDROOT
BRANCH   1  21
ATOM     14  C   UNL     1       5.866   4.827  19.396  0.00  0.00    +0.000 C 
ATOM     15  C   UNL     1       4.612   4.082  19.012  0.00  0.00    +0.000 A 
ATOM     16  C   UNL     1       4.579   2.698  19.255  0.00  0.00    +0.000 A 
ATOM     17  C   UNL     1       3.456   1.948  18.939  0.00  0.00    +0.000 A 
ATOM     18  C   UNL     1       2.359   2.566  18.354  0.00  0.00    +0.000 A 
ATOM     19  C   UNL     1       2.369   3.942  18.059  0.00  0.00    +0.000 A 
ATOM     20  C   UNL     1       1.144   4.482  17.368  0.00  0.00    +0.000 C 
ATOM     21  C   UNL     1       3.494   4.728  18.421  0.00  0.00    +0.000 A 
ENDBRANCH   1  21
TORSDOF 1
ENDMDL
MODEL 6
REMARK VINA RESULT:      -7.0      2.162      6.095
REMARK  Name = 
REMARK  3 active torsions:
REMARK  status: ('A' for Active; 'I' for Inactive)
REMARK    1  A    between atoms: C_1  and  C_2
REMARK    2  A    between atoms: C_6  and  C_7
REMARK    3  A    between atoms: C_8  and  N_9
REMARK                            x       y       z     vdW  Elec       q    Type
REMARK                         _______ _______ _______ _____ _____    ______ ____
ROOT
ATOM      1  N   UNL     1       6.468   4.358  18.148  0.00  0.00    +0.000 N 
ATOM      2  C   UNL     1       5.310   3.970  18.769  0.00  0.00    +0.000 A 
ATOM      3  N   UNL     1       4.236   4.687  18.827  0.00  0.00    +0.000 NA
ATOM      4  C   UNL     1       3.172   4.224  19.585  0.00  0.00    +0.000 A 
ATOM      5  C   UNL     1       2.074   5.060  19.798  0.00  0.00    +0.000 A 
ATOM      6  C   UNL     1       0.985   4.623  20.555  0.00  0.00    +0.000 A 
ATOM      7  C   UNL     1       0.991   3.341  21.102  0.00  0.00    +0.000 A 
ATOM      8  C   UNL     1       2.101   2.510  20.921  0.00  0.00    +0.000 A 
ATOM      9  C   UNL     1       3.192   2.972  20.171  0.00  0.00    +0.000 A 
ATOM     10  C   UNL     1       4.417   2.181  20.008  0.00  0.00    +0.000 A 
ATOM     11  O   UNL     1       4.509   1.067  20.512  0.00  0.00    +0.000 OA
ATOM     12  O   UNL     1       5.447   2.738  19.320  0.00  0.00    +0.000 OA
ATOM     13  H   UNL     1       7.244   3.719  18.301  0.00  0.00    +0.000 HD
ENDROOT
BRANCH   1  21
ATOM     14  C   UNL     1       5.581   5.943  15.887  0.00  0.00    +0.000 C 
ATOM     15  C   UNL     1       6.541   6.467  16.925  0.00  0.00    +0.000 A 
ATOM     16  C   UNL     1       7.051   7.764  16.741  0.00  0.00    +0.000 A 
ATOM     17  C   UNL     1       7.930   8.317  17.660  0.00  0.00    +0.000 A 
ATOM     18  C   UNL     1       8.329   7.575  18.763  0.00  0.00    +0.000 A 
ATOM     19  C   UNL     1       7.871   6.259  18.961  0.00  0.00    +0.000 A 
ATOM     20  C   UNL     1       8.424   5.536  20.161  0.00  0.00    +0.000 C 
ATOM     21  C   UNL     1       6.934   5.699  18.053  0.00  0.00    +0.000 A 
ENDBRANCH   1  21
TORSDOF 1
ENDMDL
MODEL 7
REMARK VINA RESULT:      -7.0      2.220      3.693
REMARK  Name = 
REMARK  3 active torsions:
REMARK  status: ('A' for Active; 'I' for Inactive)
REMARK    1  A    between atoms: C_1  and  C_2
REMARK    2  A    between atoms: C_6  and  C_7
REMARK    3  A    between atoms: C_8  and  N_9
REMARK                            x       y       z     vdW  Elec       q    Type
REMARK                         _______ _______ _______ _____ _____    ______ ____
ROOT
ATOM      1  N   UNL     1       3.198   3.902  17.567  0.00  0.00    +0.000 N 
ATOM      2  C   UNL     1       4.310   4.700  17.520  0.00  0.00    +0.000 A 
ATOM      3  N   UNL     1       5.251   4.696  18.407  0.00  0.00    +0.000 NA
ATOM      4  C   UNL     1       6.264   5.636  18.300  0.00  0.00    +0.000 A 
ATOM      5  C   UNL     1       7.191   5.758  19.338  0.00  0.00    +0.000 A 
ATOM      6  C   UNL     1       8.225   6.692  19.261  0.00  0.00    +0.000 A 
ATOM      7  C   UNL     1       8.338   7.510  18.137  0.00  0.00    +0.000 A 
ATOM      8  C   UNL     1       7.394   7.417  17.109  0.00  0.00    +0.000 A 
ATOM      9  C   UNL     1       6.354   6.483  17.211  0.00  0.00    +0.000 A 
ATOM     10  C   UNL     1       5.289   6.387  16.206  0.00  0.00    +0.000 A 
ATOM     11  O   UNL     1       5.298   7.118  15.221  0.00  0.00    +0.000 OA
ATOM     12  O   UNL     1       4.286   5.498  16.424  0.00  0.00    +0.000 OA
ATOM     13  H   UNL     1       2.511   4.120  16.850  0.00  0.00    +0.000 HD
ENDROOT
BRANCH   1  21
ATOM     14  C   UNL     1       1.600   5.832  19.028  0.00  0.00    +0.000 C 
ATOM     15  C   UNL     1       1.808   4.416  19.505  0.00  0.00    +0.000 A 
ATOM     16  C   UNL     1       1.234   4.055  20.736  0.00  0.00    +0.000 A 
ATOM     17  C   UNL     1       1.373   2.767  21.233  0.00  0.00    +0.000 A 
ATOM     18  C   UNL     1       2.108   1.830  20.518  0.00  0.00    +0.000 A 
ATOM     19  C   UNL     1       2.730   2.165  19.302  0.00  0.00    +0.000 A 
ATOM     20  C   UNL     1       3.550   1.079  18.654  0.00  0.00    +0.000 C 
ATOM     21  C   UNL     1       2.555   3.465  18.759  0.00  0.00    +0.000 A 
ENDBRANCH   1  21
TORSDOF 1
ENDMDL
MODEL 8
REMARK VINA RESULT:      -7.0      3.767      5.753
REMARK  Name = 
REMARK  3 active torsions:
REMARK  status: ('A' for Active; 'I' for Inactive)
REMARK    1  A    between atoms: C_1  and  C_2
REMARK    2  A    between atoms: C_6  and  C_7
REMARK    3  A    between atoms: C_8  and  N_9
REMARK                            x       y       z     vdW  Elec       q    Type
REMARK                         _______ _______ _______ _____ _____    ______ ____
ROOT
ATOM      1  N   UNL     1       1.982   7.494  20.778  0.00  0.00    +0.000 N 
ATOM      2  C   UNL     1       2.149   6.197  20.372  0.00  0.00    +0.000 A 
ATOM      3  N   UNL     1       2.304   5.830  19.143  0.00  0.00    +0.000 NA
ATOM      4  C   UNL     1       2.347   4.474  18.858  0.00  0.00    +0.000 A 
ATOM      5  C   UNL     1       2.342   4.058  17.525  0.00  0.00    +0.000 A 
ATOM      6  C   UNL     1       2.387   2.700  17.204  0.00  0.00    +0.000 A 
ATOM      7  C   UNL     1       2.440   1.749  18.222  0.00  0.00    +0.000 A 
ATOM      8  C   UNL     1       2.412   2.156  19.560  0.00  0.00    +0.000 A 
ATOM      9  C   UNL     1       2.352   3.523  19.862  0.00  0.00    +0.000 A 
ATOM     10  C   UNL     1       2.242   4.013  21.241  0.00  0.00    +0.000 A 
ATOM     11  O   UNL     1       2.226   3.225  22.180  0.00  0.00    +0.000 OA
ATOM     12  O   UNL     1       2.121   5.352  21.433  0.00  0.00    +0.000 OA
ATOM     13  H   UNL     1       1.760   7.586  21.766  0.00  0.00    +0.000 HD
ENDROOT
BRANCH   1  21
ATOM     14  C   UNL     1      -0.335   8.780  21.956  0.00  0.00    +0.000 C 
ATOM     15  C   UNL     1       0.168   9.112  20.573  0.00  0.00    +0.000 A 
ATOM     16  C   UNL     1      -0.562  10.051  19.825  0.00  0.00    +0.000 A 
ATOM     17  C   UNL     1      -0.154  10.415  18.550  0.00  0.00    +0.000 A 
ATOM     18  C   UNL     1       0.976   9.828  17.997  0.00  0.00    +0.000 A 
ATOM     19  C   UNL     1       1.711   8.855  18.699  0.00  0.00    +0.000 A 
ATOM     20  C   UNL     1       2.879   8.248  17.967  0.00  0.00    +0.000 C 
ATOM     21  C   UNL     1       1.330   8.510  20.023  0.00  0.00    +0.000 A 
ENDBRANCH   1  21
TORSDOF 1
ENDMDL
MODEL 9
REMARK VINA RESULT:      -6.9      2.246      3.154
REMARK  Name = 
REMARK  3 active torsions:
REMARK  status: ('A' for Active; 'I' for Inactive)
REMARK    1  A    between atoms: C_1  and  C_2
REMARK    2  A    between atoms: C_6  and  C_7
REMARK    3  A    between atoms: C_8  and  N_9
REMARK                            x       y       z     vdW  Elec       q    Type
REMARK                         _______ _______ _______ _____ _____    ______ ____
ROOT
ATOM      1  N   UNL     1       3.273   4.041  17.831  0.00  0.00    +0.000 N 
ATOM      2  C   UNL     1       4.369   4.851  17.691  0.00  0.00    +0.000 A 
ATOM      3  N   UNL     1       5.363   4.886  18.516  0.00  0.00    +0.000 NA
ATOM      4  C   UNL     1       6.355   5.834  18.317  0.00  0.00    +0.000 A 
ATOM      5  C   UNL     1       7.343   5.999  19.290  0.00  0.00    +0.000 A 
ATOM      6  C   UNL     1       8.357   6.943  19.119  0.00  0.00    +0.000 A 
ATOM      7  C   UNL     1       8.387   7.727  17.966  0.00  0.00    +0.000 A 
ATOM      8  C   UNL     1       7.383   7.590  17.003  0.00  0.00    +0.000 A 
ATOM      9  C   UNL     1       6.364   6.648  17.199  0.00  0.00    +0.000 A 
ATOM     10  C   UNL     1       5.240   6.507  16.266  0.00  0.00    +0.000 A 
ATOM     11  O   UNL     1       5.177   7.207  15.261  0.00  0.00    +0.000 OA
ATOM     12  O   UNL     1       4.265   5.614  16.574  0.00  0.00    +0.000 OA
ATOM     13  H   UNL     1       2.540   4.229  17.153  0.00  0.00    +0.000 HD
ENDROOT
BRANCH   1  21
ATOM     14  C   UNL     1       3.373   1.221  18.503  0.00  0.00    +0.000 C 
ATOM     15  C   UNL     1       2.717   2.249  19.390  0.00  0.00    +0.000 A 
ATOM     16  C   UNL     1       2.091   1.790  20.562  0.00  0.00    +0.000 A 
ATOM     17  C   UNL     1       1.477   2.679  21.433  0.00  0.00    +0.000 A 
ATOM     18  C   UNL     1       1.459   4.034  21.133  0.00  0.00    +0.000 A 
ATOM     19  C   UNL     1       2.040   4.527  19.950  0.00  0.00    +0.000 A 
ATOM     20  C   UNL     1       1.900   6.007  19.708  0.00  0.00    +0.000 C 
ATOM     21  C   UNL     1       2.713   3.634  19.075  0.00  0.00    +0.000 A 
ENDBRANCH   1  21
TORSDOF 1
ENDMDL
