MODEL 1
REMARK VINA RESULT:      -7.1      0.000      0.000
REMARK  Name = 
REMARK  7 active torsions:
REMARK  status: ('A' for Active; 'I' for Inactive)
REMARK    1  A    between atoms: C_1  and  C_2
REMARK    2  A    between atoms: C_2  and  C_18
REMARK    3  A    between atoms: N_3  and  N_4
REMARK    4  A    between atoms: N_4  and  C_5
REMARK    5  A    between atoms: C_8  and  S_9
REMARK    6  A    between atoms: S_9  and  N_10
REMARK    7  A    between atoms: C_14  and  N_15
REMARK                            x       y       z     vdW  Elec       q    Type
REMARK                         _______ _______ _______ _____ _____    ______ ____
ROOT
ATOM      1  C   UNL     1       1.215   8.972  20.114  0.00  0.00    +0.000 A 
ATOM      2  C   UNL     1       0.997   9.293  18.758  0.00  0.00    +0.000 A 
ATOM      3  C   UNL     1       0.038  10.225  18.362  0.00  0.00    +0.000 A 
ATOM      4  C   UNL     1      -0.731  10.868  19.328  0.00  0.00    +0.000 A 
ATOM      5  C   UNL     1      -0.508  10.631  20.687  0.00  0.00    +0.000 A 
ATOM      6  C   UNL     1       0.475   9.696  21.078  0.00  0.00    +0.000 A 
ENDROOT
BRANCH   4   7
ATOM      7  S   UNL     1      -1.966  12.028  18.815  0.00  0.00    +0.000 S 
ATOM      8  O   UNL     1      -3.124  11.305  18.353  0.00  0.00    +0.000 OA
ATOM      9  O   UNL     1      -2.046  13.089  19.790  0.00  0.00    +0.000 OA
BRANCH   7  10
ATOM     10  N   UNL     1      -1.249  12.693  17.452  0.00  0.00    +0.000 NA
ATOM     11  H   UNL     1      -1.520  12.164  16.622  0.00  0.00    +0.000 HD
ATOM     12  H   UNL     1      -1.466  13.689  17.393  0.00  0.00    +0.000 HD
ENDBRANCH   7  10
ENDBRANCH   4   7
BRANCH   6  13
ATOM     13  N   UNL     1       0.679   9.486  22.519  0.00  0.00    +0.000 N 
ATOM     14  O   UNL     1      -0.320   9.362  23.245  0.00  0.00    +0.000 OA
ATOM     15  O   UNL     1       1.846   9.454  22.938  0.00  0.00    +0.000 OA
ENDBRANCH   6  13
BRANCH   1  16
ATOM     16  N   UNL     1       2.211   8.008  20.431  0.00  0.00    +0.000 N 
ATOM     17  H   UNL     1       2.753   8.252  21.269  0.00  0.00    +0.000 HD
BRANCH  16  20
ATOM     18  C   UNL     1       3.433   6.575  18.309  0.00  0.00    +0.000 C 
ATOM     19  C   UNL     1       2.414   6.024  19.284  0.00  0.00    +0.000 C 
ATOM     20  N   UNL     1       1.861   6.708  20.243  0.00  0.00    +0.000 NA
BRANCH  19  21
ATOM     21  C   UNL     1       1.995   4.594  19.112  0.00  0.00    +0.000 A 
ATOM     22  C   UNL     1       1.323   3.875  20.105  0.00  0.00    +0.000 A 
ATOM     23  C   UNL     1       0.973   2.544  19.880  0.00  0.00    +0.000 A 
ATOM     24  C   UNL     1       1.306   1.968  18.666  0.00  0.00    +0.000 A 
ATOM     25  N   UNL     1       1.952   2.626  17.682  0.00  0.00    +0.000 NA
ATOM     26  C   UNL     1       2.281   3.922  17.926  0.00  0.00    +0.000 A 
ENDBRANCH  19  21
ENDBRANCH  16  20
ENDBRANCH   1  16
TORSDOF 6
ENDMDL
MODEL 2
REMARK VINA RESULT:      -7.1      3.837      5.500
REMARK  Name = 
REMARK  7 active torsions:
REMARK  status: ('A' for Active; 'I' for Inactive)
REMARK    1  A    between atoms: C_1  and  C_2
REMARK    2  A    between atoms: C_2  and  C_18
REMARK    3  A    between atoms: N_3  and  N_4
REMARK    4  A    between atoms: N_4  and  C_5
REMARK    5  A    between atoms: C_8  and  S_9
REMARK    6  A    between atoms: S_9  and  N_10
REMARK    7  A    between atoms: C_14  and  N_15
REMARK                            x       y       z     vdW  Elec       q    Type
REMARK                         _______ _______ _______ _____ _____    ______ ____
ROOT
ATOM      1  C   UNL     1       2.450   4.997  19.105  0.00  0.00    +0.000 A 
ATOM      2  C   UNL     1       2.635   6.263  18.511  0.00  0.00    +0.000 A 
ATOM      3  C   UNL     1       2.183   7.437  19.113  0.00  0.00    +0.000 A 
ATOM      4  C   UNL     1       1.531   7.369  20.341  0.00  0.00    +0.000 A 
ATOM      5  C   UNL     1       1.382   6.145  20.999  0.00  0.00    +0.000 A 
ATOM      6  C   UNL     1       1.855   4.965  20.388  0.00  0.00    +0.000 A 
ENDROOT
BRANCH   4   7
ATOM      7  S   UNL     1       0.936   8.861  21.085  0.00  0.00    +0.000 S 
ATOM      8  O   UNL     1       1.198   9.964  20.195  0.00  0.00    +0.000 OA
ATOM      9  O   UNL     1      -0.365   8.613  21.659  0.00  0.00    +0.000 OA
BRANCH   7  10
ATOM     10  N   UNL     1       1.995   9.034  22.374  0.00  0.00    +0.000 NA
ATOM     11  H   UNL     1       2.942   9.194  22.029  0.00  0.00    +0.000 HD
ATOM     12  H   UNL     1       1.661   9.762  23.007  0.00  0.00    +0.000 HD
ENDBRANCH   7  10
ENDBRANCH   4   7
BRANCH   6  13
ATOM     13  N   UNL     1       1.682   3.702  21.121  0.00  0.00    +0.000 N 
ATOM     14  O   UNL     1       0.950   2.829  20.629  0.00  0.00    +0.000 OA
ATOM     15  O   UNL     1       2.272   3.579  22.205  0.00  0.00    +0.000 OA
ENDBRANCH   6  13
BRANCH   1  16
ATOM     16  N   UNL     1       2.939   3.850  18.422  0.00  0.00    +0.000 N 
ATOM     17  H   UNL     1       2.258   3.081  18.389  0.00  0.00    +0.000 HD
BRANCH  16  20
ATOM     18  C   UNL     1       5.747   4.119  18.731  0.00  0.00    +0.000 C 
ATOM     19  C   UNL     1       4.983   4.211  17.427  0.00  0.00    +0.000 C 
ATOM     20  N   UNL     1       3.691   4.093  17.315  0.00  0.00    +0.000 NA
BRANCH  19  21
ATOM     21  C   UNL     1       5.772   4.481  16.181  0.00  0.00    +0.000 A 
ATOM     22  C   UNL     1       5.483   3.878  14.954  0.00  0.00    +0.000 A 
ATOM     23  C   UNL     1       6.267   4.169  13.837  0.00  0.00    +0.000 A 
ATOM     24  C   UNL     1       7.319   5.056  13.980  0.00  0.00    +0.000 A 
ATOM     25  N   UNL     1       7.630   5.661  15.144  0.00  0.00    +0.000 NA
ATOM     26  C   UNL     1       6.851   5.360  16.217  0.00  0.00    +0.000 A 
ENDBRANCH  19  21
ENDBRANCH  16  20
ENDBRANCH   1  16
TORSDOF 6
ENDMDL
MODEL 3
REMARK VINA RESULT:      -7.1      1.284      2.265
REMARK  Name = 
REMARK  7 active torsions:
REMARK  status: ('A' for Active; 'I' for Inactive)
REMARK    1  A    between atoms: C_1  and  C_2
REMARK    2  A    between atoms: C_2  and  C_18
REMARK    3  A    between atoms: N_3  and  N_4
REMARK    4  A    between atoms: N_4  and  C_5
REMARK    5  A    between atoms: C_8  and  S_9
REMARK    6  A    between atoms: S_9  and  N_10
REMARK    7  A    between atoms: C_14  and  N_15
REMARK                            x       y       z     vdW  Elec       q    Type
REMARK                         _______ _______ _______ _____ _____    ______ ____
ROOT
ATOM      1  C   UNL     1       1.144   8.969  20.313  0.00  0.00    +0.000 A 
ATOM      2  C   UNL     1       1.206   9.357  18.958  0.00  0.00    +0.000 A 
ATOM      3  C   UNL     1       0.616  10.533  18.496  0.00  0.00    +0.000 A 
ATOM      4  C   UNL     1      -0.053  11.362  19.394  0.00  0.00    +0.000 A 
ATOM      5  C   UNL     1      -0.085  11.053  20.756  0.00  0.00    +0.000 A 
ATOM      6  C   UNL     1       0.526   9.866  21.216  0.00  0.00    +0.000 A 
ENDROOT
BRANCH   4   7
ATOM      7  S   UNL     1      -0.823  12.839  18.794  0.00  0.00    +0.000 S 
ATOM      8  O   UNL     1      -1.896  13.201  19.685  0.00  0.00    +0.000 OA
ATOM      9  O   UNL     1       0.202  13.770  18.387  0.00  0.00    +0.000 OA
BRANCH   7  10
ATOM     10  N   UNL     1      -1.545  12.287  17.385  0.00  0.00    +0.000 NA
ATOM     11  H   UNL     1      -2.487  11.949  17.585  0.00  0.00    +0.000 HD
ATOM     12  H   UNL     1      -1.514  13.013  16.668  0.00  0.00    +0.000 HD
ENDBRANCH   7  10
ENDBRANCH   4   7
BRANCH   6  13
ATOM     13  N   UNL     1       0.473   9.588  22.659  0.00  0.00    +0.000 N 
ATOM     14  O   UNL     1       1.541   9.530  23.288  0.00  0.00    +0.000 OA
ATOM     15  O   UNL     1      -0.642   9.414  23.172  0.00  0.00    +0.000 OA
ENDBRANCH   6  13
BRANCH   1  16
ATOM     16  N   UNL     1       1.769   7.752  20.699  0.00  0.00    +0.000 N 
ATOM     17  H   UNL     1       1.182   7.178  21.317  0.00  0.00    +0.000 HD
BRANCH  16  20
ATOM     18  C   UNL     1       1.705   4.918  20.586  0.00  0.00    +0.000 C 
ATOM     19  C   UNL     1       2.480   5.829  19.655  0.00  0.00    +0.000 C 
ATOM     20  N   UNL     1       2.499   7.127  19.736  0.00  0.00    +0.000 NA
BRANCH  19  21
ATOM     21  C   UNL     1       3.302   5.182  18.581  0.00  0.00    +0.000 A 
ATOM     22  C   UNL     1       4.055   5.913  17.658  0.00  0.00    +0.000 A 
ATOM     23  C   UNL     1       4.789   5.245  16.677  0.00  0.00    +0.000 A 
ATOM     24  C   UNL     1       4.748   3.861  16.648  0.00  0.00    +0.000 A 
ATOM     25  N   UNL     1       4.036   3.119  17.520  0.00  0.00    +0.000 NA
ATOM     26  C   UNL     1       3.330   3.795  18.466  0.00  0.00    +0.000 A 
ENDBRANCH  19  21
ENDBRANCH  16  20
ENDBRANCH   1  16
TORSDOF 6
ENDMDL
MODEL 4
REMARK VINA RESULT:      -7.1      3.845      5.499
REMARK  Name = 
REMARK  7 active torsions:
REMARK  status: ('A' for Active; 'I' for Inactive)
REMARK    1  A    between atoms: C_1  and  C_2
REMARK    2  A    between atoms: C_2  and  C_18
REMARK    3  A    between atoms: N_3  and  N_4
REMARK    4  A    between atoms: N_4  and  C_5
REMARK    5  A    between atoms: C_8  and  S_9
REMARK    6  A    between atoms: S_9  and  N_10
REMARK    7  A    between atoms: C_14  and  N_15
REMARK                            x       y       z     vdW  Elec       q    Type
REMARK                         _______ _______ _______ _____ _____    ______ ____
ROOT
ATOM      1  C   UNL     1       2.599   5.043  19.229  0.00  0.00    +0.000 A 
ATOM      2  C   UNL     1       2.856   6.303  18.649  0.00  0.00    +0.000 A 
ATOM      3  C   UNL     1       2.375   7.487  19.206  0.00  0.00    +0.000 A 
ATOM      4  C   UNL     1       1.621   7.437  20.375  0.00  0.00    +0.000 A 
ATOM      5  C   UNL     1       1.396   6.219  21.022  0.00  0.00    +0.000 A 
ATOM      6  C   UNL     1       1.898   5.027  20.457  0.00  0.00    +0.000 A 
ENDROOT
BRANCH   4   7
ATOM      7  S   UNL     1       0.992   8.942  21.061  0.00  0.00    +0.000 S 
ATOM      8  O   UNL     1       1.771   9.289  22.223  0.00  0.00    +0.000 OA
ATOM      9  O   UNL     1       0.732   9.874  19.990  0.00  0.00    +0.000 OA
BRANCH   7  10
ATOM     10  N   UNL     1      -0.507   8.446  21.629  0.00  0.00    +0.000 NA
ATOM     11  H   UNL     1      -0.505   7.437  21.781  0.00  0.00    +0.000 HD
ATOM     12  H   UNL     1      -0.763   8.985  22.457  0.00  0.00    +0.000 HD
ENDBRANCH   7  10
ENDBRANCH   4   7
BRANCH   6  13
ATOM     13  N   UNL     1       1.642   3.771  21.178  0.00  0.00    +0.000 N 
ATOM     14  O   UNL     1       2.243   3.570  22.245  0.00  0.00    +0.000 OA
ATOM     15  O   UNL     1       0.842   2.969  20.673  0.00  0.00    +0.000 OA
ENDBRANCH   6  13
BRANCH   1  16
ATOM     16  N   UNL     1       3.124   3.885  18.593  0.00  0.00    +0.000 N 
ATOM     17  H   UNL     1       2.487   3.079  18.638  0.00  0.00    +0.000 HD
BRANCH  16  20
ATOM     18  C   UNL     1       5.933   4.248  18.749  0.00  0.00    +0.000 C 
ATOM     19  C   UNL     1       5.104   4.259  17.482  0.00  0.00    +0.000 C 
ATOM     20  N   UNL     1       3.813   4.099  17.441  0.00  0.00    +0.000 NA
BRANCH  19  21
ATOM     21  C   UNL     1       5.822   4.497  16.187  0.00  0.00    +0.000 A 
ATOM     22  C   UNL     1       5.442   3.891  14.986  0.00  0.00    +0.000 A 
ATOM     23  C   UNL     1       6.163   4.149  13.820  0.00  0.00    +0.000 A 
ATOM     24  C   UNL     1       7.246   5.008  13.889  0.00  0.00    +0.000 A 
ATOM     25  N   UNL     1       7.645   5.614  15.026  0.00  0.00    +0.000 NA
ATOM     26  C   UNL     1       6.925   5.345  16.148  0.00  0.00    +0.000 A 
ENDBRANCH  19  21
ENDBRANCH  16  20
ENDBRANCH   1  16
TORSDOF 6
ENDMDL
MODEL 5
REMARK VINA RESULT:      -7.0      1.763      2.476
REMARK  Name = 
REMARK  7 active torsions:
REMARK  status: ('A' for Active; 'I' for Inactive)
REMARK    1  A    between atoms: C_1  and  C_2
REMARK    2  A    between atoms: C_2  and  C_18
REMARK    3  A    between atoms: N_3  and  N_4
REMARK    4  A    between atoms: N_4  and  C_5
REMARK    5  A    between atoms: C_8  and  S_9
REMARK    6  A    between atoms: S_9  and  N_10
REMARK    7  A    between atoms: C_14  and  N_15
REMARK                            x       y       z     vdW  Elec       q    Type
REMARK                         _______ _______ _______ _____ _____    ______ ____
ROOT
ATOM      1  C   UNL     1       1.154   8.914  20.280  0.00  0.00    +0.000 A 
ATOM      2  C   UNL     1       1.233   9.304  18.926  0.00  0.00    +0.000 A 
ATOM      3  C   UNL     1       0.733  10.526  18.477  0.00  0.00    +0.000 A 
ATOM      4  C   UNL     1       0.140  11.399  19.386  0.00  0.00    +0.000 A 
ATOM      5  C   UNL     1       0.098  11.085  20.747  0.00  0.00    +0.000 A 
ATOM      6  C   UNL     1       0.618   9.851  21.194  0.00  0.00    +0.000 A 
ENDROOT
BRANCH   4   7
ATOM      7  S   UNL     1      -0.516  12.936  18.803  0.00  0.00    +0.000 S 
ATOM      8  O   UNL     1      -1.545  13.379  19.711  0.00  0.00    +0.000 OA
ATOM      9  O   UNL     1       0.574  13.784  18.385  0.00  0.00    +0.000 OA
BRANCH   7  10
ATOM     10  N   UNL     1      -1.300  12.451  17.402  0.00  0.00    +0.000 NA
ATOM     11  H   UNL     1      -1.373  13.235  16.753  0.00  0.00    +0.000 HD
ATOM     12  H   UNL     1      -0.836  11.632  17.006  0.00  0.00    +0.000 HD
ENDBRANCH   7  10
ENDBRANCH   4   7
BRANCH   6  13
ATOM     13  N   UNL     1       0.558   9.569  22.636  0.00  0.00    +0.000 N 
ATOM     14  O   UNL     1      -0.555   9.519  23.181  0.00  0.00    +0.000 OA
ATOM     15  O   UNL     1       1.630   9.405  23.236  0.00  0.00    +0.000 OA
ENDBRANCH   6  13
BRANCH   1  16
ATOM     16  N   UNL     1       1.686   7.649  20.652  0.00  0.00    +0.000 N 
ATOM     17  H   UNL     1       0.981   7.022  21.061  0.00  0.00    +0.000 HD
BRANCH  16  20
ATOM     18  C   UNL     1       2.116   4.845  20.712  0.00  0.00    +0.000 C 
ATOM     19  C   UNL     1       2.818   5.834  19.804  0.00  0.00    +0.000 C 
ATOM     20  N   UNL     1       2.607   7.118  19.805  0.00  0.00    +0.000 NA
BRANCH  19  21
ATOM     21  C   UNL     1       3.846   5.293  18.856  0.00  0.00    +0.000 A 
ATOM     22  C   UNL     1       3.582   5.060  17.503  0.00  0.00    +0.000 A 
ATOM     23  C   UNL     1       4.584   4.544  16.680  0.00  0.00    +0.000 A 
ATOM     24  C   UNL     1       5.823   4.276  17.236  0.00  0.00    +0.000 A 
ATOM     25  N   UNL     1       6.119   4.488  18.534  0.00  0.00    +0.000 NA
ATOM     26  C   UNL     1       5.125   4.991  19.314  0.00  0.00    +0.000 A 
ENDBRANCH  19  21
ENDBRANCH  16  20
ENDBRANCH   1  16
TORSDOF 6
ENDMDL
MODEL 6
REMARK VINA RESULT:      -7.0      1.291      1.831
REMARK  Name = 
REMARK  7 active torsions:
REMARK  status: ('A' for Active; 'I' for Inactive)
REMARK    1  A    between atoms: C_1  and  C_2
REMARK    2  A    between atoms: C_2  and  C_18
REMARK    3  A    between atoms: N_3  and  N_4
REMARK    4  A    between atoms: N_4  and  C_5
REMARK    5  A    between atoms: C_8  and  S_9
REMARK    6  A    between atoms: S_9  and  N_10
REMARK    7  A    between atoms: C_14  and  N_15
REMARK                            x       y       z     vdW  Elec       q    Type
REMARK                         _______ _______ _______ _____ _____    ______ ____
ROOT
ATOM      1  C   UNL     1       0.964   8.974  20.440  0.00  0.00    +0.000 A 
ATOM      2  C   UNL     1       0.866   9.256  19.062  0.00  0.00    +0.000 A 
ATOM      3  C   UNL     1       0.034  10.259  18.567  0.00  0.00    +0.000 A 
ATOM      4  C   UNL     1      -0.725  11.018  19.455  0.00  0.00    +0.000 A 
ATOM      5  C   UNL     1      -0.613  10.819  20.834  0.00  0.00    +0.000 A 
ATOM      6  C   UNL     1       0.242   9.809  21.324  0.00  0.00    +0.000 A 
ENDROOT
BRANCH   4   7
ATOM      7  S   UNL     1      -1.799  12.272  18.817  0.00  0.00    +0.000 S 
ATOM      8  O   UNL     1      -2.919  11.640  18.165  0.00  0.00    +0.000 OA
ATOM      9  O   UNL     1      -1.957  13.305  19.812  0.00  0.00    +0.000 OA
BRANCH   7  10
ATOM     10  N   UNL     1      -0.853  12.930  17.599  0.00  0.00    +0.000 NA
ATOM     11  H   UNL     1      -1.008  12.425  16.725  0.00  0.00    +0.000 HD
ATOM     12  H   UNL     1      -1.023  13.934  17.527  0.00  0.00    +0.000 HD
ENDBRANCH   7  10
ENDBRANCH   4   7
BRANCH   6  13
ATOM     13  N   UNL     1       0.332   9.643  22.783  0.00  0.00    +0.000 N 
ATOM     14  O   UNL     1      -0.721   9.606  23.439  0.00  0.00    +0.000 OA
ATOM     15  O   UNL     1       1.462   9.559  23.285  0.00  0.00    +0.000 OA
ENDBRANCH   6  13
BRANCH   1  16
ATOM     16  N   UNL     1       1.834   7.930  20.859  0.00  0.00    +0.000 N 
ATOM     17  H   UNL     1       1.472   7.405  21.665  0.00  0.00    +0.000 HD
BRANCH  16  20
ATOM     18  C   UNL     1       1.584   5.104  20.821  0.00  0.00    +0.000 C 
ATOM     19  C   UNL     1       2.349   5.943  19.819  0.00  0.00    +0.000 C 
ATOM     20  N   UNL     1       2.455   7.240  19.866  0.00  0.00    +0.000 NA
BRANCH  19  21
ATOM     21  C   UNL     1       3.054   5.223  18.708  0.00  0.00    +0.000 A 
ATOM     22  C   UNL     1       2.534   4.080  18.095  0.00  0.00    +0.000 A 
ATOM     23  C   UNL     1       3.250   3.454  17.074  0.00  0.00    +0.000 A 
ATOM     24  C   UNL     1       4.469   3.991  16.696  0.00  0.00    +0.000 A 
ATOM     25  N   UNL     1       5.005   5.092  17.261  0.00  0.00    +0.000 NA
ATOM     26  C   UNL     1       4.287   5.682  18.253  0.00  0.00    +0.000 A 
ENDBRANCH  19  21
ENDBRANCH  16  20
ENDBRANCH   1  16
TORSDOF 6
ENDMDL
MODEL 7
REMARK VINA RESULT:      -7.0      1.209      2.108
REMARK  Name = 
REMARK  7 active torsions:
REMARK  status: ('A' for Active; 'I' for Inactive)
REMARK    1  A    between atoms: C_1  and  C_2
REMARK    2  A    between atoms: C_2  and  C_18
REMARK    3  A    between atoms: N_3  and  N_4
REMARK    4  A    between atoms: N_4  and  C_5
REMARK    5  A    between atoms: C_8  and  S_9
REMARK    6  A    between atoms: S_9  and  N_10
REMARK    7  A    between atoms: C_14  and  N_15
REMARK                            x       y       z     vdW  Elec       q    Type
REMARK                         _______ _______ _______ _____ _____    ______ ____
ROOT
ATOM      1  C   UNL     1       1.054   8.858  20.163  0.00  0.00    +0.000 A 
ATOM      2  C   UNL     1       0.883   9.117  18.787  0.00  0.00    +0.000 A 
ATOM      3  C   UNL     1       0.001  10.091  18.320  0.00  0.00    +0.000 A 
ATOM      4  C   UNL     1      -0.734  10.842  19.233  0.00  0.00    +0.000 A 
ATOM      5  C   UNL     1      -0.551  10.667  20.607  0.00  0.00    +0.000 A 
ATOM      6  C   UNL     1       0.354   9.687  21.070  0.00  0.00    +0.000 A 
ENDROOT
BRANCH   4   7
ATOM      7  S   UNL     1      -1.872  12.058  18.632  0.00  0.00    +0.000 S 
ATOM      8  O   UNL     1      -2.817  11.419  17.751  0.00  0.00    +0.000 OA
ATOM      9  O   UNL     1      -2.275  12.906  19.727  0.00  0.00    +0.000 OA
BRANCH   7  10
ATOM     10  N   UNL     1      -0.874  12.990  17.656  0.00  0.00    +0.000 NA
ATOM     11  H   UNL     1      -0.329  12.388  17.038  0.00  0.00    +0.000 HD
ATOM     12  H   UNL     1      -1.426  13.693  17.162  0.00  0.00    +0.000 HD
ENDBRANCH   7  10
ENDBRANCH   4   7
BRANCH   6  13
ATOM     13  N   UNL     1       0.519   9.545  22.524  0.00  0.00    +0.000 N 
ATOM     14  O   UNL     1      -0.499   9.531  23.235  0.00  0.00    +0.000 OA
ATOM     15  O   UNL     1       1.673   9.458  22.968  0.00  0.00    +0.000 OA
ENDBRANCH   6  13
BRANCH   1  16
ATOM     16  N   UNL     1       1.971   7.844  20.553  0.00  0.00    +0.000 N 
ATOM     17  H   UNL     1       1.617   7.255  21.317  0.00  0.00    +0.000 HD
BRANCH  16  20
ATOM     18  C   UNL     1       2.166   5.013  20.543  0.00  0.00    +0.000 C 
ATOM     19  C   UNL     1       2.759   5.949  19.510  0.00  0.00    +0.000 C 
ATOM     20  N   UNL     1       2.662   7.247  19.545  0.00  0.00    +0.000 NA
BRANCH  19  21
ATOM     21  C   UNL     1       3.533   5.334  18.383  0.00  0.00    +0.000 A 
ATOM     22  C   UNL     1       4.231   6.093  17.440  0.00  0.00    +0.000 A 
ATOM     23  C   UNL     1       4.922   5.454  16.410  0.00  0.00    +0.000 A 
ATOM     24  C   UNL     1       4.894   4.071  16.353  0.00  0.00    +0.000 A 
ATOM     25  N   UNL     1       4.233   3.303  17.243  0.00  0.00    +0.000 NA
ATOM     26  C   UNL     1       3.569   3.950  18.236  0.00  0.00    +0.000 A 
ENDBRANCH  19  21
ENDBRANCH  16  20
ENDBRANCH   1  16
TORSDOF 6
ENDMDL
MODEL 8
REMARK VINA RESULT:      -6.9      0.804      1.296
REMARK  Name = 
REMARK  7 active torsions:
REMARK  status: ('A' for Active; 'I' for Inactive)
REMARK    1  A    between atoms: C_1  and  C_2
REMARK    2  A    between atoms: C_2  and  C_18
REMARK    3  A    between atoms: N_3  and  N_4
REMARK    4  A    between atoms: N_4  and  C_5
REMARK    5  A    between atoms: C_8  and  S_9
REMARK    6  A    between atoms: S_9  and  N_10
REMARK    7  A    between atoms: C_14  and  N_15
REMARK                            x       y       z     vdW  Elec       q    Type
REMARK                         _______ _______ _______ _____ _____    ______ ____
ROOT
ATOM      1  C   UNL     1       1.180   8.923  20.041  0.00  0.00    +0.000 A 
ATOM      2  C   UNL     1       1.107   9.179  18.656  0.00  0.00    +0.000 A 
ATOM      3  C   UNL     1       0.170  10.056  18.112  0.00  0.00    +0.000 A 
ATOM      4  C   UNL     1      -0.724  10.711  18.955  0.00  0.00    +0.000 A 
ATOM      5  C   UNL     1      -0.649  10.540  20.340  0.00  0.00    +0.000 A 
ATOM      6  C   UNL     1       0.312   9.660  20.881  0.00  0.00    +0.000 A 
ENDROOT
BRANCH   4   7
ATOM      7  S   UNL     1      -1.929  11.803  18.254  0.00  0.00    +0.000 S 
ATOM      8  O   UNL     1      -2.486  11.189  17.075  0.00  0.00    +0.000 OA
ATOM      9  O   UNL     1      -2.746  12.342  19.314  0.00  0.00    +0.000 OA
BRANCH   7  10
ATOM     10  N   UNL     1      -0.960  13.063  17.718  0.00  0.00    +0.000 NA
ATOM     11  H   UNL     1      -0.764  13.704  18.487  0.00  0.00    +0.000 HD
ATOM     12  H   UNL     1      -0.122  12.693  17.267  0.00  0.00    +0.000 HD
ENDBRANCH   7  10
ENDBRANCH   4   7
BRANCH   6  13
ATOM     13  N   UNL     1       0.359   9.518  22.345  0.00  0.00    +0.000 N 
ATOM     14  O   UNL     1       1.469   9.458  22.896  0.00  0.00    +0.000 OA
ATOM     15  O   UNL     1      -0.720   9.455  22.952  0.00  0.00    +0.000 OA
ENDBRANCH   6  13
BRANCH   1  16
ATOM     16  N   UNL     1       2.163   8.011  20.511  0.00  0.00    +0.000 N 
ATOM     17  H   UNL     1       2.608   8.315  21.386  0.00  0.00    +0.000 HD
BRANCH  16  20
ATOM     18  C   UNL     1       3.578   6.532  18.546  0.00  0.00    +0.000 C 
ATOM     19  C   UNL     1       2.511   5.986  19.474  0.00  0.00    +0.000 C 
ATOM     20  N   UNL     1       1.871   6.691  20.361  0.00  0.00    +0.000 NA
BRANCH  19  21
ATOM     21  C   UNL     1       2.154   4.536  19.340  0.00  0.00    +0.000 A 
ATOM     22  C   UNL     1       2.280   3.831  18.140  0.00  0.00    +0.000 A 
ATOM     23  C   UNL     1       1.918   2.485  18.085  0.00  0.00    +0.000 A 
ATOM     24  C   UNL     1       1.439   1.882  19.235  0.00  0.00    +0.000 A 
ATOM     25  N   UNL     1       1.303   2.525  20.412  0.00  0.00    +0.000 NA
ATOM     26  C   UNL     1       1.663   3.836  20.439  0.00  0.00    +0.000 A 
ENDBRANCH  19  21
ENDBRANCH  16  20
ENDBRANCH   1  16
TORSDOF 6
ENDMDL
MODEL 9
REMARK VINA RESULT:      -6.9      5.007      8.249
REMARK  Name = 
REMARK  7 active torsions:
REMARK  status: ('A' for Active; 'I' for Inactive)
REMARK    1  A    between atoms: C_1  and  C_2
REMARK    2  A    between atoms: C_2  and  C_18
REMARK    3  A    between atoms: N_3  and  N_4
REMARK    4  A    between atoms: N_4  and  C_5
REMARK    5  A    between atoms: C_8  and  S_9
REMARK    6  A    between atoms: S_9  and  N_10
REMARK    7  A    between atoms: C_14  and  N_15
REMARK                            x       y       z     vdW  Elec       q    Type
REMARK                         _______ _______ _______ _____ _____    ______ ____
ROOT
ATOM      1  C   UNL     1       3.250   6.460  18.085  0.00  0.00    +0.000 A 
ATOM      2  C   UNL     1       4.305   7.258  17.595  0.00  0.00    +0.000 A 
ATOM      3  C   UNL     1       5.360   6.721  16.858  0.00  0.00    +0.000 A 
ATOM      4  C   UNL     1       5.380   5.355  16.587  0.00  0.00    +0.000 A 
ATOM      5  C   UNL     1       4.325   4.535  16.996  0.00  0.00    +0.000 A 
ATOM      6  C   UNL     1       3.255   5.091  17.730  0.00  0.00    +0.000 A 
ENDROOT
BRANCH   4   7
ATOM      7  S   UNL     1       6.736   4.677  15.674  0.00  0.00    +0.000 S 
ATOM      8  O   UNL     1       6.291   3.490  14.988  0.00  0.00    +0.000 OA
ATOM      9  O   UNL     1       7.436   5.748  15.007  0.00  0.00    +0.000 OA
BRANCH   7  10
ATOM     10  N   UNL     1       7.741   4.157  16.913  0.00  0.00    +0.000 NA
ATOM     11  H   UNL     1       7.979   3.173  16.779  0.00  0.00    +0.000 HD
ATOM     12  H   UNL     1       8.555   4.770  16.984  0.00  0.00    +0.000 HD
ENDBRANCH   7  10
ENDBRANCH   4   7
BRANCH   6  13
ATOM     13  N   UNL     1       2.164   4.190  18.132  0.00  0.00    +0.000 N 
ATOM     14  O   UNL     1       1.548   3.578  17.245  0.00  0.00    +0.000 OA
ATOM     15  O   UNL     1       1.909   4.097  19.341  0.00  0.00    +0.000 OA
ENDBRANCH   6  13
BRANCH   1  16
ATOM     16  N   UNL     1       2.216   7.088  18.832  0.00  0.00    +0.000 N 
ATOM     17  H   UNL     1       2.179   6.774  19.810  0.00  0.00    +0.000 HD
BRANCH  16  20
ATOM     18  C   UNL     1       0.809   8.640  20.745  0.00  0.00    +0.000 C 
ATOM     19  C   UNL     1       1.375   9.144  19.434  0.00  0.00    +0.000 C 
ATOM     20  N   UNL     1       2.009   8.406  18.569  0.00  0.00    +0.000 NA
BRANCH  19  21
ATOM     21  C   UNL     1       1.167  10.591  19.101  0.00  0.00    +0.000 A 
ATOM     22  C   UNL     1       0.005  11.288  19.442  0.00  0.00    +0.000 A 
ATOM     23  C   UNL     1      -0.126  12.632  19.091  0.00  0.00    +0.000 A 
ATOM     24  C   UNL     1       0.912  13.241  18.408  0.00  0.00    +0.000 A 
ATOM     25  N   UNL     1       2.050  12.605  18.061  0.00  0.00    +0.000 NA
ATOM     26  C   UNL     1       2.152  11.297  18.416  0.00  0.00    +0.000 A 
ENDBRANCH  19  21
ENDBRANCH  16  20
ENDBRANCH   1  16
TORSDOF 6
ENDMDL
