MODEL 1
REMARK VINA RESULT:      -8.8      0.000      0.000
REMARK  Name = 
REMARK  7 active torsions:
REMARK  status: ('A' for Active; 'I' for Inactive)
REMARK    1  A    between atoms: C_1  and  C_2
REMARK    2  A    between atoms: C_3  and  C_4
REMARK    3  A    between atoms: C_12  and  C_13
REMARK    4  A    between atoms: N_15  and  C_16
REMARK    5  A    between atoms: C_16  and  C_17
REMARK    6  A    between atoms: C_20  and  C_21
REMARK    7  A    between atoms: C_21  and  N_22
REMARK                            x       y       z     vdW  Elec       q    Type
REMARK                         _______ _______ _______ _____ _____    ______ ____
ROOT
ATOM      1  C   UNL     1      -6.770  13.551  21.019  0.00  0.00    +0.000 C 
ATOM      2  C   UNL     1      -5.557  12.980  20.347  0.00  0.00    +0.000 A 
ATOM      3  C   UNL     1      -4.305  12.922  20.837  0.00  0.00    +0.000 A 
ATOM      4  O   UNL     1      -3.210  12.374  20.188  0.00  0.00    +0.000 OA
ATOM      5  C   UNL     1      -3.363  11.885  18.913  0.00  0.00    +0.000 A 
ATOM      6  C   UNL     1      -2.250  11.378  18.227  0.00  0.00    +0.000 A 
ATOM      7  C   UNL     1      -2.401  10.926  16.904  0.00  0.00    +0.000 A 
ATOM      8  C   UNL     1      -3.647  10.949  16.275  0.00  0.00    +0.000 A 
ATOM      9  C   UNL     1      -4.754  11.434  16.963  0.00  0.00    +0.000 A 
ATOM     10  C   UNL     1      -4.605  11.903  18.276  0.00  0.00    +0.000 A 
ATOM     11  C   UNL     1      -5.778  12.431  18.986  0.00  0.00    +0.000 A 
ATOM     12  O   UNL     1      -6.891  12.417  18.472  0.00  0.00    +0.000 OA
ENDROOT
BRANCH   3  13
ATOM     13  C   UNL     1      -3.970  13.445  22.168  0.00  0.00    +0.000 A 
ATOM     14  C   UNL     1      -4.024  12.607  23.289  0.00  0.00    +0.000 A 
ATOM     15  C   UNL     1      -3.717  13.109  24.554  0.00  0.00    +0.000 A 
ATOM     16  C   UNL     1      -3.353  14.448  24.706  0.00  0.00    +0.000 A 
ATOM     17  C   UNL     1      -3.309  15.289  23.596  0.00  0.00    +0.000 A 
ATOM     18  C   UNL     1      -3.617  14.790  22.329  0.00  0.00    +0.000 A 
ENDBRANCH   3  13
BRANCH   6  19
ATOM     19  C   UNL     1      -0.872  11.276  18.804  0.00  0.00    +0.000 C 
ATOM     20  O   UNL     1      -0.013  12.073  18.451  0.00  0.00    +0.000 OA
ATOM     21  N   UNL     1      -0.623  10.233  19.666  0.00  0.00    +0.000 N 
ATOM     22  H   UNL     1      -1.393   9.682  20.023  0.00  0.00    +0.000 HD
BRANCH  21  23
ATOM     23  C   UNL     1       0.682  10.049  20.269  0.00  0.00    +0.000 C 
BRANCH  23  24
ATOM     24  C   UNL     1       1.395   8.848  19.696  0.00  0.00    +0.000 A 
ATOM     25  C   UNL     1       1.830   8.849  18.363  0.00  0.00    +0.000 A 
ATOM     26  C   UNL     1       2.445   7.723  17.811  0.00  0.00    +0.000 A 
ATOM     27  C   UNL     1       2.635   6.565  18.576  0.00  0.00    +0.000 A 
ATOM     28  C   UNL     1       2.270   6.588  19.929  0.00  0.00    +0.000 A 
ATOM     29  C   UNL     1       1.657   7.718  20.483  0.00  0.00    +0.000 A 
BRANCH  27  30
ATOM     30  C   UNL     1       3.211   5.323  17.935  0.00  0.00    +0.000 C 
BRANCH  30  31
ATOM     31  N   UNL     1       2.560   4.108  18.399  0.00  0.00    +0.000 N 
ATOM     32  C   UNL     1       3.035   3.220  19.324  0.00  0.00    +0.000 A 
ATOM     33  C   UNL     1       2.107   2.209  19.395  0.00  0.00    +0.000 A 
ATOM     34  C   UNL     1       1.073   2.614  18.532  0.00  0.00    +0.000 A 
ATOM     35  N   UNL     1       1.330   3.784  17.942  0.00  0.00    +0.000 NA
ENDBRANCH  30  31
ENDBRANCH  27  30
ENDBRANCH  23  24
ENDBRANCH  21  23
ENDBRANCH   6  19
TORSDOF 6
ENDMDL
MODEL 2
REMARK VINA RESULT:      -8.6      1.888      2.633
REMARK  Name = 
REMARK  7 active torsions:
REMARK  status: ('A' for Active; 'I' for Inactive)
REMARK    1  A    between atoms: C_1  and  C_2
REMARK    2  A    between atoms: C_3  and  C_4
REMARK    3  A    between atoms: C_12  and  C_13
REMARK    4  A    between atoms: N_15  and  C_16
REMARK    5  A    between atoms: C_16  and  C_17
REMARK    6  A    between atoms: C_20  and  C_21
REMARK    7  A    between atoms: C_21  and  N_22
REMARK                            x       y       z     vdW  Elec       q    Type
REMARK                         _______ _______ _______ _____ _____    ______ ____
ROOT
ATOM      1  C   UNL     1      -6.847  13.674  19.786  0.00  0.00    +0.000 C 
ATOM      2  C   UNL     1      -5.586  12.969  19.384  0.00  0.00    +0.000 A 
ATOM      3  C   UNL     1      -4.427  12.919  20.066  0.00  0.00    +0.000 A 
ATOM      4  O   UNL     1      -3.283  12.245  19.666  0.00  0.00    +0.000 OA
ATOM      5  C   UNL     1      -3.275  11.605  18.450  0.00  0.00    +0.000 A 
ATOM      6  C   UNL     1      -2.107  10.966  18.011  0.00  0.00    +0.000 A 
ATOM      7  C   UNL     1      -2.088  10.355  16.744  0.00  0.00    +0.000 A 
ATOM      8  C   UNL     1      -3.222  10.353  15.931  0.00  0.00    +0.000 A 
ATOM      9  C   UNL     1      -4.386  10.970  16.375  0.00  0.00    +0.000 A 
ATOM     10  C   UNL     1      -4.405  11.595  17.630  0.00  0.00    +0.000 A 
ATOM     11  C   UNL     1      -5.636  12.261  18.081  0.00  0.00    +0.000 A 
ATOM     12  O   UNL     1      -6.658  12.231  17.404  0.00  0.00    +0.000 OA
ENDROOT
BRANCH   3  13
ATOM     13  C   UNL     1      -4.261  13.592  21.361  0.00  0.00    +0.000 A 
ATOM     14  C   UNL     1      -4.397  12.870  22.553  0.00  0.00    +0.000 A 
ATOM     15  C   UNL     1      -4.251  13.514  23.783  0.00  0.00    +0.000 A 
ATOM     16  C   UNL     1      -3.968  14.880  23.827  0.00  0.00    +0.000 A 
ATOM     17  C   UNL     1      -3.844  15.606  22.644  0.00  0.00    +0.000 A 
ATOM     18  C   UNL     1      -3.990  14.965  21.413  0.00  0.00    +0.000 A 
ENDBRANCH   3  13
BRANCH   6  19
ATOM     19  C   UNL     1      -0.840  10.878  18.803  0.00  0.00    +0.000 C 
ATOM     20  O   UNL     1      -0.174  11.889  18.985  0.00  0.00    +0.000 OA
ATOM     21  N   UNL     1      -0.450   9.631  19.236  0.00  0.00    +0.000 N 
ATOM     22  H   UNL     1      -1.094   8.853  19.171  0.00  0.00    +0.000 HD
BRANCH  21  23
ATOM     23  C   UNL     1       0.766   9.446  20.003  0.00  0.00    +0.000 C 
BRANCH  23  24
ATOM     24  C   UNL     1       1.686   8.440  19.355  0.00  0.00    +0.000 A 
ATOM     25  C   UNL     1       1.992   7.236  20.006  0.00  0.00    +0.000 A 
ATOM     26  C   UNL     1       2.883   6.323  19.436  0.00  0.00    +0.000 A 
ATOM     27  C   UNL     1       3.494   6.593  18.206  0.00  0.00    +0.000 A 
ATOM     28  C   UNL     1       3.132   7.760  17.518  0.00  0.00    +0.000 A 
ATOM     29  C   UNL     1       2.237   8.673  18.088  0.00  0.00    +0.000 A 
BRANCH  27  30
ATOM     30  C   UNL     1       4.530   5.641  17.652  0.00  0.00    +0.000 C 
BRANCH  30  31
ATOM     31  N   UNL     1       5.887   6.126  17.847  0.00  0.00    +0.000 N 
ATOM     32  C   UNL     1       6.780   5.715  18.799  0.00  0.00    +0.000 A 
ATOM     33  C   UNL     1       7.902   6.490  18.628  0.00  0.00    +0.000 A 
ATOM     34  C   UNL     1       7.619   7.285  17.504  0.00  0.00    +0.000 A 
ATOM     35  N   UNL     1       6.402   7.049  17.006  0.00  0.00    +0.000 NA
ENDBRANCH  30  31
ENDBRANCH  27  30
ENDBRANCH  23  24
ENDBRANCH  21  23
ENDBRANCH   6  19
TORSDOF 6
ENDMDL
MODEL 3
REMARK VINA RESULT:      -8.5      0.588      1.314
REMARK  Name = 
REMARK  7 active torsions:
REMARK  status: ('A' for Active; 'I' for Inactive)
REMARK    1  A    between atoms: C_1  and  C_2
REMARK    2  A    between atoms: C_3  and  C_4
REMARK    3  A    between atoms: C_12  and  C_13
REMARK    4  A    between atoms: N_15  and  C_16
REMARK    5  A    between atoms: C_16  and  C_17
REMARK    6  A    between atoms: C_20  and  C_21
REMARK    7  A    between atoms: C_21  and  N_22
REMARK                            x       y       z     vdW  Elec       q    Type
REMARK                         _______ _______ _______ _____ _____    ______ ____
ROOT
ATOM      1  C   UNL     1      -6.784  13.530  20.616  0.00  0.00    +0.000 C 
ATOM      2  C   UNL     1      -5.547  12.938  20.008  0.00  0.00    +0.000 A 
ATOM      3  C   UNL     1      -4.316  12.890  20.549  0.00  0.00    +0.000 A 
ATOM      4  O   UNL     1      -3.197  12.323  19.959  0.00  0.00    +0.000 OA
ATOM      5  C   UNL     1      -3.301  11.800  18.692  0.00  0.00    +0.000 A 
ATOM      6  C   UNL     1      -2.164  11.273  18.065  0.00  0.00    +0.000 A 
ATOM      7  C   UNL     1      -2.264  10.785  16.749  0.00  0.00    +0.000 A 
ATOM      8  C   UNL     1      -3.484  10.794  16.071  0.00  0.00    +0.000 A 
ATOM      9  C   UNL     1      -4.615  11.300  16.701  0.00  0.00    +0.000 A 
ATOM     10  C   UNL     1      -4.517  11.803  18.006  0.00  0.00    +0.000 A 
ATOM     11  C   UNL     1      -5.716  12.353  18.655  0.00  0.00    +0.000 A 
ATOM     12  O   UNL     1      -6.808  12.328  18.097  0.00  0.00    +0.000 OA
ENDROOT
BRANCH   3  13
ATOM     13  C   UNL     1      -4.032  13.448  21.877  0.00  0.00    +0.000 A 
ATOM     14  C   UNL     1      -3.673  14.794  22.015  0.00  0.00    +0.000 A 
ATOM     15  C   UNL     1      -3.392  15.319  23.278  0.00  0.00    +0.000 A 
ATOM     16  C   UNL     1      -3.469  14.503  24.407  0.00  0.00    +0.000 A 
ATOM     17  C   UNL     1      -3.815  13.159  24.275  0.00  0.00    +0.000 A 
ATOM     18  C   UNL     1      -4.096  12.631  23.014  0.00  0.00    +0.000 A 
ENDBRANCH   3  13
BRANCH   6  19
ATOM     19  C   UNL     1      -0.810  11.183  18.698  0.00  0.00    +0.000 C 
ATOM     20  O   UNL     1       0.018  12.056  18.472  0.00  0.00    +0.000 OA
ATOM     21  N   UNL     1      -0.542  10.070  19.462  0.00  0.00    +0.000 N 
ATOM     22  H   UNL     1      -1.295   9.446  19.721  0.00  0.00    +0.000 HD
BRANCH  21  23
ATOM     23  C   UNL     1       0.742   9.893  20.109  0.00  0.00    +0.000 C 
BRANCH  23  24
ATOM     24  C   UNL     1       1.534   8.774  19.478  0.00  0.00    +0.000 A 
ATOM     25  C   UNL     1       1.883   7.640  20.227  0.00  0.00    +0.000 A 
ATOM     26  C   UNL     1       2.659   6.623  19.664  0.00  0.00    +0.000 A 
ATOM     27  C   UNL     1       3.111   6.717  18.342  0.00  0.00    +0.000 A 
ATOM     28  C   UNL     1       2.700   7.812  17.569  0.00  0.00    +0.000 A 
ATOM     29  C   UNL     1       1.920   8.828  18.131  0.00  0.00    +0.000 A 
BRANCH  27  30
ATOM     30  C   UNL     1       4.031   5.657  17.782  0.00  0.00    +0.000 C 
BRANCH  30  31
ATOM     31  N   UNL     1       3.464   4.322  17.886  0.00  0.00    +0.000 N 
ATOM     32  C   UNL     1       4.120   3.173  18.235  0.00  0.00    +0.000 A 
ATOM     33  C   UNL     1       3.194   2.162  18.141  0.00  0.00    +0.000 A 
ATOM     34  C   UNL     1       1.992   2.809  17.803  0.00  0.00    +0.000 A 
ATOM     35  N   UNL     1       2.144   4.130  17.672  0.00  0.00    +0.000 NA
ENDBRANCH  30  31
ENDBRANCH  27  30
ENDBRANCH  23  24
ENDBRANCH  21  23
ENDBRANCH   6  19
TORSDOF 6
ENDMDL
MODEL 4
REMARK VINA RESULT:      -8.5      1.066      1.404
REMARK  Name = 
REMARK  7 active torsions:
REMARK  status: ('A' for Active; 'I' for Inactive)
REMARK    1  A    between atoms: C_1  and  C_2
REMARK    2  A    between atoms: C_3  and  C_4
REMARK    3  A    between atoms: C_12  and  C_13
REMARK    4  A    between atoms: N_15  and  C_16
REMARK    5  A    between atoms: C_16  and  C_17
REMARK    6  A    between atoms: C_20  and  C_21
REMARK    7  A    between atoms: C_21  and  N_22
REMARK                            x       y       z     vdW  Elec       q    Type
REMARK                         _______ _______ _______ _____ _____    ______ ____
ROOT
ATOM      1  C   UNL     1      -6.757  13.675  19.419  0.00  0.00    +0.000 C 
ATOM      2  C   UNL     1      -5.544  12.861  19.079  0.00  0.00    +0.000 A 
ATOM      3  C   UNL     1      -4.445  12.683  19.834  0.00  0.00    +0.000 A 
ATOM      4  O   UNL     1      -3.345  11.911  19.490  0.00  0.00    +0.000 OA
ATOM      5  C   UNL     1      -3.315  11.302  18.258  0.00  0.00    +0.000 A 
ATOM      6  C   UNL     1      -2.186  10.564  17.877  0.00  0.00    +0.000 A 
ATOM      7  C   UNL     1      -2.138   9.985  16.596  0.00  0.00    +0.000 A 
ATOM      8  C   UNL     1      -3.209  10.112  15.711  0.00  0.00    +0.000 A 
ATOM      9  C   UNL     1      -4.337  10.828  16.096  0.00  0.00    +0.000 A 
ATOM     10  C   UNL     1      -4.383  11.422  17.366  0.00  0.00    +0.000 A 
ATOM     11  C   UNL     1      -5.572  12.193  17.755  0.00  0.00    +0.000 A 
ATOM     12  O   UNL     1      -6.544  12.277  17.012  0.00  0.00    +0.000 OA
ENDROOT
BRANCH   3  13
ATOM     13  C   UNL     1      -4.305  13.305  21.157  0.00  0.00    +0.000 A 
ATOM     14  C   UNL     1      -3.564  14.484  21.306  0.00  0.00    +0.000 A 
ATOM     15  C   UNL     1      -3.422  15.068  22.566  0.00  0.00    +0.000 A 
ATOM     16  C   UNL     1      -4.020  14.479  23.681  0.00  0.00    +0.000 A 
ATOM     17  C   UNL     1      -4.749  13.298  23.540  0.00  0.00    +0.000 A 
ATOM     18  C   UNL     1      -4.892  12.712  22.282  0.00  0.00    +0.000 A 
ENDBRANCH   3  13
BRANCH   6  19
ATOM     19  C   UNL     1      -0.989  10.335  18.748  0.00  0.00    +0.000 C 
ATOM     20  O   UNL     1      -1.151  10.036  19.924  0.00  0.00    +0.000 OA
ATOM     21  N   UNL     1       0.250  10.542  18.187  0.00  0.00    +0.000 N 
ATOM     22  H   UNL     1       0.334  10.663  17.186  0.00  0.00    +0.000 HD
BRANCH  21  23
ATOM     23  C   UNL     1       1.465  10.352  18.953  0.00  0.00    +0.000 C 
BRANCH  23  24
ATOM     24  C   UNL     1       2.012   8.955  18.792  0.00  0.00    +0.000 A 
ATOM     25  C   UNL     1       2.701   8.592  17.626  0.00  0.00    +0.000 A 
ATOM     26  C   UNL     1       3.166   7.286  17.447  0.00  0.00    +0.000 A 
ATOM     27  C   UNL     1       2.948   6.310  18.427  0.00  0.00    +0.000 A 
ATOM     28  C   UNL     1       2.327   6.688  19.625  0.00  0.00    +0.000 A 
ATOM     29  C   UNL     1       1.865   7.997  19.805  0.00  0.00    +0.000 A 
BRANCH  27  30
ATOM     30  C   UNL     1       3.369   4.880  18.175  0.00  0.00    +0.000 C 
BRANCH  30  31
ATOM     31  N   UNL     1       2.430   3.920  18.732  0.00  0.00    +0.000 N 
ATOM     32  C   UNL     1       2.466   3.360  19.980  0.00  0.00    +0.000 A 
ATOM     33  C   UNL     1       1.414   2.478  20.032  0.00  0.00    +0.000 A 
ATOM     34  C   UNL     1       0.758   2.630  18.798  0.00  0.00    +0.000 A 
ATOM     35  N   UNL     1       1.356   3.528  18.010  0.00  0.00    +0.000 NA
ENDBRANCH  30  31
ENDBRANCH  27  30
ENDBRANCH  23  24
ENDBRANCH  21  23
ENDBRANCH   6  19
TORSDOF 6
ENDMDL
MODEL 5
REMARK VINA RESULT:      -8.3      1.605      2.162
REMARK  Name = 
REMARK  7 active torsions:
REMARK  status: ('A' for Active; 'I' for Inactive)
REMARK    1  A    between atoms: C_1  and  C_2
REMARK    2  A    between atoms: C_3  and  C_4
REMARK    3  A    between atoms: C_12  and  C_13
REMARK    4  A    between atoms: N_15  and  C_16
REMARK    5  A    between atoms: C_16  and  C_17
REMARK    6  A    between atoms: C_20  and  C_21
REMARK    7  A    between atoms: C_21  and  N_22
REMARK                            x       y       z     vdW  Elec       q    Type
REMARK                         _______ _______ _______ _____ _____    ______ ____
ROOT
ATOM      1  C   UNL     1      -6.831  13.720  19.312  0.00  0.00    +0.000 C 
ATOM      2  C   UNL     1      -5.594  12.924  19.016  0.00  0.00    +0.000 A 
ATOM      3  C   UNL     1      -4.514  12.773  19.804  0.00  0.00    +0.000 A 
ATOM      4  O   UNL     1      -3.392  12.018  19.499  0.00  0.00    +0.000 OA
ATOM      5  C   UNL     1      -3.316  11.397  18.275  0.00  0.00    +0.000 A 
ATOM      6  C   UNL     1      -2.163  10.675  17.935  0.00  0.00    +0.000 A 
ATOM      7  C   UNL     1      -2.068  10.084  16.662  0.00  0.00    +0.000 A 
ATOM      8  C   UNL     1      -3.115  10.183  15.745  0.00  0.00    +0.000 A 
ATOM      9  C   UNL     1      -4.266  10.883  16.091  0.00  0.00    +0.000 A 
ATOM     10  C   UNL     1      -4.359  11.489  17.352  0.00  0.00    +0.000 A 
ATOM     11  C   UNL     1      -5.572  12.242  17.698  0.00  0.00    +0.000 A 
ATOM     12  O   UNL     1      -6.524  12.302  16.927  0.00  0.00    +0.000 OA
ENDROOT
BRANCH   3  13
ATOM     13  C   UNL     1      -4.424  13.411  21.124  0.00  0.00    +0.000 A 
ATOM     14  C   UNL     1      -4.969  12.782  22.250  0.00  0.00    +0.000 A 
ATOM     15  C   UNL     1      -4.892  13.396  23.501  0.00  0.00    +0.000 A 
ATOM     16  C   UNL     1      -4.271  14.638  23.633  0.00  0.00    +0.000 A 
ATOM     17  C   UNL     1      -3.737  15.275  22.514  0.00  0.00    +0.000 A 
ATOM     18  C   UNL     1      -3.813  14.664  21.261  0.00  0.00    +0.000 A 
ENDBRANCH   3  13
BRANCH   6  19
ATOM     19  C   UNL     1      -0.989  10.476  18.842  0.00  0.00    +0.000 C 
ATOM     20  O   UNL     1      -1.149  10.534  20.055  0.00  0.00    +0.000 OA
ATOM     21  N   UNL     1       0.243  10.303  18.253  0.00  0.00    +0.000 N 
ATOM     22  H   UNL     1       0.304  10.137  17.257  0.00  0.00    +0.000 HD
BRANCH  21  23
ATOM     23  C   UNL     1       1.438  10.110  19.050  0.00  0.00    +0.000 C 
BRANCH  23  24
ATOM     24  C   UNL     1       2.014   8.727  18.864  0.00  0.00    +0.000 A 
ATOM     25  C   UNL     1       2.709   8.400  17.691  0.00  0.00    +0.000 A 
ATOM     26  C   UNL     1       3.201   7.107  17.489  0.00  0.00    +0.000 A 
ATOM     27  C   UNL     1       3.004   6.109  18.451  0.00  0.00    +0.000 A 
ATOM     28  C   UNL     1       2.376   6.453  19.656  0.00  0.00    +0.000 A 
ATOM     29  C   UNL     1       1.887   7.749  19.860  0.00  0.00    +0.000 A 
BRANCH  27  30
ATOM     30  C   UNL     1       3.454   4.693  18.173  0.00  0.00    +0.000 C 
BRANCH  30  31
ATOM     31  N   UNL     1       4.829   4.632  17.702  0.00  0.00    +0.000 N 
ATOM     32  C   UNL     1       5.252   4.367  16.428  0.00  0.00    +0.000 A 
ATOM     33  C   UNL     1       6.625   4.362  16.477  0.00  0.00    +0.000 A 
ATOM     34  C   UNL     1       6.937   4.708  17.803  0.00  0.00    +0.000 A 
ATOM     35  N   UNL     1       5.846   4.901  18.549  0.00  0.00    +0.000 NA
ENDBRANCH  30  31
ENDBRANCH  27  30
ENDBRANCH  23  24
ENDBRANCH  21  23
ENDBRANCH   6  19
TORSDOF 6
ENDMDL
MODEL 6
REMARK VINA RESULT:      -8.2      1.722      2.397
REMARK  Name = 
REMARK  7 active torsions:
REMARK  status: ('A' for Active; 'I' for Inactive)
REMARK    1  A    between atoms: C_1  and  C_2
REMARK    2  A    between atoms: C_3  and  C_4
REMARK    3  A    between atoms: C_12  and  C_13
REMARK    4  A    between atoms: N_15  and  C_16
REMARK    5  A    between atoms: C_16  and  C_17
REMARK    6  A    between atoms: C_20  and  C_21
REMARK    7  A    between atoms: C_21  and  N_22
REMARK                            x       y       z     vdW  Elec       q    Type
REMARK                         _______ _______ _______ _____ _____    ______ ____
ROOT
ATOM      1  C   UNL     1      -7.238  13.795  19.365  0.00  0.00    +0.000 C 
ATOM      2  C   UNL     1      -5.951  13.063  19.124  0.00  0.00    +0.000 A 
ATOM      3  C   UNL     1      -4.897  12.974  19.955  0.00  0.00    +0.000 A 
ATOM      4  O   UNL     1      -3.726  12.277  19.701  0.00  0.00    +0.000 OA
ATOM      5  C   UNL     1      -3.570  11.652  18.487  0.00  0.00    +0.000 A 
ATOM      6  C   UNL     1      -2.368  10.988  18.199  0.00  0.00    +0.000 A 
ATOM      7  C   UNL     1      -2.193  10.394  16.936  0.00  0.00    +0.000 A 
ATOM      8  C   UNL     1      -3.207  10.431  15.978  0.00  0.00    +0.000 A 
ATOM      9  C   UNL     1      -4.405  11.072  16.272  0.00  0.00    +0.000 A 
ATOM     10  C   UNL     1      -4.579  11.682  17.523  0.00  0.00    +0.000 A 
ATOM     11  C   UNL     1      -5.842  12.373  17.815  0.00  0.00    +0.000 A 
ATOM     12  O   UNL     1      -6.765  12.378  17.007  0.00  0.00    +0.000 OA
ENDROOT
BRANCH   3  13
ATOM     13  C   UNL     1      -4.891  13.626  21.271  0.00  0.00    +0.000 A 
ATOM     14  C   UNL     1      -4.399  14.930  21.410  0.00  0.00    +0.000 A 
ATOM     15  C   UNL     1      -4.383  15.544  22.663  0.00  0.00    +0.000 A 
ATOM     16  C   UNL     1      -4.859  14.859  23.783  0.00  0.00    +0.000 A 
ATOM     17  C   UNL     1      -5.339  13.557  23.653  0.00  0.00    +0.000 A 
ATOM     18  C   UNL     1      -5.356  12.940  22.400  0.00  0.00    +0.000 A 
ENDBRANCH   3  13
BRANCH   6  19
ATOM     19  C   UNL     1      -1.222  10.858  19.153  0.00  0.00    +0.000 C 
ATOM     20  O   UNL     1      -1.217  11.522  20.181  0.00  0.00    +0.000 OA
ATOM     21  N   UNL     1      -0.183  10.033  18.784  0.00  0.00    +0.000 N 
ATOM     22  H   UNL     1      -0.292   9.413  17.992  0.00  0.00    +0.000 HD
BRANCH  21  23
ATOM     23  C   UNL     1       0.972   9.849  19.639  0.00  0.00    +0.000 C 
BRANCH  23  24
ATOM     24  C   UNL     1       1.773   8.634  19.238  0.00  0.00    +0.000 A 
ATOM     25  C   UNL     1       2.434   8.596  18.002  0.00  0.00    +0.000 A 
ATOM     26  C   UNL     1       3.135   7.455  17.602  0.00  0.00    +0.000 A 
ATOM     27  C   UNL     1       3.187   6.323  18.425  0.00  0.00    +0.000 A 
ATOM     28  C   UNL     1       2.592   6.386  19.692  0.00  0.00    +0.000 A 
ATOM     29  C   UNL     1       1.893   7.530  20.094  0.00  0.00    +0.000 A 
BRANCH  27  30
ATOM     30  C   UNL     1       3.865   5.064  17.934  0.00  0.00    +0.000 C 
BRANCH  30  31
ATOM     31  N   UNL     1       5.313   5.196  17.891  0.00  0.00    +0.000 N 
ATOM     32  C   UNL     1       6.167   5.259  18.958  0.00  0.00    +0.000 A 
ATOM     33  C   UNL     1       7.423   5.437  18.430  0.00  0.00    +0.000 A 
ATOM     34  C   UNL     1       7.235   5.393  17.037  0.00  0.00    +0.000 A 
ATOM     35  N   UNL     1       5.954   5.219  16.701  0.00  0.00    +0.000 NA
ENDBRANCH  30  31
ENDBRANCH  27  30
ENDBRANCH  23  24
ENDBRANCH  21  23
ENDBRANCH   6  19
TORSDOF 6
ENDMDL
MODEL 7
REMARK VINA RESULT:      -8.2      0.920      1.236
REMARK  Name = 
REMARK  7 active torsions:
REMARK  status: ('A' for Active; 'I' for Inactive)
REMARK    1  A    between atoms: C_1  and  C_2
REMARK    2  A    between atoms: C_3  and  C_4
REMARK    3  A    between atoms: C_12  and  C_13
REMARK    4  A    between atoms: N_15  and  C_16
REMARK    5  A    between atoms: C_16  and  C_17
REMARK    6  A    between atoms: C_20  and  C_21
REMARK    7  A    between atoms: C_21  and  N_22
REMARK                            x       y       z     vdW  Elec       q    Type
REMARK                         _______ _______ _______ _____ _____    ______ ____
ROOT
ATOM      1  C   UNL     1      -7.219  12.771  20.724  0.00  0.00    +0.000 C 
ATOM      2  C   UNL     1      -5.945  12.451  20.001  0.00  0.00    +0.000 A 
ATOM      3  C   UNL     1      -4.689  12.573  20.470  0.00  0.00    +0.000 A 
ATOM      4  O   UNL     1      -3.534  12.256  19.774  0.00  0.00    +0.000 OA
ATOM      5  C   UNL     1      -3.634  11.825  18.472  0.00  0.00    +0.000 A 
ATOM      6  C   UNL     1      -2.469  11.552  17.741  0.00  0.00    +0.000 A 
ATOM      7  C   UNL     1      -2.574  11.161  16.394  0.00  0.00    +0.000 A 
ATOM      8  C   UNL     1      -3.821  11.013  15.785  0.00  0.00    +0.000 A 
ATOM      9  C   UNL     1      -4.976  11.265  16.517  0.00  0.00    +0.000 A 
ATOM     10  C   UNL     1      -4.876  11.673  17.855  0.00  0.00    +0.000 A 
ATOM     11  C   UNL     1      -6.104  11.955  18.612  0.00  0.00    +0.000 A 
ATOM     12  O   UNL     1      -7.211  11.786  18.112  0.00  0.00    +0.000 OA
ENDROOT
BRANCH   3  13
ATOM     13  C   UNL     1      -4.414  13.065  21.826  0.00  0.00    +0.000 A 
ATOM     14  C   UNL     1      -3.331  12.556  22.554  0.00  0.00    +0.000 A 
ATOM     15  C   UNL     1      -3.078  13.016  23.848  0.00  0.00    +0.000 A 
ATOM     16  C   UNL     1      -3.904  13.985  24.419  0.00  0.00    +0.000 A 
ATOM     17  C   UNL     1      -4.991  14.486  23.704  0.00  0.00    +0.000 A 
ATOM     18  C   UNL     1      -5.247  14.027  22.411  0.00  0.00    +0.000 A 
ENDBRANCH   3  13
BRANCH   6  19
ATOM     19  C   UNL     1      -1.080  11.648  18.292  0.00  0.00    +0.000 C 
ATOM     20  O   UNL     1      -0.437  12.676  18.126  0.00  0.00    +0.000 OA
ATOM     21  N   UNL     1      -0.566  10.530  18.910  0.00  0.00    +0.000 N 
ATOM     22  H   UNL     1      -1.177   9.755  19.133  0.00  0.00    +0.000 HD
BRANCH  21  23
ATOM     23  C   UNL     1       0.771  10.525  19.467  0.00  0.00    +0.000 C 
BRANCH  23  24
ATOM     24  C   UNL     1       1.378   9.143  19.448  0.00  0.00    +0.000 A 
ATOM     25  C   UNL     1       1.320   8.327  20.587  0.00  0.00    +0.000 A 
ATOM     26  C   UNL     1       1.924   7.067  20.593  0.00  0.00    +0.000 A 
ATOM     27  C   UNL     1       2.605   6.594  19.464  0.00  0.00    +0.000 A 
ATOM     28  C   UNL     1       2.598   7.376  18.301  0.00  0.00    +0.000 A 
ATOM     29  C   UNL     1       1.990   8.636  18.294  0.00  0.00    +0.000 A 
BRANCH  27  30
ATOM     30  C   UNL     1       3.336   5.272  19.522  0.00  0.00    +0.000 C 
BRANCH  30  31
ATOM     31  N   UNL     1       2.436   4.152  19.749  0.00  0.00    +0.000 N 
ATOM     32  C   UNL     1       2.408   3.325  20.837  0.00  0.00    +0.000 A 
ATOM     33  C   UNL     1       1.436   2.389  20.580  0.00  0.00    +0.000 A 
ATOM     34  C   UNL     1       0.883   2.778  19.347  0.00  0.00    +0.000 A 
ATOM     35  N   UNL     1       1.470   3.869  18.847  0.00  0.00    +0.000 NA
ENDBRANCH  30  31
ENDBRANCH  27  30
ENDBRANCH  23  24
ENDBRANCH  21  23
ENDBRANCH   6  19
TORSDOF 6
ENDMDL
MODEL 8
REMARK VINA RESULT:      -8.2      4.102     10.687
REMARK  Name = 
REMARK  7 active torsions:
REMARK  status: ('A' for Active; 'I' for Inactive)
REMARK    1  A    between atoms: C_1  and  C_2
REMARK    2  A    between atoms: C_3  and  C_4
REMARK    3  A    between atoms: C_12  and  C_13
REMARK    4  A    between atoms: N_15  and  C_16
REMARK    5  A    between atoms: C_16  and  C_17
REMARK    6  A    between atoms: C_20  and  C_21
REMARK    7  A    between atoms: C_21  and  N_22
REMARK                            x       y       z     vdW  Elec       q    Type
REMARK                         _______ _______ _______ _____ _____    ______ ____
ROOT
ATOM      1  C   UNL     1       7.302   4.626  15.687  0.00  0.00    +0.000 C 
ATOM      2  C   UNL     1       6.114   4.640  16.602  0.00  0.00    +0.000 A 
ATOM      3  C   UNL     1       5.847   5.527  17.578  0.00  0.00    +0.000 A 
ATOM      4  O   UNL     1       4.729   5.512  18.398  0.00  0.00    +0.000 OA
ATOM      5  C   UNL     1       3.818   4.491  18.269  0.00  0.00    +0.000 A 
ATOM      6  C   UNL     1       2.712   4.437  19.129  0.00  0.00    +0.000 A 
ATOM      7  C   UNL     1       1.809   3.362  19.027  0.00  0.00    +0.000 A 
ATOM      8  C   UNL     1       1.985   2.367  18.065  0.00  0.00    +0.000 A 
ATOM      9  C   UNL     1       3.071   2.432  17.200  0.00  0.00    +0.000 A 
ATOM     10  C   UNL     1       3.984   3.491  17.309  0.00  0.00    +0.000 A 
ATOM     11  C   UNL     1       5.139   3.539  16.402  0.00  0.00    +0.000 A 
ATOM     12  O   UNL     1       5.288   2.702  15.518  0.00  0.00    +0.000 OA
ENDROOT
BRANCH   3  13
ATOM     13  C   UNL     1       6.747   6.649  17.871  0.00  0.00    +0.000 A 
ATOM     14  C   UNL     1       6.592   7.871  17.204  0.00  0.00    +0.000 A 
ATOM     15  C   UNL     1       7.456   8.933  17.475  0.00  0.00    +0.000 A 
ATOM     16  C   UNL     1       8.477   8.780  18.413  0.00  0.00    +0.000 A 
ATOM     17  C   UNL     1       8.644   7.563  19.072  0.00  0.00    +0.000 A 
ATOM     18  C   UNL     1       7.782   6.499  18.803  0.00  0.00    +0.000 A 
ENDBRANCH   3  13
BRANCH   6  19
ATOM     19  C   UNL     1       2.403   5.458  20.179  0.00  0.00    +0.000 C 
ATOM     20  O   UNL     1       2.221   5.096  21.334  0.00  0.00    +0.000 OA
ATOM     21  N   UNL     1       2.272   6.766  19.770  0.00  0.00    +0.000 N 
ATOM     22  H   UNL     1       2.556   7.030  18.835  0.00  0.00    +0.000 HD
BRANCH  21  23
ATOM     23  C   UNL     1       1.968   7.823  20.713  0.00  0.00    +0.000 C 
BRANCH  23  24
ATOM     24  C   UNL     1       1.075   8.875  20.101  0.00  0.00    +0.000 A 
ATOM     25  C   UNL     1       1.223   9.235  18.755  0.00  0.00    +0.000 A 
ATOM     26  C   UNL     1       0.435  10.244  18.194  0.00  0.00    +0.000 A 
ATOM     27  C   UNL     1      -0.516  10.921  18.968  0.00  0.00    +0.000 A 
ATOM     28  C   UNL     1      -0.718  10.511  20.293  0.00  0.00    +0.000 A 
ATOM     29  C   UNL     1       0.069   9.498  20.853  0.00  0.00    +0.000 A 
BRANCH  27  30
ATOM     30  C   UNL     1      -1.289  12.076  18.373  0.00  0.00    +0.000 C 
BRANCH  30  31
ATOM     31  N   UNL     1      -2.538  11.649  17.763  0.00  0.00    +0.000 N 
ATOM     32  C   UNL     1      -3.773  11.612  18.350  0.00  0.00    +0.000 A 
ATOM     33  C   UNL     1      -4.628  11.091  17.409  0.00  0.00    +0.000 A 
ATOM     34  C   UNL     1      -3.832  10.915  16.263  0.00  0.00    +0.000 A 
ATOM     35  N   UNL     1      -2.563  11.279  16.463  0.00  0.00    +0.000 NA
ENDBRANCH  30  31
ENDBRANCH  27  30
ENDBRANCH  23  24
ENDBRANCH  21  23
ENDBRANCH   6  19
TORSDOF 6
ENDMDL
MODEL 9
REMARK VINA RESULT:      -8.2      1.659      2.493
REMARK  Name = 
REMARK  7 active torsions:
REMARK  status: ('A' for Active; 'I' for Inactive)
REMARK    1  A    between atoms: C_1  and  C_2
REMARK    2  A    between atoms: C_3  and  C_4
REMARK    3  A    between atoms: C_12  and  C_13
REMARK    4  A    between atoms: N_15  and  C_16
REMARK    5  A    between atoms: C_16  and  C_17
REMARK    6  A    between atoms: C_20  and  C_21
REMARK    7  A    between atoms: C_21  and  N_22
REMARK                            x       y       z     vdW  Elec       q    Type
REMARK                         _______ _______ _______ _____ _____    ______ ____
ROOT
ATOM      1  C   UNL     1      -5.779  14.079  20.750  0.00  0.00    +0.000 C 
ATOM      2  C   UNL     1      -4.681  13.232  20.178  0.00  0.00    +0.000 A 
ATOM      3  C   UNL     1      -3.410  13.143  20.610  0.00  0.00    +0.000 A 
ATOM      4  O   UNL     1      -2.425  12.338  20.059  0.00  0.00    +0.000 OA
ATOM      5  C   UNL     1      -2.718  11.590  18.944  0.00  0.00    +0.000 A 
ATOM      6  C   UNL     1      -1.715  10.813  18.348  0.00  0.00    +0.000 A 
ATOM      7  C   UNL     1      -2.006  10.089  17.178  0.00  0.00    +0.000 A 
ATOM      8  C   UNL     1      -3.284  10.110  16.619  0.00  0.00    +0.000 A 
ATOM      9  C   UNL     1      -4.284  10.865  17.223  0.00  0.00    +0.000 A 
ATOM     10  C   UNL     1      -3.995  11.604  18.380  0.00  0.00    +0.000 A 
ATOM     11  C   UNL     1      -5.054  12.413  18.997  0.00  0.00    +0.000 A 
ATOM     12  O   UNL     1      -6.197  12.410  18.552  0.00  0.00    +0.000 OA
ENDROOT
BRANCH   3  13
ATOM     13  C   UNL     1      -2.929  13.916  21.762  0.00  0.00    +0.000 A 
ATOM     14  C   UNL     1      -2.303  15.154  21.569  0.00  0.00    +0.000 A 
ATOM     15  C   UNL     1      -1.836  15.882  22.665  0.00  0.00    +0.000 A 
ATOM     16  C   UNL     1      -1.992  15.378  23.957  0.00  0.00    +0.000 A 
ATOM     17  C   UNL     1      -2.603  14.140  24.154  0.00  0.00    +0.000 A 
ATOM     18  C   UNL     1      -3.071  13.410  23.060  0.00  0.00    +0.000 A 
ENDBRANCH   3  13
BRANCH   6  19
ATOM     19  C   UNL     1      -0.317  10.688  18.869  0.00  0.00    +0.000 C 
ATOM     20  O   UNL     1       0.490  11.582  18.645  0.00  0.00    +0.000 OA
ATOM     21  N   UNL     1       0.012   9.524  19.526  0.00  0.00    +0.000 N 
ATOM     22  H   UNL     1      -0.718   8.877  19.794  0.00  0.00    +0.000 HD
BRANCH  21  23
ATOM     23  C   UNL     1       1.343   9.310  20.058  0.00  0.00    +0.000 C 
BRANCH  23  24
ATOM     24  C   UNL     1       1.938   8.014  19.565  0.00  0.00    +0.000 A 
ATOM     25  C   UNL     1       1.866   6.855  20.351  0.00  0.00    +0.000 A 
ATOM     26  C   UNL     1       2.459   5.664  19.924  0.00  0.00    +0.000 A 
ATOM     27  C   UNL     1       3.144   5.604  18.704  0.00  0.00    +0.000 A 
ATOM     28  C   UNL     1       3.152   6.739  17.882  0.00  0.00    +0.000 A 
ATOM     29  C   UNL     1       2.554   7.931  18.309  0.00  0.00    +0.000 A 
BRANCH  27  30
ATOM     30  C   UNL     1       3.864   4.336  18.305  0.00  0.00    +0.000 C 
BRANCH  30  31
ATOM     31  N   UNL     1       5.280   4.558  18.058  0.00  0.00    +0.000 N 
ATOM     32  C   UNL     1       5.924   4.507  16.852  0.00  0.00    +0.000 A 
ATOM     33  C   UNL     1       7.253   4.727  17.121  0.00  0.00    +0.000 A 
ATOM     34  C   UNL     1       7.302   4.975  18.504  0.00  0.00    +0.000 A 
ATOM     35  N   UNL     1       6.098   4.901  19.077  0.00  0.00    +0.000 NA
ENDBRANCH  30  31
ENDBRANCH  27  30
ENDBRANCH  23  24
ENDBRANCH  21  23
ENDBRANCH   6  19
TORSDOF 6
ENDMDL
