MODEL 1
REMARK VINA RESULT:      -7.1      0.000      0.000
REMARK  Name = 
REMARK  6 active torsions:
REMARK  status: ('A' for Active; 'I' for Inactive)
REMARK    1  A    between atoms: C_1  and  O_2
REMARK    2  A    between atoms: O_2  and  C_3
REMARK    3  A    between atoms: C_5  and  C_6
REMARK    4  A    between atoms: C_10  and  O_11
REMARK    5  A    between atoms: O_11  and  C_12
REMARK    6  A    between atoms: C_12  and  C_13
REMARK                            x       y       z     vdW  Elec       q    Type
REMARK                         _______ _______ _______ _____ _____    ______ ____
ROOT
ATOM      1  C   UNL     1       5.440   4.833  18.181  0.00  0.00    +0.000 A 
ATOM      2  C   UNL     1       6.145   4.460  17.024  0.00  0.00    +0.000 A 
ATOM      3  C   UNL     1       6.050   5.205  15.849  0.00  0.00    +0.000 A 
ATOM      4  C   UNL     1       5.280   6.360  15.824  0.00  0.00    +0.000 A 
ATOM      5  C   UNL     1       4.594   6.749  16.973  0.00  0.00    +0.000 A 
ATOM      6  C   UNL     1       4.622   5.976  18.154  0.00  0.00    +0.000 A 
ENDROOT
BRANCH   1   8
ATOM      7  C   UNL     1       4.761   2.933  19.510  0.00  0.00    +0.000 C 
ATOM      8  O   UNL     1       5.687   3.961  19.207  0.00  0.00    +0.000 OA
ENDBRANCH   1   8
BRANCH   3   9
ATOM      9  C   UNL     1       6.766   4.769  14.640  0.00  0.00    +0.000 C 
ATOM     10  O   UNL     1       7.737   5.377  14.204  0.00  0.00    +0.000 OA
ENDBRANCH   3   9
BRANCH   6  11
ATOM     11  O   UNL     1       3.875   6.328  19.262  0.00  0.00    +0.000 OA
BRANCH  11  12
ATOM     12  C   UNL     1       2.456   6.290  19.040  0.00  0.00    +0.000 C 
BRANCH  12  13
ATOM     13  C   UNL     1       1.817   4.940  19.257  0.00  0.00    +0.000 A 
ATOM     14  C   UNL     1       1.553   4.058  18.205  0.00  0.00    +0.000 A 
ATOM     15  C   UNL     1       1.062   2.778  18.470  0.00  0.00    +0.000 A 
ATOM     16  C   UNL     1       0.840   2.364  19.785  0.00  0.00    +0.000 A 
ATOM     17  C   UNL     1       1.108   3.229  20.840  0.00  0.00    +0.000 A 
ATOM     18  C   UNL     1       1.599   4.506  20.579  0.00  0.00    +0.000 A 
ENDBRANCH  12  13
ENDBRANCH  11  12
ENDBRANCH   6  11
TORSDOF 5
ENDMDL
MODEL 2
REMARK VINA RESULT:      -6.9      1.643      2.518
REMARK  Name = 
REMARK  6 active torsions:
REMARK  status: ('A' for Active; 'I' for Inactive)
REMARK    1  A    between atoms: C_1  and  O_2
REMARK    2  A    between atoms: O_2  and  C_3
REMARK    3  A    between atoms: C_5  and  C_6
REMARK    4  A    between atoms: C_10  and  O_11
REMARK    5  A    between atoms: O_11  and  C_12
REMARK    6  A    between atoms: C_12  and  C_13
REMARK                            x       y       z     vdW  Elec       q    Type
REMARK                         _______ _______ _______ _____ _____    ______ ____
ROOT
ATOM      1  C   UNL     1       6.959   4.653  17.847  0.00  0.00    +0.000 A 
ATOM      2  C   UNL     1       7.351   4.895  16.519  0.00  0.00    +0.000 A 
ATOM      3  C   UNL     1       6.496   4.620  15.453  0.00  0.00    +0.000 A 
ATOM      4  C   UNL     1       5.218   4.137  15.700  0.00  0.00    +0.000 A 
ATOM      5  C   UNL     1       4.814   3.914  17.014  0.00  0.00    +0.000 A 
ATOM      6  C   UNL     1       5.684   4.122  18.106  0.00  0.00    +0.000 A 
ENDROOT
BRANCH   1   8
ATOM      7  C   UNL     1       8.131   6.354  19.102  0.00  0.00    +0.000 C 
ATOM      8  O   UNL     1       7.954   5.000  18.722  0.00  0.00    +0.000 OA
ENDBRANCH   1   8
BRANCH   3   9
ATOM      9  C   UNL     1       6.946   4.843  14.070  0.00  0.00    +0.000 C 
ATOM     10  O   UNL     1       7.925   5.533  13.808  0.00  0.00    +0.000 OA
ENDBRANCH   3   9
BRANCH   6  11
ATOM     11  O   UNL     1       5.301   3.822  19.399  0.00  0.00    +0.000 OA
BRANCH  11  12
ATOM     12  C   UNL     1       4.552   2.601  19.514  0.00  0.00    +0.000 C 
BRANCH  12  13
ATOM     13  C   UNL     1       3.066   2.785  19.703  0.00  0.00    +0.000 A 
ATOM     14  C   UNL     1       2.534   3.659  20.655  0.00  0.00    +0.000 A 
ATOM     15  C   UNL     1       1.156   3.876  20.715  0.00  0.00    +0.000 A 
ATOM     16  C   UNL     1       0.299   3.231  19.822  0.00  0.00    +0.000 A 
ATOM     17  C   UNL     1       0.817   2.367  18.864  0.00  0.00    +0.000 A 
ATOM     18  C   UNL     1       2.192   2.149  18.799  0.00  0.00    +0.000 A 
ENDBRANCH  12  13
ENDBRANCH  11  12
ENDBRANCH   6  11
TORSDOF 5
ENDMDL
MODEL 3
REMARK VINA RESULT:      -6.9      0.133      1.146
REMARK  Name = 
REMARK  6 active torsions:
REMARK  status: ('A' for Active; 'I' for Inactive)
REMARK    1  A    between atoms: C_1  and  O_2
REMARK    2  A    between atoms: O_2  and  C_3
REMARK    3  A    between atoms: C_5  and  C_6
REMARK    4  A    between atoms: C_10  and  O_11
REMARK    5  A    between atoms: O_11  and  C_12
REMARK    6  A    between atoms: C_12  and  C_13
REMARK                            x       y       z     vdW  Elec       q    Type
REMARK                         _______ _______ _______ _____ _____    ______ ____
ROOT
ATOM      1  C   UNL     1       5.467   4.956  18.096  0.00  0.00    +0.000 A 
ATOM      2  C   UNL     1       6.175   4.539  16.956  0.00  0.00    +0.000 A 
ATOM      3  C   UNL     1       6.068   5.228  15.748  0.00  0.00    +0.000 A 
ATOM      4  C   UNL     1       5.283   6.370  15.671  0.00  0.00    +0.000 A 
ATOM      5  C   UNL     1       4.595   6.803  16.802  0.00  0.00    +0.000 A 
ATOM      6  C   UNL     1       4.634   6.086  18.018  0.00  0.00    +0.000 A 
ENDROOT
BRANCH   1   8
ATOM      7  C   UNL     1       4.866   3.048  19.452  0.00  0.00    +0.000 C 
ATOM      8  O   UNL     1       5.727   4.136  19.161  0.00  0.00    +0.000 OA
ENDBRANCH   1   8
BRANCH   3   9
ATOM      9  C   UNL     1       6.788   4.745  14.559  0.00  0.00    +0.000 C 
ATOM     10  O   UNL     1       7.761   5.335  14.103  0.00  0.00    +0.000 OA
ENDBRANCH   3   9
BRANCH   6  11
ATOM     11  O   UNL     1       3.885   6.478  19.109  0.00  0.00    +0.000 OA
BRANCH  11  12
ATOM     12  C   UNL     1       2.468   6.310  18.932  0.00  0.00    +0.000 C 
BRANCH  12  13
ATOM     13  C   UNL     1       1.948   4.933  19.260  0.00  0.00    +0.000 A 
ATOM     14  C   UNL     1       1.686   4.523  20.570  0.00  0.00    +0.000 A 
ATOM     15  C   UNL     1       1.103   3.278  20.813  0.00  0.00    +0.000 A 
ATOM     16  C   UNL     1       0.768   2.435  19.751  0.00  0.00    +0.000 A 
ATOM     17  C   UNL     1       1.015   2.836  18.443  0.00  0.00    +0.000 A 
ATOM     18  C   UNL     1       1.595   4.079  18.197  0.00  0.00    +0.000 A 
ENDBRANCH  12  13
ENDBRANCH  11  12
ENDBRANCH   6  11
TORSDOF 5
ENDMDL
MODEL 4
REMARK VINA RESULT:      -6.7      1.462      2.158
REMARK  Name = 
REMARK  6 active torsions:
REMARK  status: ('A' for Active; 'I' for Inactive)
REMARK    1  A    between atoms: C_1  and  O_2
REMARK    2  A    between atoms: O_2  and  C_3
REMARK    3  A    between atoms: C_5  and  C_6
REMARK    4  A    between atoms: C_10  and  O_11
REMARK    5  A    between atoms: O_11  and  C_12
REMARK    6  A    between atoms: C_12  and  C_13
REMARK                            x       y       z     vdW  Elec       q    Type
REMARK                         _______ _______ _______ _____ _____    ______ ____
ROOT
ATOM      1  C   UNL     1       6.727   5.752  17.529  0.00  0.00    +0.000 A 
ATOM      2  C   UNL     1       7.206   5.745  16.208  0.00  0.00    +0.000 A 
ATOM      3  C   UNL     1       6.686   4.868  15.256  0.00  0.00    +0.000 A 
ATOM      4  C   UNL     1       5.648   4.013  15.599  0.00  0.00    +0.000 A 
ATOM      5  C   UNL     1       5.152   4.029  16.901  0.00  0.00    +0.000 A 
ATOM      6  C   UNL     1       5.706   4.860  17.899  0.00  0.00    +0.000 A 
ENDROOT
BRANCH   1   8
ATOM      7  C   UNL     1       7.779   7.921  17.698  0.00  0.00    +0.000 C 
ATOM      8  O   UNL     1       7.379   6.693  18.281  0.00  0.00    +0.000 OA
ENDBRANCH   1   8
BRANCH   3   9
ATOM      9  C   UNL     1       7.234   4.853  13.891  0.00  0.00    +0.000 C 
ATOM     10  O   UNL     1       8.110   5.631  13.532  0.00  0.00    +0.000 OA
ENDBRANCH   3   9
BRANCH   6  11
ATOM     11  O   UNL     1       5.261   4.810  19.205  0.00  0.00    +0.000 OA
BRANCH  11  12
ATOM     12  C   UNL     1       4.041   5.536  19.432  0.00  0.00    +0.000 C 
BRANCH  12  13
ATOM     13  C   UNL     1       2.812   4.675  19.590  0.00  0.00    +0.000 A 
ATOM     14  C   UNL     1       2.073   4.217  18.497  0.00  0.00    +0.000 A 
ATOM     15  C   UNL     1       1.008   3.334  18.690  0.00  0.00    +0.000 A 
ATOM     16  C   UNL     1       0.679   2.894  19.974  0.00  0.00    +0.000 A 
ATOM     17  C   UNL     1       1.414   3.336  21.069  0.00  0.00    +0.000 A 
ATOM     18  C   UNL     1       2.477   4.216  20.879  0.00  0.00    +0.000 A 
ENDBRANCH  12  13
ENDBRANCH  11  12
ENDBRANCH   6  11
TORSDOF 5
ENDMDL
MODEL 5
REMARK VINA RESULT:      -6.7      1.929      2.896
REMARK  Name = 
REMARK  6 active torsions:
REMARK  status: ('A' for Active; 'I' for Inactive)
REMARK    1  A    between atoms: C_1  and  O_2
REMARK    2  A    between atoms: O_2  and  C_3
REMARK    3  A    between atoms: C_5  and  C_6
REMARK    4  A    between atoms: C_10  and  O_11
REMARK    5  A    between atoms: O_11  and  C_12
REMARK    6  A    between atoms: C_12  and  C_13
REMARK                            x       y       z     vdW  Elec       q    Type
REMARK                         _______ _______ _______ _____ _____    ______ ____
ROOT
ATOM      1  C   UNL     1       4.274   5.721  17.439  0.00  0.00    +0.000 A 
ATOM      2  C   UNL     1       5.305   6.654  17.645  0.00  0.00    +0.000 A 
ATOM      3  C   UNL     1       6.626   6.354  17.316  0.00  0.00    +0.000 A 
ATOM      4  C   UNL     1       6.933   5.131  16.737  0.00  0.00    +0.000 A 
ATOM      5  C   UNL     1       5.915   4.208  16.510  0.00  0.00    +0.000 A 
ATOM      6  C   UNL     1       4.580   4.462  16.894  0.00  0.00    +0.000 A 
ENDROOT
BRANCH   1   8
ATOM      7  C   UNL     1       2.788   6.440  19.203  0.00  0.00    +0.000 C 
ATOM      8  O   UNL     1       3.066   6.232  17.829  0.00  0.00    +0.000 OA
ENDBRANCH   1   8
BRANCH   3   9
ATOM      9  C   UNL     1       7.692   7.334  17.581  0.00  0.00    +0.000 C 
ATOM     10  O   UNL     1       7.580   8.516  17.278  0.00  0.00    +0.000 OA
ENDBRANCH   3   9
BRANCH   6  11
ATOM     11  O   UNL     1       3.593   3.509  16.737  0.00  0.00    +0.000 OA
BRANCH  11  12
ATOM     12  C   UNL     1       3.628   2.468  17.727  0.00  0.00    +0.000 C 
BRANCH  12  13
ATOM     13  C   UNL     1       2.801   2.739  18.960  0.00  0.00    +0.000 A 
ATOM     14  C   UNL     1       1.428   2.992  18.901  0.00  0.00    +0.000 A 
ATOM     15  C   UNL     1       0.689   3.128  20.079  0.00  0.00    +0.000 A 
ATOM     16  C   UNL     1       1.311   3.005  21.322  0.00  0.00    +0.000 A 
ATOM     17  C   UNL     1       2.675   2.743  21.393  0.00  0.00    +0.000 A 
ATOM     18  C   UNL     1       3.415   2.605  20.221  0.00  0.00    +0.000 A 
ENDBRANCH  12  13
ENDBRANCH  11  12
ENDBRANCH   6  11
TORSDOF 5
ENDMDL
MODEL 6
REMARK VINA RESULT:      -6.7      1.735      2.282
REMARK  Name = 
REMARK  6 active torsions:
REMARK  status: ('A' for Active; 'I' for Inactive)
REMARK    1  A    between atoms: C_1  and  O_2
REMARK    2  A    between atoms: O_2  and  C_3
REMARK    3  A    between atoms: C_5  and  C_6
REMARK    4  A    between atoms: C_10  and  O_11
REMARK    5  A    between atoms: O_11  and  C_12
REMARK    6  A    between atoms: C_12  and  C_13
REMARK                            x       y       z     vdW  Elec       q    Type
REMARK                         _______ _______ _______ _____ _____    ______ ____
ROOT
ATOM      1  C   UNL     1       6.868   4.460  16.873  0.00  0.00    +0.000 A 
ATOM      2  C   UNL     1       7.572   4.835  15.716  0.00  0.00    +0.000 A 
ATOM      3  C   UNL     1       6.949   4.861  14.469  0.00  0.00    +0.000 A 
ATOM      4  C   UNL     1       5.600   4.552  14.364  0.00  0.00    +0.000 A 
ATOM      5  C   UNL     1       4.890   4.199  15.509  0.00  0.00    +0.000 A 
ATOM      6  C   UNL     1       5.513   4.102  16.772  0.00  0.00    +0.000 A 
ENDROOT
BRANCH   1   8
ATOM      7  C   UNL     1       7.667   5.652  18.817  0.00  0.00    +0.000 C 
ATOM      8  O   UNL     1       7.678   4.511  17.976  0.00  0.00    +0.000 OA
ENDBRANCH   1   8
BRANCH   3   9
ATOM      9  C   UNL     1       7.720   5.218  13.267  0.00  0.00    +0.000 C 
ATOM     10  O   UNL     1       8.742   5.893  13.326  0.00  0.00    +0.000 OA
ENDBRANCH   3   9
BRANCH   6  11
ATOM     11  O   UNL     1       4.818   3.673  17.886  0.00  0.00    +0.000 OA
BRANCH  11  12
ATOM     12  C   UNL     1       3.505   4.246  18.008  0.00  0.00    +0.000 C 
BRANCH  12  13
ATOM     13  C   UNL     1       2.729   3.796  19.221  0.00  0.00    +0.000 A 
ATOM     14  C   UNL     1       1.338   3.903  19.303  0.00  0.00    +0.000 A 
ATOM     15  C   UNL     1       0.657   3.373  20.401  0.00  0.00    +0.000 A 
ATOM     16  C   UNL     1       1.357   2.725  21.421  0.00  0.00    +0.000 A 
ATOM     17  C   UNL     1       2.740   2.604  21.346  0.00  0.00    +0.000 A 
ATOM     18  C   UNL     1       3.422   3.130  20.251  0.00  0.00    +0.000 A 
ENDBRANCH  12  13
ENDBRANCH  11  12
ENDBRANCH   6  11
TORSDOF 5
ENDMDL
MODEL 7
REMARK VINA RESULT:      -6.7      2.202      6.035
REMARK  Name = 
REMARK  6 active torsions:
REMARK  status: ('A' for Active; 'I' for Inactive)
REMARK    1  A    between atoms: C_1  and  O_2
REMARK    2  A    between atoms: O_2  and  C_3
REMARK    3  A    between atoms: C_5  and  C_6
REMARK    4  A    between atoms: C_10  and  O_11
REMARK    5  A    between atoms: O_11  and  C_12
REMARK    6  A    between atoms: C_12  and  C_13
REMARK                            x       y       z     vdW  Elec       q    Type
REMARK                         _______ _______ _______ _____ _____    ______ ____
ROOT
ATOM      1  C   UNL     1       3.317   4.812  18.720  0.00  0.00    +0.000 A 
ATOM      2  C   UNL     1       2.641   4.363  19.868  0.00  0.00    +0.000 A 
ATOM      3  C   UNL     1       2.197   3.045  19.974  0.00  0.00    +0.000 A 
ATOM      4  C   UNL     1       2.458   2.144  18.951  0.00  0.00    +0.000 A 
ATOM      5  C   UNL     1       3.147   2.575  17.819  0.00  0.00    +0.000 A 
ATOM      6  C   UNL     1       3.549   3.920  17.660  0.00  0.00    +0.000 A 
ENDROOT
BRANCH   1   8
ATOM      7  C   UNL     1       2.890   7.132  18.193  0.00  0.00    +0.000 C 
ATOM      8  O   UNL     1       3.659   6.133  18.840  0.00  0.00    +0.000 OA
ENDBRANCH   1   8
BRANCH   3   9
ATOM      9  C   UNL     1       1.455   2.612  21.168  0.00  0.00    +0.000 C 
ATOM     10  O   UNL     1       1.844   2.862  22.303  0.00  0.00    +0.000 OA
ENDBRANCH   3   9
BRANCH   6  11
ATOM     11  O   UNL     1       4.159   4.355  16.500  0.00  0.00    +0.000 OA
BRANCH  11  12
ATOM     12  C   UNL     1       5.565   4.064  16.439  0.00  0.00    +0.000 C 
BRANCH  12  13
ATOM     13  C   UNL     1       6.454   5.098  17.087  0.00  0.00    +0.000 A 
ATOM     14  C   UNL     1       6.499   6.425  16.653  0.00  0.00    +0.000 A 
ATOM     15  C   UNL     1       7.254   7.367  17.355  0.00  0.00    +0.000 A 
ATOM     16  C   UNL     1       7.963   6.995  18.499  0.00  0.00    +0.000 A 
ATOM     17  C   UNL     1       7.917   5.679  18.946  0.00  0.00    +0.000 A 
ATOM     18  C   UNL     1       7.163   4.737  18.249  0.00  0.00    +0.000 A 
ENDBRANCH  12  13
ENDBRANCH  11  12
ENDBRANCH   6  11
TORSDOF 5
ENDMDL
MODEL 8
REMARK VINA RESULT:      -6.7      1.850      3.054
REMARK  Name = 
REMARK  6 active torsions:
REMARK  status: ('A' for Active; 'I' for Inactive)
REMARK    1  A    between atoms: C_1  and  O_2
REMARK    2  A    between atoms: O_2  and  C_3
REMARK    3  A    between atoms: C_5  and  C_6
REMARK    4  A    between atoms: C_10  and  O_11
REMARK    5  A    between atoms: O_11  and  C_12
REMARK    6  A    between atoms: C_12  and  C_13
REMARK                            x       y       z     vdW  Elec       q    Type
REMARK                         _______ _______ _______ _____ _____    ______ ____
ROOT
ATOM      1  C   UNL     1       3.776   5.443  17.550  0.00  0.00    +0.000 A 
ATOM      2  C   UNL     1       4.910   6.249  17.749  0.00  0.00    +0.000 A 
ATOM      3  C   UNL     1       6.173   5.835  17.325  0.00  0.00    +0.000 A 
ATOM      4  C   UNL     1       6.316   4.627  16.658  0.00  0.00    +0.000 A 
ATOM      5  C   UNL     1       5.193   3.831  16.438  0.00  0.00    +0.000 A 
ATOM      6  C   UNL     1       3.916   4.197  16.915  0.00  0.00    +0.000 A 
ENDROOT
BRANCH   1   8
ATOM      7  C   UNL     1       2.642   7.447  18.285  0.00  0.00    +0.000 C 
ATOM      8  O   UNL     1       2.652   6.050  18.042  0.00  0.00    +0.000 OA
ENDBRANCH   1   8
BRANCH   3   9
ATOM      9  C   UNL     1       7.350   6.680  17.583  0.00  0.00    +0.000 C 
ATOM     10  O   UNL     1       7.830   7.408  16.722  0.00  0.00    +0.000 OA
ENDBRANCH   3   9
BRANCH   6  11
ATOM     11  O   UNL     1       2.825   3.364  16.762  0.00  0.00    +0.000 OA
BRANCH  11  12
ATOM     12  C   UNL     1       2.862   2.199  17.603  0.00  0.00    +0.000 C 
BRANCH  12  13
ATOM     13  C   UNL     1       2.446   2.438  19.034  0.00  0.00    +0.000 A 
ATOM     14  C   UNL     1       3.342   2.337  20.101  0.00  0.00    +0.000 A 
ATOM     15  C   UNL     1       2.935   2.675  21.394  0.00  0.00    +0.000 A 
ATOM     16  C   UNL     1       1.634   3.124  21.630  0.00  0.00    +0.000 A 
ATOM     17  C   UNL     1       0.736   3.238  20.574  0.00  0.00    +0.000 A 
ATOM     18  C   UNL     1       1.140   2.904  19.284  0.00  0.00    +0.000 A 
ENDBRANCH  12  13
ENDBRANCH  11  12
ENDBRANCH   6  11
TORSDOF 5
ENDMDL
MODEL 9
REMARK VINA RESULT:      -6.6      2.018      3.165
REMARK  Name = 
REMARK  6 active torsions:
REMARK  status: ('A' for Active; 'I' for Inactive)
REMARK    1  A    between atoms: C_1  and  O_2
REMARK    2  A    between atoms: O_2  and  C_3
REMARK    3  A    between atoms: C_5  and  C_6
REMARK    4  A    between atoms: C_10  and  O_11
REMARK    5  A    between atoms: O_11  and  C_12
REMARK    6  A    between atoms: C_12  and  C_13
REMARK                            x       y       z     vdW  Elec       q    Type
REMARK                         _______ _______ _______ _____ _____    ______ ____
ROOT
ATOM      1  C   UNL     1       5.791   4.460  16.182  0.00  0.00    +0.000 A 
ATOM      2  C   UNL     1       6.778   5.449  16.331  0.00  0.00    +0.000 A 
ATOM      3  C   UNL     1       6.627   6.486  17.252  0.00  0.00    +0.000 A 
ATOM      4  C   UNL     1       5.505   6.527  18.067  0.00  0.00    +0.000 A 
ATOM      5  C   UNL     1       4.532   5.539  17.941  0.00  0.00    +0.000 A 
ATOM      6  C   UNL     1       4.630   4.517  16.972  0.00  0.00    +0.000 A 
ENDROOT
BRANCH   1   8
ATOM      7  C   UNL     1       6.235   3.930  13.866  0.00  0.00    +0.000 C 
ATOM      8  O   UNL     1       6.153   3.547  15.228  0.00  0.00    +0.000 OA
ENDBRANCH   1   8
BRANCH   3   9
ATOM      9  C   UNL     1       7.657   7.532  17.359  0.00  0.00    +0.000 C 
ATOM     10  O   UNL     1       8.243   7.763  18.410  0.00  0.00    +0.000 OA
ENDBRANCH   3   9
BRANCH   6  11
ATOM     11  O   UNL     1       3.621   3.589  16.800  0.00  0.00    +0.000 OA
BRANCH  11  12
ATOM     12  C   UNL     1       3.706   2.467  17.694  0.00  0.00    +0.000 C 
BRANCH  12  13
ATOM     13  C   UNL     1       2.876   2.592  18.948  0.00  0.00    +0.000 A 
ATOM     14  C   UNL     1       3.437   2.529  20.226  0.00  0.00    +0.000 A 
ATOM     15  C   UNL     1       2.643   2.759  21.352  0.00  0.00    +0.000 A 
ATOM     16  C   UNL     1       1.287   3.063  21.211  0.00  0.00    +0.000 A 
ATOM     17  C   UNL     1       0.721   3.138  19.943  0.00  0.00    +0.000 A 
ATOM     18  C   UNL     1       1.510   2.910  18.818  0.00  0.00    +0.000 A 
ENDBRANCH  12  13
ENDBRANCH  11  12
ENDBRANCH   6  11
TORSDOF 5
ENDMDL
