MODEL 1
REMARK VINA RESULT:      -7.2      0.000      0.000
REMARK  Name = 
REMARK  6 active torsions:
REMARK  status: ('A' for Active; 'I' for Inactive)
REMARK    1  A    between atoms: C_1  and  O_2
REMARK    2  A    between atoms: O_2  and  C_3
REMARK    3  A    between atoms: C_7  and  O_8
REMARK    4  A    between atoms: O_8  and  C_9
REMARK    5  A    between atoms: C_10  and  C_11
REMARK    6  A    between atoms: N_16  and  C_17
REMARK                            x       y       z     vdW  Elec       q    Type
REMARK                         _______ _______ _______ _____ _____    ______ ____
ROOT
ATOM      1  C   UNL     1       1.616   9.321  18.656  0.00  0.00    +0.000 C 
ATOM      2  O   UNL     1       1.735   9.308  17.435  0.00  0.00    +0.000 OA
ATOM      3  N   UNL     1       1.989   8.251  19.459  0.00  0.00    +0.000 N 
ATOM      4  C   UNL     1       2.607   7.163  18.909  0.00  0.00    +0.000 C 
ATOM      5  O   UNL     1       3.405   7.212  17.980  0.00  0.00    +0.000 OA
ATOM      6  N   UNL     1       2.258   5.943  19.487  0.00  0.00    +0.000 N 
ATOM      7  H   UNL     1       1.739   8.235  20.428  0.00  0.00    +0.000 HD
ATOM      8  H   UNL     1       2.148   5.936  20.480  0.00  0.00    +0.000 HD
ENDROOT
BRANCH   6   9
ATOM      9  C   UNL     1       2.831   4.745  18.851  0.00  0.00    +0.000 C 
ATOM     10  C   UNL     1       1.930   4.179  17.702  0.00  0.00    +0.000 C 
ATOM     11  N   UNL     1       1.576   2.750  17.909  0.00  0.00    +0.000 NA
ATOM     12  C   UNL     1       2.823   1.962  17.933  0.00  0.00    +0.000 C 
ATOM     13  C   UNL     1       3.777   2.447  19.038  0.00  0.00    +0.000 C 
ATOM     14  C   UNL     1       3.114   3.591  19.840  0.00  0.00    +0.000 C 
ATOM     15  C   UNL     1       1.790   3.033  20.383  0.00  0.00    +0.000 C 
ATOM     16  C   UNL     1       0.887   2.625  19.209  0.00  0.00    +0.000 C 
ENDBRANCH   6   9
BRANCH   1  22
ATOM     17  C   UNL     1       1.327  11.830  18.909  0.00  0.00    +0.000 A 
ATOM     18  C   UNL     1       0.443  12.883  19.224  0.00  0.00    +0.000 A 
ATOM     19  C   UNL     1      -0.693  12.673  19.999  0.00  0.00    +0.000 A 
ATOM     20  C   UNL     1      -0.915  11.420  20.541  0.00  0.00    +0.000 A 
ATOM     21  C   UNL     1      -0.063  10.348  20.232  0.00  0.00    +0.000 A 
ATOM     22  C   UNL     1       1.007  10.522  19.311  0.00  0.00    +0.000 A 
BRANCH  17  24
ATOM     23  C   UNL     1       2.955  13.489  18.226  0.00  0.00    +0.000 C 
ATOM     24  O   UNL     1       2.348  12.201  18.068  0.00  0.00    +0.000 OA
ENDBRANCH  17  24
BRANCH  21  25
ATOM     25  O   UNL     1      -0.500   9.158  20.756  0.00  0.00    +0.000 OA
ATOM     26  C   UNL     1      -0.375   9.044  22.176  0.00  0.00    +0.000 C 
ENDBRANCH  21  25
ENDBRANCH   1  22
TORSDOF 4
ENDMDL
MODEL 2
REMARK VINA RESULT:      -7.1      0.468      2.684
REMARK  Name = 
REMARK  6 active torsions:
REMARK  status: ('A' for Active; 'I' for Inactive)
REMARK    1  A    between atoms: C_1  and  O_2
REMARK    2  A    between atoms: O_2  and  C_3
REMARK    3  A    between atoms: C_7  and  O_8
REMARK    4  A    between atoms: O_8  and  C_9
REMARK    5  A    between atoms: C_10  and  C_11
REMARK    6  A    between atoms: N_16  and  C_17
REMARK                            x       y       z     vdW  Elec       q    Type
REMARK                         _______ _______ _______ _____ _____    ______ ____
ROOT
ATOM      1  C   UNL     1       1.584   9.365  18.684  0.00  0.00    +0.000 C 
ATOM      2  O   UNL     1       1.677   9.360  17.460  0.00  0.00    +0.000 OA
ATOM      3  N   UNL     1       1.973   8.290  19.472  0.00  0.00    +0.000 N 
ATOM      4  C   UNL     1       2.580   7.206  18.903  0.00  0.00    +0.000 C 
ATOM      5  O   UNL     1       3.358   7.261  17.958  0.00  0.00    +0.000 OA
ATOM      6  N   UNL     1       2.242   5.982  19.480  0.00  0.00    +0.000 N 
ATOM      7  H   UNL     1       1.742   8.268  20.446  0.00  0.00    +0.000 HD
ATOM      8  H   UNL     1       2.152   5.968  20.474  0.00  0.00    +0.000 HD
ENDROOT
BRANCH   6   9
ATOM      9  C   UNL     1       2.802   4.788  18.824  0.00  0.00    +0.000 C 
ATOM     10  C   UNL     1       1.863   4.211  17.712  0.00  0.00    +0.000 C 
ATOM     11  N   UNL     1       1.532   2.779  17.936  0.00  0.00    +0.000 NA
ATOM     12  C   UNL     1       2.786   2.003  17.913  0.00  0.00    +0.000 C 
ATOM     13  C   UNL     1       3.778   2.500  18.980  0.00  0.00    +0.000 C 
ATOM     14  C   UNL     1       3.135   3.639  19.805  0.00  0.00    +0.000 C 
ATOM     15  C   UNL     1       1.839   3.070  20.399  0.00  0.00    +0.000 C 
ATOM     16  C   UNL     1       0.895   2.650  19.262  0.00  0.00    +0.000 C 
ENDBRANCH   6   9
BRANCH   1  22
ATOM     17  C   UNL     1       0.074  10.439  20.419  0.00  0.00    +0.000 A 
ATOM     18  C   UNL     1      -0.119  11.530  21.292  0.00  0.00    +0.000 A 
ATOM     19  C   UNL     1       0.507  12.754  21.078  0.00  0.00    +0.000 A 
ATOM     20  C   UNL     1       1.270  12.928  19.938  0.00  0.00    +0.000 A 
ATOM     21  C   UNL     1       1.494  11.857  19.059  0.00  0.00    +0.000 A 
ATOM     22  C   UNL     1       0.988  10.562  19.359  0.00  0.00    +0.000 A 
BRANCH  17  24
ATOM     23  C   UNL     1      -0.437   8.871  22.194  0.00  0.00    +0.000 C 
ATOM     24  O   UNL     1      -0.555   9.288  20.828  0.00  0.00    +0.000 OA
ENDBRANCH  17  24
BRANCH  21  25
ATOM     25  O   UNL     1       2.368  12.175  18.050  0.00  0.00    +0.000 OA
ATOM     26  C   UNL     1       2.994  13.455  18.177  0.00  0.00    +0.000 C 
ENDBRANCH  21  25
ENDBRANCH   1  22
TORSDOF 4
ENDMDL
MODEL 3
REMARK VINA RESULT:      -6.9      2.042      2.660
REMARK  Name = 
REMARK  6 active torsions:
REMARK  status: ('A' for Active; 'I' for Inactive)
REMARK    1  A    between atoms: C_1  and  O_2
REMARK    2  A    between atoms: O_2  and  C_3
REMARK    3  A    between atoms: C_7  and  O_8
REMARK    4  A    between atoms: O_8  and  C_9
REMARK    5  A    between atoms: C_10  and  C_11
REMARK    6  A    between atoms: N_16  and  C_17
REMARK                            x       y       z     vdW  Elec       q    Type
REMARK                         _______ _______ _______ _____ _____    ______ ____
ROOT
ATOM      1  C   UNL     1       0.965  10.194  20.633  0.00  0.00    +0.000 C 
ATOM      2  O   UNL     1       1.240  10.094  21.825  0.00  0.00    +0.000 OA
ATOM      3  N   UNL     1       1.135   9.151  19.732  0.00  0.00    +0.000 N 
ATOM      4  C   UNL     1       1.530   7.919  20.175  0.00  0.00    +0.000 C 
ATOM      5  O   UNL     1       1.190   7.422  21.243  0.00  0.00    +0.000 OA
ATOM      6  N   UNL     1       2.381   7.236  19.307  0.00  0.00    +0.000 N 
ATOM      7  H   UNL     1       1.046   9.313  18.748  0.00  0.00    +0.000 HD
ATOM      8  H   UNL     1       2.179   7.313  18.332  0.00  0.00    +0.000 HD
ENDROOT
BRANCH   6   9
ATOM      9  C   UNL     1       2.903   5.950  19.802  0.00  0.00    +0.000 C 
ATOM     10  C   UNL     1       4.323   5.613  19.234  0.00  0.00    +0.000 C 
ATOM     11  N   UNL     1       4.363   4.295  18.550  0.00  0.00    +0.000 NA
ATOM     12  C   UNL     1       4.011   3.251  19.531  0.00  0.00    +0.000 C 
ATOM     13  C   UNL     1       2.621   3.498  20.145  0.00  0.00    +0.000 C 
ATOM     14  C   UNL     1       1.977   4.748  19.502  0.00  0.00    +0.000 C 
ATOM     15  C   UNL     1       1.935   4.488  17.989  0.00  0.00    +0.000 C 
ATOM     16  C   UNL     1       3.366   4.306  17.460  0.00  0.00    +0.000 C 
ENDBRANCH   6   9
BRANCH   1  22
ATOM     17  C   UNL     1       1.174  12.702  20.307  0.00  0.00    +0.000 A 
ATOM     18  C   UNL     1       0.915  13.800  19.459  0.00  0.00    +0.000 A 
ATOM     19  C   UNL     1      -0.088  13.758  18.496  0.00  0.00    +0.000 A 
ATOM     20  C   UNL     1      -0.903  12.643  18.424  0.00  0.00    +0.000 A 
ATOM     21  C   UNL     1      -0.660  11.528  19.241  0.00  0.00    +0.000 A 
ATOM     22  C   UNL     1       0.462  11.506  20.114  0.00  0.00    +0.000 A 
BRANCH  17  24
ATOM     23  C   UNL     1       2.980  14.121  21.077  0.00  0.00    +0.000 C 
ATOM     24  O   UNL     1       2.251  12.890  21.139  0.00  0.00    +0.000 OA
ENDBRANCH  17  24
BRANCH  21  25
ATOM     25  O   UNL     1      -1.487  10.471  18.953  0.00  0.00    +0.000 OA
ATOM     26  C   UNL     1      -1.736  10.265  17.559  0.00  0.00    +0.000 C 
ENDBRANCH  21  25
ENDBRANCH   1  22
TORSDOF 4
ENDMDL
MODEL 4
REMARK VINA RESULT:      -6.9      2.269      8.016
REMARK  Name = 
REMARK  6 active torsions:
REMARK  status: ('A' for Active; 'I' for Inactive)
REMARK    1  A    between atoms: C_1  and  O_2
REMARK    2  A    between atoms: O_2  and  C_3
REMARK    3  A    between atoms: C_7  and  O_8
REMARK    4  A    between atoms: O_8  and  C_9
REMARK    5  A    between atoms: C_10  and  C_11
REMARK    6  A    between atoms: N_16  and  C_17
REMARK                            x       y       z     vdW  Elec       q    Type
REMARK                         _______ _______ _______ _____ _____    ______ ____
ROOT
ATOM      1  C   UNL     1       2.303   5.763  19.723  0.00  0.00    +0.000 C 
ATOM      2  O   UNL     1       1.612   5.333  20.641  0.00  0.00    +0.000 OA
ATOM      3  N   UNL     1       2.363   7.111  19.394  0.00  0.00    +0.000 N 
ATOM      4  C   UNL     1       1.715   8.035  20.166  0.00  0.00    +0.000 C 
ATOM      5  O   UNL     1       1.599   7.965  21.384  0.00  0.00    +0.000 OA
ATOM      6  N   UNL     1       1.165   9.102  19.456  0.00  0.00    +0.000 N 
ATOM      7  H   UNL     1       2.812   7.406  18.550  0.00  0.00    +0.000 HD
ATOM      8  H   UNL     1       1.709   9.459  18.698  0.00  0.00    +0.000 HD
ENDROOT
BRANCH   6   9
ATOM      9  C   UNL     1       0.376  10.059  20.248  0.00  0.00    +0.000 C 
ATOM     10  C   UNL     1      -1.006  10.395  19.593  0.00  0.00    +0.000 C 
ATOM     11  N   UNL     1      -1.195  11.854  19.380  0.00  0.00    +0.000 NA
ATOM     12  C   UNL     1      -1.144  12.526  20.693  0.00  0.00    +0.000 C 
ATOM     13  C   UNL     1       0.188  12.254  21.416  0.00  0.00    +0.000 C 
ATOM     14  C   UNL     1       1.108  11.395  20.516  0.00  0.00    +0.000 C 
ATOM     15  C   UNL     1       1.278  12.169  19.201  0.00  0.00    +0.000 C 
ATOM     16  C   UNL     1      -0.092  12.346  18.529  0.00  0.00    +0.000 C 
ENDBRANCH   6   9
BRANCH   1  22
ATOM     17  C   UNL     1       2.459   3.873  18.036  0.00  0.00    +0.000 A 
ATOM     18  C   UNL     1       3.197   3.303  16.977  0.00  0.00    +0.000 A 
ATOM     19  C   UNL     1       4.554   3.563  16.813  0.00  0.00    +0.000 A 
ATOM     20  C   UNL     1       5.210   4.331  17.757  0.00  0.00    +0.000 A 
ATOM     21  C   UNL     1       4.500   4.925  18.812  0.00  0.00    +0.000 A 
ATOM     22  C   UNL     1       3.086   4.794  18.891  0.00  0.00    +0.000 A 
BRANCH  17  24
ATOM     23  C   UNL     1       0.619   2.481  18.776  0.00  0.00    +0.000 C 
ATOM     24  O   UNL     1       1.118   3.574  17.996  0.00  0.00    +0.000 OA
ENDBRANCH  17  24
BRANCH  21  25
ATOM     25  O   UNL     1       5.285   5.748  19.580  0.00  0.00    +0.000 OA
ATOM     26  C   UNL     1       6.694   5.555  19.422  0.00  0.00    +0.000 C 
ENDBRANCH  21  25
ENDBRANCH   1  22
TORSDOF 4
ENDMDL
MODEL 5
REMARK VINA RESULT:      -6.8      1.468      1.798
REMARK  Name = 
REMARK  6 active torsions:
REMARK  status: ('A' for Active; 'I' for Inactive)
REMARK    1  A    between atoms: C_1  and  O_2
REMARK    2  A    between atoms: O_2  and  C_3
REMARK    3  A    between atoms: C_7  and  O_8
REMARK    4  A    between atoms: O_8  and  C_9
REMARK    5  A    between atoms: C_10  and  C_11
REMARK    6  A    between atoms: N_16  and  C_17
REMARK                            x       y       z     vdW  Elec       q    Type
REMARK                         _______ _______ _______ _____ _____    ______ ____
ROOT
ATOM      1  C   UNL     1       1.131   9.298  19.148  0.00  0.00    +0.000 C 
ATOM      2  O   UNL     1       1.398   9.375  17.953  0.00  0.00    +0.000 OA
ATOM      3  N   UNL     1       1.491   8.208  19.930  0.00  0.00    +0.000 N 
ATOM      4  C   UNL     1       2.260   7.208  19.401  0.00  0.00    +0.000 C 
ATOM      5  O   UNL     1       3.157   7.380  18.584  0.00  0.00    +0.000 OA
ATOM      6  N   UNL     1       1.945   5.930  19.859  0.00  0.00    +0.000 N 
ATOM      7  H   UNL     1       1.127   8.108  20.857  0.00  0.00    +0.000 HD
ATOM      8  H   UNL     1       1.716   5.848  20.828  0.00  0.00    +0.000 HD
ENDROOT
BRANCH   6   9
ATOM      9  C   UNL     1       2.689   4.824  19.233  0.00  0.00    +0.000 C 
ATOM     10  C   UNL     1       2.052   4.354  17.882  0.00  0.00    +0.000 C 
ATOM     11  N   UNL     1       1.738   2.901  17.877  0.00  0.00    +0.000 NA
ATOM     12  C   UNL     1       2.996   2.153  18.065  0.00  0.00    +0.000 C 
ATOM     13  C   UNL     1       3.698   2.549  19.377  0.00  0.00    +0.000 C 
ATOM     14  C   UNL     1       2.837   3.581  20.142  0.00  0.00    +0.000 C 
ATOM     15  C   UNL     1       1.464   2.929  20.361  0.00  0.00    +0.000 C 
ATOM     16  C   UNL     1       0.822   2.618  19.000  0.00  0.00    +0.000 C 
ENDBRANCH   6   9
BRANCH   1  22
ATOM     17  C   UNL     1      -0.661  11.095  19.098  0.00  0.00    +0.000 A 
ATOM     18  C   UNL     1      -1.641  11.795  19.833  0.00  0.00    +0.000 A 
ATOM     19  C   UNL     1      -1.583  11.890  21.220  0.00  0.00    +0.000 A 
ATOM     20  C   UNL     1      -0.494  11.357  21.884  0.00  0.00    +0.000 A 
ATOM     21  C   UNL     1       0.489  10.641  21.184  0.00  0.00    +0.000 A 
ATOM     22  C   UNL     1       0.349  10.404  19.788  0.00  0.00    +0.000 A 
BRANCH  17  24
ATOM     23  C   UNL     1      -2.016  10.235  17.283  0.00  0.00    +0.000 C 
ATOM     24  O   UNL     1      -0.922  11.033  17.751  0.00  0.00    +0.000 OA
ENDBRANCH  17  24
BRANCH  21  25
ATOM     25  O   UNL     1       1.428  10.082  22.013  0.00  0.00    +0.000 OA
ATOM     26  C   UNL     1       0.894   9.343  23.116  0.00  0.00    +0.000 C 
ENDBRANCH  21  25
ENDBRANCH   1  22
TORSDOF 4
ENDMDL
MODEL 6
REMARK VINA RESULT:      -6.8      1.486      2.300
REMARK  Name = 
REMARK  6 active torsions:
REMARK  status: ('A' for Active; 'I' for Inactive)
REMARK    1  A    between atoms: C_1  and  O_2
REMARK    2  A    between atoms: O_2  and  C_3
REMARK    3  A    between atoms: C_7  and  O_8
REMARK    4  A    between atoms: O_8  and  C_9
REMARK    5  A    between atoms: C_10  and  C_11
REMARK    6  A    between atoms: N_16  and  C_17
REMARK                            x       y       z     vdW  Elec       q    Type
REMARK                         _______ _______ _______ _____ _____    ______ ____
ROOT
ATOM      1  C   UNL     1       1.088   9.142  19.151  0.00  0.00    +0.000 C 
ATOM      2  O   UNL     1       1.453   9.271  17.986  0.00  0.00    +0.000 OA
ATOM      3  N   UNL     1       1.410   8.033  19.922  0.00  0.00    +0.000 N 
ATOM      4  C   UNL     1       2.249   7.074  19.426  0.00  0.00    +0.000 C 
ATOM      5  O   UNL     1       3.208   7.298  18.696  0.00  0.00    +0.000 OA
ATOM      6  N   UNL     1       1.932   5.771  19.810  0.00  0.00    +0.000 N 
ATOM      7  H   UNL     1       0.972   7.890  20.810  0.00  0.00    +0.000 HD
ATOM      8  H   UNL     1       1.624   5.647  20.752  0.00  0.00    +0.000 HD
ENDROOT
BRANCH   6   9
ATOM      9  C   UNL     1       2.757   4.709  19.212  0.00  0.00    +0.000 C 
ATOM     10  C   UNL     1       2.222   4.239  17.817  0.00  0.00    +0.000 C 
ATOM     11  N   UNL     1       1.971   2.774  17.769  0.00  0.00    +0.000 NA
ATOM     12  C   UNL     1       3.245   2.075  18.021  0.00  0.00    +0.000 C 
ATOM     13  C   UNL     1       3.850   2.475  19.378  0.00  0.00    +0.000 C 
ATOM     14  C   UNL     1       2.903   3.456  20.108  0.00  0.00    +0.000 C 
ATOM     15  C   UNL     1       1.549   2.745  20.233  0.00  0.00    +0.000 C 
ATOM     16  C   UNL     1       1.002   2.433  18.831  0.00  0.00    +0.000 C 
ENDBRANCH   6   9
BRANCH   1  22
ATOM     17  C   UNL     1       0.445  10.685  21.061  0.00  0.00    +0.000 A 
ATOM     18  C   UNL     1      -0.079  11.943  21.427  0.00  0.00    +0.000 A 
ATOM     19  C   UNL     1      -0.884  12.677  20.562  0.00  0.00    +0.000 A 
ATOM     20  C   UNL     1      -1.245  12.124  19.348  0.00  0.00    +0.000 A 
ATOM     21  C   UNL     1      -0.726  10.883  18.947  0.00  0.00    +0.000 A 
ATOM     22  C   UNL     1       0.223  10.203  19.760  0.00  0.00    +0.000 A 
BRANCH  17  24
ATOM     23  C   UNL     1       0.727   9.377  23.080  0.00  0.00    +0.000 C 
ATOM     24  O   UNL     1       1.283  10.142  22.004  0.00  0.00    +0.000 OA
ENDBRANCH  17  24
BRANCH  21  25
ATOM     25  O   UNL     1      -1.093  10.544  17.669  0.00  0.00    +0.000 OA
ATOM     26  C   UNL     1      -2.406   9.991  17.546  0.00  0.00    +0.000 C 
ENDBRANCH  21  25
ENDBRANCH   1  22
TORSDOF 4
ENDMDL
MODEL 7
REMARK VINA RESULT:      -6.7      1.702      2.314
REMARK  Name = 
REMARK  6 active torsions:
REMARK  status: ('A' for Active; 'I' for Inactive)
REMARK    1  A    between atoms: C_1  and  O_2
REMARK    2  A    between atoms: O_2  and  C_3
REMARK    3  A    between atoms: C_7  and  O_8
REMARK    4  A    between atoms: O_8  and  C_9
REMARK    5  A    between atoms: C_10  and  C_11
REMARK    6  A    between atoms: N_16  and  C_17
REMARK                            x       y       z     vdW  Elec       q    Type
REMARK                         _______ _______ _______ _____ _____    ______ ____
ROOT
ATOM      1  C   UNL     1       0.384  10.244  19.199  0.00  0.00    +0.000 C 
ATOM      2  O   UNL     1      -0.217  10.205  18.130  0.00  0.00    +0.000 OA
ATOM      3  N   UNL     1       1.452   9.406  19.492  0.00  0.00    +0.000 N 
ATOM      4  C   UNL     1       1.941   8.558  18.538  0.00  0.00    +0.000 C 
ATOM      5  O   UNL     1       2.005   8.820  17.342  0.00  0.00    +0.000 OA
ATOM      6  N   UNL     1       2.374   7.325  19.024  0.00  0.00    +0.000 N 
ATOM      7  H   UNL     1       1.817   9.360  20.423  0.00  0.00    +0.000 HD
ATOM      8  H   UNL     1       2.858   7.335  19.897  0.00  0.00    +0.000 HD
ENDROOT
BRANCH   6   9
ATOM      9  C   UNL     1       2.813   6.354  18.006  0.00  0.00    +0.000 C 
ATOM     10  C   UNL     1       2.117   4.960  18.159  0.00  0.00    +0.000 C 
ATOM     11  N   UNL     1       3.095   3.848  18.288  0.00  0.00    +0.000 NA
ATOM     12  C   UNL     1       3.918   3.809  17.064  0.00  0.00    +0.000 C 
ATOM     13  C   UNL     1       4.647   5.144  16.830  0.00  0.00    +0.000 C 
ATOM     14  C   UNL     1       4.341   6.120  17.990  0.00  0.00    +0.000 C 
ATOM     15  C   UNL     1       4.773   5.411  19.282  0.00  0.00    +0.000 C 
ATOM     16  C   UNL     1       3.958   4.120  19.455  0.00  0.00    +0.000 C 
ENDBRANCH   6   9
BRANCH   1  22
ATOM     17  C   UNL     1      -0.335  12.556  19.960  0.00  0.00    +0.000 A 
ATOM     18  C   UNL     1      -1.156  13.302  20.832  0.00  0.00    +0.000 A 
ATOM     19  C   UNL     1      -1.642  12.759  22.018  0.00  0.00    +0.000 A 
ATOM     20  C   UNL     1      -1.241  11.489  22.389  0.00  0.00    +0.000 A 
ATOM     21  C   UNL     1      -0.438  10.716  21.536  0.00  0.00    +0.000 A 
ATOM     22  C   UNL     1      -0.073  11.207  20.251  0.00  0.00    +0.000 A 
BRANCH  17  24
ATOM     23  C   UNL     1      -0.141  14.647  18.751  0.00  0.00    +0.000 C 
ATOM     24  O   UNL     1      -0.017  13.220  18.800  0.00  0.00    +0.000 OA
ENDBRANCH  17  24
BRANCH  21  25
ATOM     25  O   UNL     1      -0.238   9.443  22.007  0.00  0.00    +0.000 OA
ATOM     26  C   UNL     1       0.084   9.360  23.398  0.00  0.00    +0.000 C 
ENDBRANCH  21  25
ENDBRANCH   1  22
TORSDOF 4
ENDMDL
MODEL 8
REMARK VINA RESULT:      -6.7      1.230      1.395
REMARK  Name = 
REMARK  6 active torsions:
REMARK  status: ('A' for Active; 'I' for Inactive)
REMARK    1  A    between atoms: C_1  and  O_2
REMARK    2  A    between atoms: O_2  and  C_3
REMARK    3  A    between atoms: C_7  and  O_8
REMARK    4  A    between atoms: O_8  and  C_9
REMARK    5  A    between atoms: C_10  and  C_11
REMARK    6  A    between atoms: N_16  and  C_17
REMARK                            x       y       z     vdW  Elec       q    Type
REMARK                         _______ _______ _______ _____ _____    ______ ____
ROOT
ATOM      1  C   UNL     1       1.473   9.702  18.320  0.00  0.00    +0.000 C 
ATOM      2  O   UNL     1       1.941   9.625  17.188  0.00  0.00    +0.000 OA
ATOM      3  N   UNL     1       1.594   8.682  19.254  0.00  0.00    +0.000 N 
ATOM      4  C   UNL     1       2.341   7.574  18.967  0.00  0.00    +0.000 C 
ATOM      5  O   UNL     1       3.374   7.584  18.308  0.00  0.00    +0.000 OA
ATOM      6  N   UNL     1       1.835   6.382  19.485  0.00  0.00    +0.000 N 
ATOM      7  H   UNL     1       1.073   8.715  20.108  0.00  0.00    +0.000 HD
ATOM      8  H   UNL     1       1.442   6.427  20.402  0.00  0.00    +0.000 HD
ENDROOT
BRANCH   6   9
ATOM      9  C   UNL     1       2.564   5.159  19.109  0.00  0.00    +0.000 C 
ATOM     10  C   UNL     1       1.967   4.464  17.839  0.00  0.00    +0.000 C 
ATOM     11  N   UNL     1       1.603   3.045  18.087  0.00  0.00    +0.000 NA
ATOM     12  C   UNL     1       2.825   2.311  18.469  0.00  0.00    +0.000 C 
ATOM     13  C   UNL     1       3.485   2.925  19.716  0.00  0.00    +0.000 C 
ATOM     14  C   UNL     1       2.631   4.104  20.237  0.00  0.00    +0.000 C 
ATOM     15  C   UNL     1       1.228   3.541  20.508  0.00  0.00    +0.000 C 
ATOM     16  C   UNL     1       0.632   3.000  19.198  0.00  0.00    +0.000 C 
ENDBRANCH   6   9
BRANCH   1  22
ATOM     17  C   UNL     1       1.322  12.184  18.828  0.00  0.00    +0.000 A 
ATOM     18  C   UNL     1       0.533  13.351  18.754  0.00  0.00    +0.000 A 
ATOM     19  C   UNL     1      -0.853  13.288  18.649  0.00  0.00    +0.000 A 
ATOM     20  C   UNL     1      -1.475  12.054  18.701  0.00  0.00    +0.000 A 
ATOM     21  C   UNL     1      -0.717  10.875  18.757  0.00  0.00    +0.000 A 
ATOM     22  C   UNL     1       0.704  10.929  18.703  0.00  0.00    +0.000 A 
BRANCH  17  24
ATOM     23  C   UNL     1       3.162  13.686  18.350  0.00  0.00    +0.000 C 
ATOM     24  O   UNL     1       2.673  12.434  18.845  0.00  0.00    +0.000 OA
ENDBRANCH  17  24
BRANCH  21  25
ATOM     25  O   UNL     1      -1.490   9.744  18.681  0.00  0.00    +0.000 OA
ATOM     26  C   UNL     1      -2.595   9.830  17.776  0.00  0.00    +0.000 C 
ENDBRANCH  21  25
ENDBRANCH   1  22
TORSDOF 4
ENDMDL
MODEL 9
REMARK VINA RESULT:      -6.6      2.879      4.170
REMARK  Name = 
REMARK  6 active torsions:
REMARK  status: ('A' for Active; 'I' for Inactive)
REMARK    1  A    between atoms: C_1  and  O_2
REMARK    2  A    between atoms: O_2  and  C_3
REMARK    3  A    between atoms: C_7  and  O_8
REMARK    4  A    between atoms: O_8  and  C_9
REMARK    5  A    between atoms: C_10  and  C_11
REMARK    6  A    between atoms: N_16  and  C_17
REMARK                            x       y       z     vdW  Elec       q    Type
REMARK                         _______ _______ _______ _____ _____    ______ ____
ROOT
ATOM      1  C   UNL     1       1.408   8.344  19.814  0.00  0.00    +0.000 C 
ATOM      2  O   UNL     1       1.346   7.447  20.649  0.00  0.00    +0.000 OA
ATOM      3  N   UNL     1       2.199   8.258  18.675  0.00  0.00    +0.000 N 
ATOM      4  C   UNL     1       2.871   7.102  18.392  0.00  0.00    +0.000 C 
ATOM      5  O   UNL     1       2.446   5.976  18.622  0.00  0.00    +0.000 OA
ATOM      6  N   UNL     1       4.124   7.288  17.808  0.00  0.00    +0.000 N 
ATOM      7  H   UNL     1       2.343   9.064  18.098  0.00  0.00    +0.000 HD
ATOM      8  H   UNL     1       4.196   8.020  17.133  0.00  0.00    +0.000 HD
ENDROOT
BRANCH   6   9
ATOM      9  C   UNL     1       4.913   6.065  17.584  0.00  0.00    +0.000 C 
ATOM     10  C   UNL     1       5.552   5.506  18.900  0.00  0.00    +0.000 C 
ATOM     11  N   UNL     1       7.027   5.351  18.794  0.00  0.00    +0.000 NA
ATOM     12  C   UNL     1       7.317   4.393  17.711  0.00  0.00    +0.000 C 
ATOM     13  C   UNL     1       6.726   4.861  16.369  0.00  0.00    +0.000 C 
ATOM     14  C   UNL     1       6.047   6.239  16.546  0.00  0.00    +0.000 C 
ATOM     15  C   UNL     1       7.120   7.187  17.100  0.00  0.00    +0.000 C 
ATOM     16  C   UNL     1       7.611   6.666  18.461  0.00  0.00    +0.000 C 
ENDBRANCH   6   9
BRANCH   1  22
ATOM     17  C   UNL     1       0.674  10.285  21.275  0.00  0.00    +0.000 A 
ATOM     18  C   UNL     1       0.307  11.647  21.320  0.00  0.00    +0.000 A 
ATOM     19  C   UNL     1      -0.178  12.308  20.196  0.00  0.00    +0.000 A 
ATOM     20  C   UNL     1      -0.382  11.592  19.031  0.00  0.00    +0.000 A 
ATOM     21  C   UNL     1      -0.012  10.241  18.950  0.00  0.00    +0.000 A 
ATOM     22  C   UNL     1       0.633   9.604  20.047  0.00  0.00    +0.000 A 
BRANCH  17  24
ATOM     23  C   UNL     1       0.330   9.402  23.505  0.00  0.00    +0.000 C 
ATOM     24  O   UNL     1       1.208   9.819  22.452  0.00  0.00    +0.000 OA
ENDBRANCH  17  24
BRANCH  21  25
ATOM     25  O   UNL     1      -0.173   9.723  17.690  0.00  0.00    +0.000 OA
ATOM     26  C   UNL     1      -1.497   9.832  17.159  0.00  0.00    +0.000 C 
ENDBRANCH  21  25
ENDBRANCH   1  22
TORSDOF 4
ENDMDL
