MODEL 1
REMARK VINA RESULT:      -8.0      0.000      0.000
REMARK  Name = 
REMARK  4 active torsions:
REMARK  status: ('A' for Active; 'I' for Inactive)
REMARK    1  A    between atoms: C_4  and  C_5
REMARK    2  A    between atoms: C_15  and  C_16
REMARK    3  A    between atoms: C_16  and  C_17
REMARK    4  A    between atoms: C_17  and  C_18
REMARK                            x       y       z     vdW  Elec       q    Type
REMARK                         _______ _______ _______ _____ _____    ______ ____
ROOT
ATOM      1  N   UNL     1       1.814   9.535  17.498  0.00  0.00    +0.000 NA
ATOM      2  C   UNL     1       1.609   9.366  18.756  0.00  0.00    +0.000 C 
ATOM      3  N   UNL     1       1.067  10.436  19.540  0.00  0.00    +0.000 N 
ATOM      4  C   UNL     1       0.775  10.277  20.960  0.00  0.00    +0.000 C 
ATOM      5  C   UNL     1       0.542   8.795  21.310  0.00  0.00    +0.000 C 
ATOM      6  C   UNL     1       1.693   7.933  20.802  0.00  0.00    +0.000 C 
ATOM      7  C   UNL     1       1.361   6.447  20.912  0.00  0.00    +0.000 C 
ATOM      8  C   UNL     1       2.315   5.861  19.902  0.00  0.00    +0.000 C 
ATOM      9  C   UNL     1       2.203   6.847  18.722  0.00  0.00    +0.000 C 
ATOM     10  N   UNL     1       1.922   8.118  19.387  0.00  0.00    +0.000 N 
ATOM     11  H   UNL     1       1.590  10.428  17.033  0.00  0.00    +0.000 HD
ATOM     12  H   UNL     1       1.000  11.378  19.124  0.00  0.00    +0.000 HD
ENDROOT
BRANCH   4  13
ATOM     13  C   UNL     1      -0.461  11.074  21.338  0.00  0.00    +0.000 A 
ATOM     14  C   UNL     1      -0.878  11.165  22.682  0.00  0.00    +0.000 A 
ATOM     15  C   UNL     1      -2.006  11.916  23.026  0.00  0.00    +0.000 A 
ATOM     16  C   UNL     1      -2.734  12.579  22.037  0.00  0.00    +0.000 A 
ATOM     17  C   UNL     1      -2.336  12.492  20.700  0.00  0.00    +0.000 A 
ATOM     18  C   UNL     1      -1.206  11.745  20.349  0.00  0.00    +0.000 A 
ENDBRANCH   4  13
BRANCH   9  19
ATOM     19  C   UNL     1       3.500   6.825  17.867  0.00  0.00    +0.000 C 
BRANCH  19  20
ATOM     20  C   UNL     1       3.735   5.420  17.262  0.00  0.00    +0.000 C 
BRANCH  20  21
ATOM     21  C   UNL     1       5.179   5.127  16.932  0.00  0.00    +0.000 A 
ATOM     22  C   UNL     1       6.117   4.955  17.967  0.00  0.00    +0.000 A 
ATOM     23  C   UNL     1       7.446   4.656  17.657  0.00  0.00    +0.000 A 
ATOM     24  N   UNL     1       7.828   4.529  16.360  0.00  0.00    +0.000 NA
ATOM     25  C   UNL     1       6.945   4.688  15.338  0.00  0.00    +0.000 A 
ATOM     26  C   UNL     1       5.605   4.990  15.603  0.00  0.00    +0.000 A 
ENDBRANCH  20  21
ENDBRANCH  19  20
ENDBRANCH   9  19
TORSDOF 4
ENDMDL
MODEL 2
REMARK VINA RESULT:      -8.0      0.119      1.395
REMARK  Name = 
REMARK  4 active torsions:
REMARK  status: ('A' for Active; 'I' for Inactive)
REMARK    1  A    between atoms: C_4  and  C_5
REMARK    2  A    between atoms: C_15  and  C_16
REMARK    3  A    between atoms: C_16  and  C_17
REMARK    4  A    between atoms: C_17  and  C_18
REMARK                            x       y       z     vdW  Elec       q    Type
REMARK                         _______ _______ _______ _____ _____    ______ ____
ROOT
ATOM      1  N   UNL     1       1.701   9.420  17.460  0.00  0.00    +0.000 NA
ATOM      2  C   UNL     1       1.545   9.280  18.729  0.00  0.00    +0.000 C 
ATOM      3  N   UNL     1       1.039  10.370  19.510  0.00  0.00    +0.000 N 
ATOM      4  C   UNL     1       0.800  10.243  20.943  0.00  0.00    +0.000 C 
ATOM      5  C   UNL     1       0.573   8.771  21.334  0.00  0.00    +0.000 C 
ATOM      6  C   UNL     1       1.699   7.890  20.801  0.00  0.00    +0.000 C 
ATOM      7  C   UNL     1       1.363   6.409  20.956  0.00  0.00    +0.000 C 
ATOM      8  C   UNL     1       2.274   5.796  19.922  0.00  0.00    +0.000 C 
ATOM      9  C   UNL     1       2.123   6.757  18.726  0.00  0.00    +0.000 C 
ATOM     10  N   UNL     1       1.874   8.043  19.374  0.00  0.00    +0.000 N 
ATOM     11  H   UNL     1       1.465  10.304  16.985  0.00  0.00    +0.000 HD
ATOM     12  H   UNL     1       0.961  11.303  19.076  0.00  0.00    +0.000 HD
ENDROOT
BRANCH   4  13
ATOM     13  C   UNL     1      -0.416  11.056  21.351  0.00  0.00    +0.000 A 
ATOM     14  C   UNL     1      -1.128  11.815  20.401  0.00  0.00    +0.000 A 
ATOM     15  C   UNL     1      -2.258  12.546  20.779  0.00  0.00    +0.000 A 
ATOM     16  C   UNL     1      -2.687  12.535  22.107  0.00  0.00    +0.000 A 
ATOM     17  C   UNL     1      -1.986  11.793  23.061  0.00  0.00    +0.000 A 
ATOM     18  C   UNL     1      -0.856  11.055  22.689  0.00  0.00    +0.000 A 
ENDBRANCH   4  13
BRANCH   9  19
ATOM     19  C   UNL     1       3.386   6.708  17.823  0.00  0.00    +0.000 C 
BRANCH  19  20
ATOM     20  C   UNL     1       3.666   5.262  17.350  0.00  0.00    +0.000 C 
BRANCH  20  21
ATOM     21  C   UNL     1       5.120   4.986  17.045  0.00  0.00    +0.000 A 
ATOM     22  C   UNL     1       5.558   4.913  15.710  0.00  0.00    +0.000 A 
ATOM     23  C   UNL     1       6.908   4.686  15.434  0.00  0.00    +0.000 A 
ATOM     24  N   UNL     1       7.794   4.541  16.454  0.00  0.00    +0.000 NA
ATOM     25  C   UNL     1       7.403   4.608  17.754  0.00  0.00    +0.000 A 
ATOM     26  C   UNL     1       6.060   4.832  18.075  0.00  0.00    +0.000 A 
ENDBRANCH  20  21
ENDBRANCH  19  20
ENDBRANCH   9  19
TORSDOF 4
ENDMDL
MODEL 3
REMARK VINA RESULT:      -8.0      2.375      8.177
REMARK  Name = 
REMARK  4 active torsions:
REMARK  status: ('A' for Active; 'I' for Inactive)
REMARK    1  A    between atoms: C_4  and  C_5
REMARK    2  A    between atoms: C_15  and  C_16
REMARK    3  A    between atoms: C_16  and  C_17
REMARK    4  A    between atoms: C_17  and  C_18
REMARK                            x       y       z     vdW  Elec       q    Type
REMARK                         _______ _______ _______ _____ _____    ______ ____
ROOT
ATOM      1  N   UNL     1       1.909  10.363  17.451  0.00  0.00    +0.000 NA
ATOM      2  C   UNL     1       1.854   9.312  18.190  0.00  0.00    +0.000 C 
ATOM      3  N   UNL     1       2.462   8.093  17.744  0.00  0.00    +0.000 N 
ATOM      4  C   UNL     1       2.465   6.890  18.567  0.00  0.00    +0.000 C 
ATOM      5  C   UNL     1       2.323   7.245  20.059  0.00  0.00    +0.000 C 
ATOM      6  C   UNL     1       1.124   8.161  20.285  0.00  0.00    +0.000 C 
ATOM      7  C   UNL     1       1.118   8.724  21.704  0.00  0.00    +0.000 C 
ATOM      8  C   UNL     1       0.253   9.946  21.526  0.00  0.00    +0.000 C 
ATOM      9  C   UNL     1       0.768  10.534  20.197  0.00  0.00    +0.000 C 
ATOM     10  N   UNL     1       1.186   9.344  19.458  0.00  0.00    +0.000 N 
ATOM     11  H   UNL     1       2.389  10.352  16.538  0.00  0.00    +0.000 HD
ATOM     12  H   UNL     1       2.792   8.026  16.768  0.00  0.00    +0.000 HD
ENDROOT
BRANCH   4  13
ATOM     13  C   UNL     1       3.755   6.114  18.365  0.00  0.00    +0.000 A 
ATOM     14  C   UNL     1       4.585   6.371  17.255  0.00  0.00    +0.000 A 
ATOM     15  C   UNL     1       5.780   5.667  17.084  0.00  0.00    +0.000 A 
ATOM     16  C   UNL     1       6.159   4.695  18.012  0.00  0.00    +0.000 A 
ATOM     17  C   UNL     1       5.343   4.425  19.113  0.00  0.00    +0.000 A 
ATOM     18  C   UNL     1       4.146   5.129  19.292  0.00  0.00    +0.000 A 
ENDBRANCH   4  13
BRANCH   9  19
ATOM     19  C   UNL     1      -0.339  11.381  19.509  0.00  0.00    +0.000 C 
BRANCH  19  20
ATOM     20  C   UNL     1      -1.675  10.602  19.459  0.00  0.00    +0.000 C 
BRANCH  20  21
ATOM     21  C   UNL     1      -2.390  10.696  18.133  0.00  0.00    +0.000 A 
ATOM     22  C   UNL     1      -1.896   9.998  17.015  0.00  0.00    +0.000 A 
ATOM     23  C   UNL     1      -2.577  10.065  15.798  0.00  0.00    +0.000 A 
ATOM     24  N   UNL     1      -3.715  10.799  15.697  0.00  0.00    +0.000 NA
ATOM     25  C   UNL     1      -4.219  11.483  16.758  0.00  0.00    +0.000 A 
ATOM     26  C   UNL     1      -3.568  11.445  17.995  0.00  0.00    +0.000 A 
ENDBRANCH  20  21
ENDBRANCH  19  20
ENDBRANCH   9  19
TORSDOF 4
ENDMDL
MODEL 4
REMARK VINA RESULT:      -7.9      1.553      2.785
REMARK  Name = 
REMARK  4 active torsions:
REMARK  status: ('A' for Active; 'I' for Inactive)
REMARK    1  A    between atoms: C_4  and  C_5
REMARK    2  A    between atoms: C_15  and  C_16
REMARK    3  A    between atoms: C_16  and  C_17
REMARK    4  A    between atoms: C_17  and  C_18
REMARK                            x       y       z     vdW  Elec       q    Type
REMARK                         _______ _______ _______ _____ _____    ______ ____
ROOT
ATOM      1  N   UNL     1       2.802   6.755  17.321  0.00  0.00    +0.000 NA
ATOM      2  C   UNL     1       2.449   6.610  18.550  0.00  0.00    +0.000 C 
ATOM      3  N   UNL     1       2.285   7.762  19.386  0.00  0.00    +0.000 N 
ATOM      4  C   UNL     1       1.842   7.649  20.771  0.00  0.00    +0.000 C 
ATOM      5  C   UNL     1       1.044   6.350  20.988  0.00  0.00    +0.000 C 
ATOM      6  C   UNL     1       1.826   5.144  20.476  0.00  0.00    +0.000 C 
ATOM      7  C   UNL     1       0.954   3.891  20.449  0.00  0.00    +0.000 C 
ATOM      8  C   UNL     1       1.697   3.043  19.448  0.00  0.00    +0.000 C 
ATOM      9  C   UNL     1       2.058   4.059  18.346  0.00  0.00    +0.000 C 
ATOM     10  N   UNL     1       2.220   5.304  19.094  0.00  0.00    +0.000 N 
ATOM     11  H   UNL     1       2.966   7.690  16.918  0.00  0.00    +0.000 HD
ATOM     12  H   UNL     1       2.610   8.680  19.043  0.00  0.00    +0.000 HD
ENDROOT
BRANCH   4  13
ATOM     13  C   UNL     1       0.968   8.834  21.144  0.00  0.00    +0.000 A 
ATOM     14  C   UNL     1       0.558   9.764  20.168  0.00  0.00    +0.000 A 
ATOM     15  C   UNL     1      -0.262  10.841  20.515  0.00  0.00    +0.000 A 
ATOM     16  C   UNL     1      -0.677  11.009  21.836  0.00  0.00    +0.000 A 
ATOM     17  C   UNL     1      -0.273  10.098  22.816  0.00  0.00    +0.000 A 
ATOM     18  C   UNL     1       0.545   9.015  22.475  0.00  0.00    +0.000 A 
ENDBRANCH   4  13
BRANCH   9  19
ATOM     19  C   UNL     1       3.316   3.593  17.563  0.00  0.00    +0.000 C 
BRANCH  19  20
ATOM     20  C   UNL     1       4.601   3.850  18.386  0.00  0.00    +0.000 C 
BRANCH  20  21
ATOM     21  C   UNL     1       5.654   4.643  17.648  0.00  0.00    +0.000 A 
ATOM     22  C   UNL     1       5.980   4.316  16.319  0.00  0.00    +0.000 A 
ATOM     23  C   UNL     1       6.933   5.070  15.632  0.00  0.00    +0.000 A 
ATOM     24  N   UNL     1       7.540   6.118  16.247  0.00  0.00    +0.000 NA
ATOM     25  C   UNL     1       7.246   6.461  17.529  0.00  0.00    +0.000 A 
ATOM     26  C   UNL     1       6.298   5.731  18.254  0.00  0.00    +0.000 A 
ENDBRANCH  20  21
ENDBRANCH  19  20
ENDBRANCH   9  19
TORSDOF 4
ENDMDL
MODEL 5
REMARK VINA RESULT:      -7.9      1.629      2.576
REMARK  Name = 
REMARK  4 active torsions:
REMARK  status: ('A' for Active; 'I' for Inactive)
REMARK    1  A    between atoms: C_4  and  C_5
REMARK    2  A    between atoms: C_15  and  C_16
REMARK    3  A    between atoms: C_16  and  C_17
REMARK    4  A    between atoms: C_17  and  C_18
REMARK                            x       y       z     vdW  Elec       q    Type
REMARK                         _______ _______ _______ _____ _____    ______ ____
ROOT
ATOM      1  N   UNL     1       2.904   6.483  17.353  0.00  0.00    +0.000 NA
ATOM      2  C   UNL     1       2.552   6.418  18.588  0.00  0.00    +0.000 C 
ATOM      3  N   UNL     1       2.351   7.623  19.337  0.00  0.00    +0.000 N 
ATOM      4  C   UNL     1       1.907   7.599  20.726  0.00  0.00    +0.000 C 
ATOM      5  C   UNL     1       1.148   6.296  21.038  0.00  0.00    +0.000 C 
ATOM      6  C   UNL     1       1.967   5.079  20.616  0.00  0.00    +0.000 C 
ATOM      7  C   UNL     1       1.133   3.802  20.681  0.00  0.00    +0.000 C 
ATOM      8  C   UNL     1       1.904   2.905  19.746  0.00  0.00    +0.000 C 
ATOM      9  C   UNL     1       2.238   3.849  18.572  0.00  0.00    +0.000 C 
ATOM     10  N   UNL     1       2.360   5.150  19.227  0.00  0.00    +0.000 N 
ATOM     11  H   UNL     1       3.042   7.390  16.882  0.00  0.00    +0.000 HD
ATOM     12  H   UNL     1       2.649   8.523  18.928  0.00  0.00    +0.000 HD
ENDROOT
BRANCH   4  13
ATOM     13  C   UNL     1       0.997   8.781  21.010  0.00  0.00    +0.000 A 
ATOM     14  C   UNL     1       0.553   9.051  22.321  0.00  0.00    +0.000 A 
ATOM     15  C   UNL     1      -0.270  10.152  22.579  0.00  0.00    +0.000 A 
ATOM     16  C   UNL     1      -0.664  10.991  21.536  0.00  0.00    +0.000 A 
ATOM     17  C   UNL     1      -0.237  10.732  20.231  0.00  0.00    +0.000 A 
ATOM     18  C   UNL     1       0.590   9.634  19.966  0.00  0.00    +0.000 A 
ENDBRANCH   4  13
BRANCH   9  19
ATOM     19  C   UNL     1       3.512   3.364  17.828  0.00  0.00    +0.000 C 
BRANCH  19  20
ATOM     20  C   UNL     1       4.784   3.697  18.642  0.00  0.00    +0.000 C 
BRANCH  20  21
ATOM     21  C   UNL     1       5.751   4.610  17.926  0.00  0.00    +0.000 A 
ATOM     22  C   UNL     1       6.467   5.583  18.647  0.00  0.00    +0.000 A 
ATOM     23  C   UNL     1       7.380   6.406  17.985  0.00  0.00    +0.000 A 
ATOM     24  N   UNL     1       7.577   6.263  16.649  0.00  0.00    +0.000 NA
ATOM     25  C   UNL     1       6.902   5.332  15.924  0.00  0.00    +0.000 A 
ATOM     26  C   UNL     1       5.977   4.488  16.547  0.00  0.00    +0.000 A 
ENDBRANCH  20  21
ENDBRANCH  19  20
ENDBRANCH   9  19
TORSDOF 4
ENDMDL
MODEL 6
REMARK VINA RESULT:      -7.8      2.147      8.122
REMARK  Name = 
REMARK  4 active torsions:
REMARK  status: ('A' for Active; 'I' for Inactive)
REMARK    1  A    between atoms: C_4  and  C_5
REMARK    2  A    between atoms: C_15  and  C_16
REMARK    3  A    between atoms: C_16  and  C_17
REMARK    4  A    between atoms: C_17  and  C_18
REMARK                            x       y       z     vdW  Elec       q    Type
REMARK                         _______ _______ _______ _____ _____    ______ ____
ROOT
ATOM      1  N   UNL     1       2.082  10.701  17.518  0.00  0.00    +0.000 NA
ATOM      2  C   UNL     1       1.935   9.594  18.157  0.00  0.00    +0.000 C 
ATOM      3  N   UNL     1       2.415   8.372  17.584  0.00  0.00    +0.000 N 
ATOM      4  C   UNL     1       2.312   7.100  18.291  0.00  0.00    +0.000 C 
ATOM      5  C   UNL     1       2.227   7.323  19.813  0.00  0.00    +0.000 C 
ATOM      6  C   UNL     1       1.126   8.324  20.151  0.00  0.00    +0.000 C 
ATOM      7  C   UNL     1       1.195   8.747  21.616  0.00  0.00    +0.000 C 
ATOM      8  C   UNL     1       0.450  10.058  21.574  0.00  0.00    +0.000 C 
ATOM      9  C   UNL     1       1.001  10.718  20.294  0.00  0.00    +0.000 C 
ATOM     10  N   UNL     1       1.292   9.570  19.437  0.00  0.00    +0.000 N 
ATOM     11  H   UNL     1       2.545  10.731  16.597  0.00  0.00    +0.000 HD
ATOM     12  H   UNL     1       2.723   8.367  16.600  0.00  0.00    +0.000 HD
ENDROOT
BRANCH   4  13
ATOM     13  C   UNL     1       3.517   6.227  17.987  0.00  0.00    +0.000 A 
ATOM     14  C   UNL     1       3.525   4.861  18.334  0.00  0.00    +0.000 A 
ATOM     15  C   UNL     1       4.629   4.059  18.034  0.00  0.00    +0.000 A 
ATOM     16  C   UNL     1       5.740   4.608  17.392  0.00  0.00    +0.000 A 
ATOM     17  C   UNL     1       5.749   5.962  17.048  0.00  0.00    +0.000 A 
ATOM     18  C   UNL     1       4.645   6.771  17.342  0.00  0.00    +0.000 A 
ENDBRANCH   4  13
BRANCH   9  19
ATOM     19  C   UNL     1      -0.027  11.728  19.715  0.00  0.00    +0.000 C 
BRANCH  19  20
ATOM     20  C   UNL     1      -1.471  11.196  19.877  0.00  0.00    +0.000 C 
BRANCH  20  21
ATOM     21  C   UNL     1      -2.211  11.022  18.572  0.00  0.00    +0.000 A 
ATOM     22  C   UNL     1      -1.687  10.181  17.572  0.00  0.00    +0.000 A 
ATOM     23  C   UNL     1      -2.390  10.001  16.379  0.00  0.00    +0.000 A 
ATOM     24  N   UNL     1      -3.576  10.634  16.188  0.00  0.00    +0.000 NA
ATOM     25  C   UNL     1      -4.109  11.451  17.134  0.00  0.00    +0.000 A 
ATOM     26  C   UNL     1      -3.438  11.660  18.344  0.00  0.00    +0.000 A 
ENDBRANCH  20  21
ENDBRANCH  19  20
ENDBRANCH   9  19
TORSDOF 4
ENDMDL
MODEL 7
REMARK VINA RESULT:      -7.7      1.549      2.205
REMARK  Name = 
REMARK  4 active torsions:
REMARK  status: ('A' for Active; 'I' for Inactive)
REMARK    1  A    between atoms: C_4  and  C_5
REMARK    2  A    between atoms: C_15  and  C_16
REMARK    3  A    between atoms: C_16  and  C_17
REMARK    4  A    between atoms: C_17  and  C_18
REMARK                            x       y       z     vdW  Elec       q    Type
REMARK                         _______ _______ _______ _____ _____    ______ ____
ROOT
ATOM      1  N   UNL     1       2.627   7.606  17.481  0.00  0.00    +0.000 NA
ATOM      2  C   UNL     1       2.301   7.335  18.695  0.00  0.00    +0.000 C 
ATOM      3  N   UNL     1       2.034   8.399  19.617  0.00  0.00    +0.000 N 
ATOM      4  C   UNL     1       1.616   8.139  20.990  0.00  0.00    +0.000 C 
ATOM      5  C   UNL     1       0.951   6.755  21.108  0.00  0.00    +0.000 C 
ATOM      6  C   UNL     1       1.841   5.673  20.504  0.00  0.00    +0.000 C 
ATOM      7  C   UNL     1       1.095   4.347  20.383  0.00  0.00    +0.000 C 
ATOM      8  C   UNL     1       1.908   3.653  19.320  0.00  0.00    +0.000 C 
ATOM      9  C   UNL     1       2.158   4.781  18.298  0.00  0.00    +0.000 C 
ATOM     10  N   UNL     1       2.205   5.975  19.139  0.00  0.00    +0.000 N 
ATOM     11  H   UNL     1       2.697   8.581  17.149  0.00  0.00    +0.000 HD
ATOM     12  H   UNL     1       2.265   9.367  19.344  0.00  0.00    +0.000 HD
ENDROOT
BRANCH   4  13
ATOM     13  C   UNL     1       0.635   9.201  21.454  0.00  0.00    +0.000 A 
ATOM     14  C   UNL     1       0.190   9.237  22.790  0.00  0.00    +0.000 A 
ATOM     15  C   UNL     1      -0.699  10.228  23.216  0.00  0.00    +0.000 A 
ATOM     16  C   UNL     1      -1.159  11.190  22.315  0.00  0.00    +0.000 A 
ATOM     17  C   UNL     1      -0.731  11.163  20.985  0.00  0.00    +0.000 A 
ATOM     18  C   UNL     1       0.162  10.175  20.553  0.00  0.00    +0.000 A 
ENDBRANCH   4  13
BRANCH   9  19
ATOM     19  C   UNL     1       3.448   4.500  17.480  0.00  0.00    +0.000 C 
BRANCH  19  20
ATOM     20  C   UNL     1       4.642   4.210  18.420  0.00  0.00    +0.000 C 
BRANCH  20  21
ATOM     21  C   UNL     1       5.761   5.219  18.321  0.00  0.00    +0.000 A 
ATOM     22  C   UNL     1       6.803   5.211  19.267  0.00  0.00    +0.000 A 
ATOM     23  C   UNL     1       7.850   6.128  19.155  0.00  0.00    +0.000 A 
ATOM     24  N   UNL     1       7.862   7.022  18.132  0.00  0.00    +0.000 NA
ATOM     25  C   UNL     1       6.872   7.054  17.201  0.00  0.00    +0.000 A 
ATOM     26  C   UNL     1       5.803   6.154  17.277  0.00  0.00    +0.000 A 
ENDBRANCH  20  21
ENDBRANCH  19  20
ENDBRANCH   9  19
TORSDOF 4
ENDMDL
MODEL 8
REMARK VINA RESULT:      -7.7      1.602      2.489
REMARK  Name = 
REMARK  4 active torsions:
REMARK  status: ('A' for Active; 'I' for Inactive)
REMARK    1  A    between atoms: C_4  and  C_5
REMARK    2  A    between atoms: C_15  and  C_16
REMARK    3  A    between atoms: C_16  and  C_17
REMARK    4  A    between atoms: C_17  and  C_18
REMARK                            x       y       z     vdW  Elec       q    Type
REMARK                         _______ _______ _______ _____ _____    ______ ____
ROOT
ATOM      1  N   UNL     1       3.481   6.640  17.744  0.00  0.00    +0.000 NA
ATOM      2  C   UNL     1       2.855   6.534  18.862  0.00  0.00    +0.000 C 
ATOM      3  N   UNL     1       2.517   7.713  19.604  0.00  0.00    +0.000 N 
ATOM      4  C   UNL     1       1.768   7.645  20.854  0.00  0.00    +0.000 C 
ATOM      5  C   UNL     1       0.927   6.356  20.921  0.00  0.00    +0.000 C 
ATOM      6  C   UNL     1       1.792   5.132  20.638  0.00  0.00    +0.000 C 
ATOM      7  C   UNL     1       0.936   3.882  20.449  0.00  0.00    +0.000 C 
ATOM      8  C   UNL     1       1.879   3.000  19.671  0.00  0.00    +0.000 C 
ATOM      9  C   UNL     1       2.493   3.980  18.651  0.00  0.00    +0.000 C 
ATOM     10  N   UNL     1       2.493   5.247  19.379  0.00  0.00    +0.000 N 
ATOM     11  H   UNL     1       3.743   7.561  17.361  0.00  0.00    +0.000 HD
ATOM     12  H   UNL     1       2.921   8.618  19.318  0.00  0.00    +0.000 HD
ENDROOT
BRANCH   4  13
ATOM     13  C   UNL     1       0.844   8.844  20.982  0.00  0.00    +0.000 A 
ATOM     14  C   UNL     1       0.290   9.198  22.228  0.00  0.00    +0.000 A 
ATOM     15  C   UNL     1      -0.544  10.314  22.343  0.00  0.00    +0.000 A 
ATOM     16  C   UNL     1      -0.840  11.086  21.219  0.00  0.00    +0.000 A 
ATOM     17  C   UNL     1      -0.302  10.743  19.975  0.00  0.00    +0.000 A 
ATOM     18  C   UNL     1       0.536   9.629  19.854  0.00  0.00    +0.000 A 
ENDBRANCH   4  13
BRANCH   9  19
ATOM     19  C   UNL     1       3.892   3.484  18.191  0.00  0.00    +0.000 C 
BRANCH  19  20
ATOM     20  C   UNL     1       3.991   3.475  16.647  0.00  0.00    +0.000 C 
BRANCH  20  21
ATOM     21  C   UNL     1       5.256   4.100  16.110  0.00  0.00    +0.000 A 
ATOM     22  C   UNL     1       6.259   4.535  16.996  0.00  0.00    +0.000 A 
ATOM     23  C   UNL     1       7.439   5.087  16.493  0.00  0.00    +0.000 A 
ATOM     24  N   UNL     1       7.617   5.198  15.151  0.00  0.00    +0.000 NA
ATOM     25  C   UNL     1       6.669   4.785  14.269  0.00  0.00    +0.000 A 
ATOM     26  C   UNL     1       5.471   4.229  14.730  0.00  0.00    +0.000 A 
ENDBRANCH  20  21
ENDBRANCH  19  20
ENDBRANCH   9  19
TORSDOF 4
ENDMDL
MODEL 9
REMARK VINA RESULT:      -7.7      2.288      8.131
REMARK  Name = 
REMARK  4 active torsions:
REMARK  status: ('A' for Active; 'I' for Inactive)
REMARK    1  A    between atoms: C_4  and  C_5
REMARK    2  A    between atoms: C_15  and  C_16
REMARK    3  A    between atoms: C_16  and  C_17
REMARK    4  A    between atoms: C_17  and  C_18
REMARK                            x       y       z     vdW  Elec       q    Type
REMARK                         _______ _______ _______ _____ _____    ______ ____
ROOT
ATOM      1  N   UNL     1       1.909  10.150  17.382  0.00  0.00    +0.000 NA
ATOM      2  C   UNL     1       1.798   9.163  18.199  0.00  0.00    +0.000 C 
ATOM      3  N   UNL     1       2.258   7.862  17.811  0.00  0.00    +0.000 N 
ATOM      4  C   UNL     1       2.195   6.723  18.720  0.00  0.00    +0.000 C 
ATOM      5  C   UNL     1       2.177   7.191  20.187  0.00  0.00    +0.000 C 
ATOM      6  C   UNL     1       1.087   8.235  20.408  0.00  0.00    +0.000 C 
ATOM      7  C   UNL     1       1.220   8.891  21.780  0.00  0.00    +0.000 C 
ATOM      8  C   UNL     1       0.467  10.179  21.559  0.00  0.00    +0.000 C 
ATOM      9  C   UNL     1       0.956  10.620  20.165  0.00  0.00    +0.000 C 
ATOM     10  N   UNL     1       1.214   9.348  19.494  0.00  0.00    +0.000 N 
ATOM     11  H   UNL     1       2.331  10.030  16.449  0.00  0.00    +0.000 HD
ATOM     12  H   UNL     1       2.522   7.696  16.828  0.00  0.00    +0.000 HD
ENDROOT
BRANCH   4  13
ATOM     13  C   UNL     1       3.390   5.810  18.507  0.00  0.00    +0.000 A 
ATOM     14  C   UNL     1       3.421   4.901  17.430  0.00  0.00    +0.000 A 
ATOM     15  C   UNL     1       4.532   4.077  17.229  0.00  0.00    +0.000 A 
ATOM     16  C   UNL     1       5.620   4.144  18.099  0.00  0.00    +0.000 A 
ATOM     17  C   UNL     1       5.601   5.036  19.174  0.00  0.00    +0.000 A 
ATOM     18  C   UNL     1       4.493   5.866  19.380  0.00  0.00    +0.000 A 
ENDBRANCH   4  13
BRANCH   9  19
ATOM     19  C   UNL     1      -0.103  11.525  19.477  0.00  0.00    +0.000 C 
BRANCH  19  20
ATOM     20  C   UNL     1      -1.518  10.915  19.612  0.00  0.00    +0.000 C 
BRANCH  20  21
ATOM     21  C   UNL     1      -2.271  10.816  18.307  0.00  0.00    +0.000 A 
ATOM     22  C   UNL     1      -3.471  11.530  18.130  0.00  0.00    +0.000 A 
ATOM     23  C   UNL     1      -4.149  11.458  16.911  0.00  0.00    +0.000 A 
ATOM     24  N   UNL     1      -3.648  10.701  15.900  0.00  0.00    +0.000 NA
ATOM     25  C   UNL     1      -2.491  10.001  16.039  0.00  0.00    +0.000 A 
ATOM     26  C   UNL     1      -1.781  10.044  17.243  0.00  0.00    +0.000 A 
ENDBRANCH  20  21
ENDBRANCH  19  20
ENDBRANCH   9  19
TORSDOF 4
ENDMDL
