MODEL 1
REMARK VINA RESULT:      -9.0      0.000      0.000
REMARK  Name = 
REMARK  5 active torsions:
REMARK  status: ('A' for Active; 'I' for Inactive)
REMARK    1  A    between atoms: C_1  and  C_2
REMARK    2  A    between atoms: C_7  and  C_9
REMARK    3  A    between atoms: N_17  and  C_18
REMARK    4  A    between atoms: C_18  and  C_19
REMARK    5  A    between atoms: C_19  and  C_20
REMARK                            x       y       z     vdW  Elec       q    Type
REMARK                         _______ _______ _______ _____ _____    ______ ____
ROOT
ATOM      1  C   UNL     1       2.118   7.984  18.840  0.00  0.00    +0.000 A 
ATOM      2  C   UNL     1       2.153   7.048  19.913  0.00  0.00    +0.000 A 
ATOM      3  C   UNL     1       3.038   5.963  19.925  0.00  0.00    +0.000 A 
ATOM      4  C   UNL     1       3.896   5.854  18.851  0.00  0.00    +0.000 A 
ATOM      5  C   UNL     1       3.874   6.770  17.818  0.00  0.00    +0.000 A 
ATOM      6  C   UNL     1       3.003   7.847  17.765  0.00  0.00    +0.000 A 
ATOM      7  C   UNL     1       4.923   6.391  16.881  0.00  0.00    +0.000 C 
ATOM      8  O   UNL     1       5.143   7.032  15.876  0.00  0.00    +0.000 OA
ATOM      9  N   UNL     1       5.515   5.260  17.379  0.00  0.00    +0.000 N 
ATOM     10  C   UNL     1       4.929   4.869  18.553  0.00  0.00    +0.000 C 
ATOM     11  O   UNL     1       5.161   3.891  19.246  0.00  0.00    +0.000 OA
ENDROOT
BRANCH   1  18
ATOM     12  C   UNL     1      -0.756  13.426  22.765  0.00  0.00    +0.000 C 
ATOM     13  C   UNL     1      -0.660  12.496  21.608  0.00  0.00    +0.000 A 
ATOM     14  C   UNL     1      -1.433  12.565  20.466  0.00  0.00    +0.000 A 
ATOM     15  S   UNL     1      -0.994  11.320  19.388  0.00  0.00    +0.000 S 
ATOM     16  C   UNL     1       0.192  10.773  20.491  0.00  0.00    +0.000 A 
ATOM     17  N   UNL     1       0.970   9.659  20.228  0.00  0.00    +0.000 N 
ATOM     18  C   UNL     1       1.204   9.152  18.967  0.00  0.00    +0.000 C 
ATOM     19  O   UNL     1       0.767   9.592  17.906  0.00  0.00    +0.000 OA
ATOM     20  N   UNL     1       0.252  11.439  21.626  0.00  0.00    +0.000 NA
ATOM     21  H   UNL     1       1.495   9.337  21.028  0.00  0.00    +0.000 HD
ENDBRANCH   1  18
BRANCH   9  22
ATOM     22  C   UNL     1       6.503   4.440  16.686  0.00  0.00    +0.000 C 
BRANCH  22  23
ATOM     23  C   UNL     1       5.930   3.593  15.546  0.00  0.00    +0.000 C 
BRANCH  23  24
ATOM     24  C   UNL     1       6.423   4.008  14.185  0.00  0.00    +0.000 A 
ATOM     25  C   UNL     1       5.949   3.336  13.049  0.00  0.00    +0.000 A 
ATOM     26  C   UNL     1       6.455   3.636  11.788  0.00  0.00    +0.000 A 
ATOM     27  C   UNL     1       7.414   4.634  11.640  0.00  0.00    +0.000 A 
ATOM     28  C   UNL     1       7.860   5.341  12.758  0.00  0.00    +0.000 A 
ATOM     29  C   UNL     1       7.371   5.029  14.028  0.00  0.00    +0.000 A 
ENDBRANCH  23  24
ENDBRANCH  22  23
ENDBRANCH   9  22
TORSDOF 4
ENDMDL
MODEL 2
REMARK VINA RESULT:      -8.7      1.637      2.063
REMARK  Name = 
REMARK  5 active torsions:
REMARK  status: ('A' for Active; 'I' for Inactive)
REMARK    1  A    between atoms: C_1  and  C_2
REMARK    2  A    between atoms: C_7  and  C_9
REMARK    3  A    between atoms: N_17  and  C_18
REMARK    4  A    between atoms: C_18  and  C_19
REMARK    5  A    between atoms: C_19  and  C_20
REMARK                            x       y       z     vdW  Elec       q    Type
REMARK                         _______ _______ _______ _____ _____    ______ ____
ROOT
ATOM      1  C   UNL     1       2.110   7.963  18.839  0.00  0.00    +0.000 A 
ATOM      2  C   UNL     1       2.178   7.041  19.923  0.00  0.00    +0.000 A 
ATOM      3  C   UNL     1       3.086   5.975  19.936  0.00  0.00    +0.000 A 
ATOM      4  C   UNL     1       3.931   5.870  18.852  0.00  0.00    +0.000 A 
ATOM      5  C   UNL     1       3.878   6.772  17.809  0.00  0.00    +0.000 A 
ATOM      6  C   UNL     1       2.984   7.831  17.755  0.00  0.00    +0.000 A 
ATOM      7  C   UNL     1       4.921   6.404  16.862  0.00  0.00    +0.000 C 
ATOM      8  O   UNL     1       5.116   7.037  15.847  0.00  0.00    +0.000 OA
ATOM      9  N   UNL     1       5.543   5.292  17.366  0.00  0.00    +0.000 N 
ATOM     10  C   UNL     1       4.981   4.903  18.552  0.00  0.00    +0.000 C 
ATOM     11  O   UNL     1       5.242   3.939  19.253  0.00  0.00    +0.000 OA
ENDROOT
BRANCH   1  18
ATOM     12  C   UNL     1      -3.980  11.466  16.856  0.00  0.00    +0.000 C 
ATOM     13  C   UNL     1      -2.656  11.322  17.521  0.00  0.00    +0.000 A 
ATOM     14  C   UNL     1      -2.077  12.259  18.353  0.00  0.00    +0.000 A 
ATOM     15  S   UNL     1      -0.568  11.696  18.908  0.00  0.00    +0.000 S 
ATOM     16  C   UNL     1      -0.775  10.248  18.023  0.00  0.00    +0.000 A 
ATOM     17  N   UNL     1       0.197   9.263  18.004  0.00  0.00    +0.000 N 
ATOM     18  C   UNL     1       1.174   9.113  18.965  0.00  0.00    +0.000 C 
ATOM     19  O   UNL     1       1.335   9.813  19.962  0.00  0.00    +0.000 OA
ATOM     20  N   UNL     1      -1.881  10.179  17.312  0.00  0.00    +0.000 NA
ATOM     21  H   UNL     1       0.035   8.551  17.306  0.00  0.00    +0.000 HD
ENDBRANCH   1  18
BRANCH   9  22
ATOM     22  C   UNL     1       6.539   4.483  16.669  0.00  0.00    +0.000 C 
BRANCH  22  23
ATOM     23  C   UNL     1       5.968   3.606  15.552  0.00  0.00    +0.000 C 
BRANCH  23  24
ATOM     24  C   UNL     1       6.440   4.002  14.178  0.00  0.00    +0.000 A 
ATOM     25  C   UNL     1       5.960   3.306  13.060  0.00  0.00    +0.000 A 
ATOM     26  C   UNL     1       6.448   3.588  11.787  0.00  0.00    +0.000 A 
ATOM     27  C   UNL     1       7.395   4.593  11.611  0.00  0.00    +0.000 A 
ATOM     28  C   UNL     1       7.847   5.323  12.711  0.00  0.00    +0.000 A 
ATOM     29  C   UNL     1       7.376   5.029  13.992  0.00  0.00    +0.000 A 
ENDBRANCH  23  24
ENDBRANCH  22  23
ENDBRANCH   9  22
TORSDOF 4
ENDMDL
MODEL 3
REMARK VINA RESULT:      -8.5      1.633      1.707
REMARK  Name = 
REMARK  5 active torsions:
REMARK  status: ('A' for Active; 'I' for Inactive)
REMARK    1  A    between atoms: C_1  and  C_2
REMARK    2  A    between atoms: C_7  and  C_9
REMARK    3  A    between atoms: N_17  and  C_18
REMARK    4  A    between atoms: C_18  and  C_19
REMARK    5  A    between atoms: C_19  and  C_20
REMARK                            x       y       z     vdW  Elec       q    Type
REMARK                         _______ _______ _______ _____ _____    ______ ____
ROOT
ATOM      1  C   UNL     1       1.986   8.591  18.457  0.00  0.00    +0.000 A 
ATOM      2  C   UNL     1       1.853   7.739  19.590  0.00  0.00    +0.000 A 
ATOM      3  C   UNL     1       2.621   6.578  19.743  0.00  0.00    +0.000 A 
ATOM      4  C   UNL     1       3.535   6.307  18.746  0.00  0.00    +0.000 A 
ATOM      5  C   UNL     1       3.676   7.141  17.655  0.00  0.00    +0.000 A 
ATOM      6  C   UNL     1       2.924   8.290  17.463  0.00  0.00    +0.000 A 
ATOM      7  C   UNL     1       4.743   6.595  16.826  0.00  0.00    +0.000 C 
ATOM      8  O   UNL     1       5.095   7.135  15.800  0.00  0.00    +0.000 OA
ATOM      9  N   UNL     1       5.183   5.454  17.444  0.00  0.00    +0.000 N 
ATOM     10  C   UNL     1       4.482   5.209  18.593  0.00  0.00    +0.000 C 
ATOM     11  O   UNL     1       4.567   4.268  19.366  0.00  0.00    +0.000 OA
ENDROOT
BRANCH   1  18
ATOM     12  C   UNL     1       1.553  15.872  18.768  0.00  0.00    +0.000 C 
ATOM     13  C   UNL     1       1.022  14.482  18.788  0.00  0.00    +0.000 A 
ATOM     14  C   UNL     1      -0.316  14.142  18.810  0.00  0.00    +0.000 A 
ATOM     15  S   UNL     1      -0.488  12.447  18.816  0.00  0.00    +0.000 S 
ATOM     16  C   UNL     1       1.211  12.267  18.780  0.00  0.00    +0.000 A 
ATOM     17  N   UNL     1       1.811  11.019  18.807  0.00  0.00    +0.000 N 
ATOM     18  C   UNL     1       1.187   9.847  18.435  0.00  0.00    +0.000 C 
ATOM     19  O   UNL     1       0.031   9.725  18.037  0.00  0.00    +0.000 OA
ATOM     20  N   UNL     1       1.895  13.392  18.804  0.00  0.00    +0.000 NA
ATOM     21  H   UNL     1       2.807  11.055  18.967  0.00  0.00    +0.000 HD
ENDBRANCH   1  18
BRANCH   9  22
ATOM     22  C   UNL     1       6.128   4.493  16.883  0.00  0.00    +0.000 C 
BRANCH  22  23
ATOM     23  C   UNL     1       5.569   3.659  15.727  0.00  0.00    +0.000 C 
BRANCH  23  24
ATOM     24  C   UNL     1       6.173   4.007  14.392  0.00  0.00    +0.000 A 
ATOM     25  C   UNL     1       5.685   3.382  13.235  0.00  0.00    +0.000 A 
ATOM     26  C   UNL     1       6.284   3.613  12.000  0.00  0.00    +0.000 A 
ATOM     27  C   UNL     1       7.354   4.498  11.899  0.00  0.00    +0.000 A 
ATOM     28  C   UNL     1       7.819   5.159  13.037  0.00  0.00    +0.000 A 
ATOM     29  C   UNL     1       7.235   4.914  14.281  0.00  0.00    +0.000 A 
ENDBRANCH  23  24
ENDBRANCH  22  23
ENDBRANCH   9  22
TORSDOF 4
ENDMDL
MODEL 4
REMARK VINA RESULT:      -8.3      4.317      6.318
REMARK  Name = 
REMARK  5 active torsions:
REMARK  status: ('A' for Active; 'I' for Inactive)
REMARK    1  A    between atoms: C_1  and  C_2
REMARK    2  A    between atoms: C_7  and  C_9
REMARK    3  A    between atoms: N_17  and  C_18
REMARK    4  A    between atoms: C_18  and  C_19
REMARK    5  A    between atoms: C_19  and  C_20
REMARK                            x       y       z     vdW  Elec       q    Type
REMARK                         _______ _______ _______ _____ _____    ______ ____
ROOT
ATOM      1  C   UNL     1      -0.567  11.668  20.986  0.00  0.00    +0.000 A 
ATOM      2  C   UNL     1      -0.396  12.105  19.641  0.00  0.00    +0.000 A 
ATOM      3  C   UNL     1       0.333  11.363  18.705  0.00  0.00    +0.000 A 
ATOM      4  C   UNL     1       0.866  10.169  19.144  0.00  0.00    +0.000 A 
ATOM      5  C   UNL     1       0.687   9.736  20.442  0.00  0.00    +0.000 A 
ATOM      6  C   UNL     1      -0.016  10.450  21.400  0.00  0.00    +0.000 A 
ATOM      7  C   UNL     1       1.333   8.435  20.559  0.00  0.00    +0.000 C 
ATOM      8  O   UNL     1       1.323   7.808  21.596  0.00  0.00    +0.000 OA
ATOM      9  N   UNL     1       1.883   8.152  19.337  0.00  0.00    +0.000 N 
ATOM     10  C   UNL     1       1.659   9.165  18.444  0.00  0.00    +0.000 C 
ATOM     11  O   UNL     1       2.039   9.277  17.289  0.00  0.00    +0.000 OA
ENDROOT
BRANCH   1  18
ATOM     12  C   UNL     1      -1.396  16.699  26.211  0.00  0.00    +0.000 C 
ATOM     13  C   UNL     1      -1.834  15.600  25.308  0.00  0.00    +0.000 A 
ATOM     14  C   UNL     1      -3.132  15.152  25.172  0.00  0.00    +0.000 A 
ATOM     15  S   UNL     1      -3.198  13.890  24.029  0.00  0.00    +0.000 S 
ATOM     16  C   UNL     1      -1.512  14.019  23.778  0.00  0.00    +0.000 A 
ATOM     17  N   UNL     1      -0.840  13.176  22.910  0.00  0.00    +0.000 N 
ATOM     18  C   UNL     1      -1.436  12.486  21.876  0.00  0.00    +0.000 C 
ATOM     19  O   UNL     1      -2.627  12.504  21.572  0.00  0.00    +0.000 OA
ATOM     20  N   UNL     1      -0.902  14.918  24.523  0.00  0.00    +0.000 NA
ATOM     21  H   UNL     1       0.165  13.234  22.991  0.00  0.00    +0.000 HD
ENDBRANCH   1  18
BRANCH   9  22
ATOM     22  C   UNL     1       2.767   7.028  19.040  0.00  0.00    +0.000 C 
BRANCH  22  23
ATOM     23  C   UNL     1       2.168   5.990  18.088  0.00  0.00    +0.000 C 
BRANCH  23  24
ATOM     24  C   UNL     1       1.823   4.687  18.760  0.00  0.00    +0.000 A 
ATOM     25  C   UNL     1       1.551   4.676  20.135  0.00  0.00    +0.000 A 
ATOM     26  C   UNL     1       1.321   3.476  20.801  0.00  0.00    +0.000 A 
ATOM     27  C   UNL     1       1.324   2.275  20.096  0.00  0.00    +0.000 A 
ATOM     28  C   UNL     1       1.550   2.279  18.718  0.00  0.00    +0.000 A 
ATOM     29  C   UNL     1       1.803   3.478  18.051  0.00  0.00    +0.000 A 
ENDBRANCH  23  24
ENDBRANCH  22  23
ENDBRANCH   9  22
TORSDOF 4
ENDMDL
MODEL 5
REMARK VINA RESULT:      -8.2      1.441      1.679
REMARK  Name = 
REMARK  5 active torsions:
REMARK  status: ('A' for Active; 'I' for Inactive)
REMARK    1  A    between atoms: C_1  and  C_2
REMARK    2  A    between atoms: C_7  and  C_9
REMARK    3  A    between atoms: N_17  and  C_18
REMARK    4  A    between atoms: C_18  and  C_19
REMARK    5  A    between atoms: C_19  and  C_20
REMARK                            x       y       z     vdW  Elec       q    Type
REMARK                         _______ _______ _______ _____ _____    ______ ____
ROOT
ATOM      1  C   UNL     1       1.867   7.204  20.107  0.00  0.00    +0.000 A 
ATOM      2  C   UNL     1       1.760   5.976  20.821  0.00  0.00    +0.000 A 
ATOM      3  C   UNL     1       2.380   4.802  20.379  0.00  0.00    +0.000 A 
ATOM      4  C   UNL     1       3.124   4.895  19.221  0.00  0.00    +0.000 A 
ATOM      5  C   UNL     1       3.243   6.088  18.537  0.00  0.00    +0.000 A 
ATOM      6  C   UNL     1       2.631   7.266  18.936  0.00  0.00    +0.000 A 
ATOM      7  C   UNL     1       4.120   5.850  17.399  0.00  0.00    +0.000 C 
ATOM      8  O   UNL     1       4.415   6.734  16.624  0.00  0.00    +0.000 OA
ATOM      9  N   UNL     1       4.476   4.527  17.439  0.00  0.00    +0.000 N 
ATOM     10  C   UNL     1       3.892   3.887  18.498  0.00  0.00    +0.000 C 
ATOM     11  O   UNL     1       3.944   2.710  18.816  0.00  0.00    +0.000 OA
ENDROOT
BRANCH   1  18
ATOM     12  C   UNL     1      -2.859  12.759  19.806  0.00  0.00    +0.000 C 
ATOM     13  C   UNL     1      -1.703  11.994  20.344  0.00  0.00    +0.000 A 
ATOM     14  C   UNL     1      -1.007  12.308  21.495  0.00  0.00    +0.000 A 
ATOM     15  S   UNL     1       0.234  11.170  21.756  0.00  0.00    +0.000 S 
ATOM     16  C   UNL     1      -0.228  10.330  20.341  0.00  0.00    +0.000 A 
ATOM     17  N   UNL     1       0.458   9.210  19.904  0.00  0.00    +0.000 N 
ATOM     18  C   UNL     1       1.245   8.414  20.710  0.00  0.00    +0.000 C 
ATOM     19  O   UNL     1       1.460   8.571  21.910  0.00  0.00    +0.000 OA
ATOM     20  N   UNL     1      -1.224  10.869  19.669  0.00  0.00    +0.000 NA
ATOM     21  H   UNL     1       0.203   8.921  18.971  0.00  0.00    +0.000 HD
ENDBRANCH   1  18
BRANCH   9  22
ATOM     22  C   UNL     1       5.212   3.812  16.401  0.00  0.00    +0.000 C 
BRANCH  22  23
ATOM     23  C   UNL     1       6.510   4.496  15.963  0.00  0.00    +0.000 C 
BRANCH  23  24
ATOM     24  C   UNL     1       6.718   4.488  14.471  0.00  0.00    +0.000 A 
ATOM     25  C   UNL     1       5.993   3.583  13.683  0.00  0.00    +0.000 A 
ATOM     26  C   UNL     1       6.232   3.489  12.315  0.00  0.00    +0.000 A 
ATOM     27  C   UNL     1       7.172   4.321  11.711  0.00  0.00    +0.000 A 
ATOM     28  C   UNL     1       7.867   5.256  12.480  0.00  0.00    +0.000 A 
ATOM     29  C   UNL     1       7.646   5.339  13.856  0.00  0.00    +0.000 A 
ENDBRANCH  23  24
ENDBRANCH  22  23
ENDBRANCH   9  22
TORSDOF 4
ENDMDL
MODEL 6
REMARK VINA RESULT:      -8.2      1.313      1.744
REMARK  Name = 
REMARK  5 active torsions:
REMARK  status: ('A' for Active; 'I' for Inactive)
REMARK    1  A    between atoms: C_1  and  C_2
REMARK    2  A    between atoms: C_7  and  C_9
REMARK    3  A    between atoms: N_17  and  C_18
REMARK    4  A    between atoms: C_18  and  C_19
REMARK    5  A    between atoms: C_19  and  C_20
REMARK                            x       y       z     vdW  Elec       q    Type
REMARK                         _______ _______ _______ _____ _____    ______ ____
ROOT
ATOM      1  C   UNL     1       1.771   7.332  20.105  0.00  0.00    +0.000 A 
ATOM      2  C   UNL     1       1.713   6.111  20.836  0.00  0.00    +0.000 A 
ATOM      3  C   UNL     1       2.489   4.999  20.488  0.00  0.00    +0.000 A 
ATOM      4  C   UNL     1       3.335   5.149  19.409  0.00  0.00    +0.000 A 
ATOM      5  C   UNL     1       3.404   6.337  18.710  0.00  0.00    +0.000 A 
ATOM      6  C   UNL     1       2.641   7.454  19.017  0.00  0.00    +0.000 A 
ATOM      7  C   UNL     1       4.413   6.173  17.673  0.00  0.00    +0.000 C 
ATOM      8  O   UNL     1       4.697   7.070  16.909  0.00  0.00    +0.000 OA
ATOM      9  N   UNL     1       4.892   4.894  17.782  0.00  0.00    +0.000 N 
ATOM     10  C   UNL     1       4.269   4.214  18.793  0.00  0.00    +0.000 C 
ATOM     11  O   UNL     1       4.404   3.052  19.143  0.00  0.00    +0.000 OA
ENDROOT
BRANCH   1  18
ATOM     12  C   UNL     1      -0.652  14.187  19.448  0.00  0.00    +0.000 C 
ATOM     13  C   UNL     1      -0.393  12.905  20.157  0.00  0.00    +0.000 A 
ATOM     14  C   UNL     1      -0.844  12.591  21.424  0.00  0.00    +0.000 A 
ATOM     15  S   UNL     1      -0.334  11.024  21.854  0.00  0.00    +0.000 S 
ATOM     16  C   UNL     1       0.442  10.853  20.341  0.00  0.00    +0.000 A 
ATOM     17  N   UNL     1       1.154   9.712  20.014  0.00  0.00    +0.000 N 
ATOM     18  C   UNL     1       0.974   8.483  20.612  0.00  0.00    +0.000 C 
ATOM     19  O   UNL     1       0.177   8.213  21.509  0.00  0.00    +0.000 OA
ATOM     20  N   UNL     1       0.376  11.907  19.555  0.00  0.00    +0.000 NA
ATOM     21  H   UNL     1       1.711   9.811  19.178  0.00  0.00    +0.000 HD
ENDBRANCH   1  18
BRANCH   9  22
ATOM     22  C   UNL     1       5.798   4.240  16.841  0.00  0.00    +0.000 C 
BRANCH  22  23
ATOM     23  C   UNL     1       5.139   3.808  15.529  0.00  0.00    +0.000 C 
BRANCH  23  24
ATOM     24  C   UNL     1       5.997   4.058  14.316  0.00  0.00    +0.000 A 
ATOM     25  C   UNL     1       7.055   4.974  14.402  0.00  0.00    +0.000 A 
ATOM     26  C   UNL     1       7.806   5.294  13.275  0.00  0.00    +0.000 A 
ATOM     27  C   UNL     1       7.533   4.678  12.056  0.00  0.00    +0.000 A 
ATOM     28  C   UNL     1       6.510   3.731  11.970  0.00  0.00    +0.000 A 
ATOM     29  C   UNL     1       5.741   3.423  13.093  0.00  0.00    +0.000 A 
ENDBRANCH  23  24
ENDBRANCH  22  23
ENDBRANCH   9  22
TORSDOF 4
ENDMDL
MODEL 7
REMARK VINA RESULT:      -8.1      1.438      2.061
REMARK  Name = 
REMARK  5 active torsions:
REMARK  status: ('A' for Active; 'I' for Inactive)
REMARK    1  A    between atoms: C_1  and  C_2
REMARK    2  A    between atoms: C_7  and  C_9
REMARK    3  A    between atoms: N_17  and  C_18
REMARK    4  A    between atoms: C_18  and  C_19
REMARK    5  A    between atoms: C_19  and  C_20
REMARK                            x       y       z     vdW  Elec       q    Type
REMARK                         _______ _______ _______ _____ _____    ______ ____
ROOT
ATOM      1  C   UNL     1       1.942   7.832  19.353  0.00  0.00    +0.000 A 
ATOM      2  C   UNL     1       2.005   6.829  20.363  0.00  0.00    +0.000 A 
ATOM      3  C   UNL     1       2.883   5.742  20.277  0.00  0.00    +0.000 A 
ATOM      4  C   UNL     1       3.705   5.698  19.171  0.00  0.00    +0.000 A 
ATOM      5  C   UNL     1       3.657   6.678  18.200  0.00  0.00    +0.000 A 
ATOM      6  C   UNL     1       2.791   7.760  18.244  0.00  0.00    +0.000 A 
ATOM      7  C   UNL     1       4.672   6.355  17.207  0.00  0.00    +0.000 C 
ATOM      8  O   UNL     1       4.865   7.058  16.238  0.00  0.00    +0.000 OA
ATOM      9  N   UNL     1       5.272   5.193  17.613  0.00  0.00    +0.000 N 
ATOM     10  C   UNL     1       4.722   4.729  18.777  0.00  0.00    +0.000 C 
ATOM     11  O   UNL     1       4.970   3.708  19.398  0.00  0.00    +0.000 OA
ENDROOT
BRANCH   1  18
ATOM     12  C   UNL     1      -4.033  11.685  17.697  0.00  0.00    +0.000 C 
ATOM     13  C   UNL     1      -2.717  11.441  18.347  0.00  0.00    +0.000 A 
ATOM     14  C   UNL     1      -2.114  12.279  19.263  0.00  0.00    +0.000 A 
ATOM     15  S   UNL     1      -0.625  11.621  19.765  0.00  0.00    +0.000 S 
ATOM     16  C   UNL     1      -0.871  10.269  18.750  0.00  0.00    +0.000 A 
ATOM     17  N   UNL     1       0.071   9.261  18.640  0.00  0.00    +0.000 N 
ATOM     18  C   UNL     1       1.039   8.993  19.584  0.00  0.00    +0.000 C 
ATOM     19  O   UNL     1       1.218   9.592  20.642  0.00  0.00    +0.000 OA
ATOM     20  N   UNL     1      -1.976  10.299  18.033  0.00  0.00    +0.000 NA
ATOM     21  H   UNL     1      -0.109   8.622  17.879  0.00  0.00    +0.000 HD
ENDBRANCH   1  18
BRANCH   9  22
ATOM     22  C   UNL     1       6.233   4.413  16.837  0.00  0.00    +0.000 C 
BRANCH  22  23
ATOM     23  C   UNL     1       5.624   3.672  15.644  0.00  0.00    +0.000 C 
BRANCH  23  24
ATOM     24  C   UNL     1       6.300   3.985  14.335  0.00  0.00    +0.000 A 
ATOM     25  C   UNL     1       7.326   4.940  14.304  0.00  0.00    +0.000 A 
ATOM     26  C   UNL     1       7.904   5.318  13.096  0.00  0.00    +0.000 A 
ATOM     27  C   UNL     1       7.491   4.721  11.908  0.00  0.00    +0.000 A 
ATOM     28  C   UNL     1       6.501   3.737  11.932  0.00  0.00    +0.000 A 
ATOM     29  C   UNL     1       5.903   3.371  13.139  0.00  0.00    +0.000 A 
ENDBRANCH  23  24
ENDBRANCH  22  23
ENDBRANCH   9  22
TORSDOF 4
ENDMDL
MODEL 8
REMARK VINA RESULT:      -8.1      3.433     11.160
REMARK  Name = 
REMARK  5 active torsions:
REMARK  status: ('A' for Active; 'I' for Inactive)
REMARK    1  A    between atoms: C_1  and  C_2
REMARK    2  A    between atoms: C_7  and  C_9
REMARK    3  A    between atoms: N_17  and  C_18
REMARK    4  A    between atoms: C_18  and  C_19
REMARK    5  A    between atoms: C_19  and  C_20
REMARK                            x       y       z     vdW  Elec       q    Type
REMARK                         _______ _______ _______ _____ _____    ______ ____
ROOT
ATOM      1  C   UNL     1       1.588   8.410  19.801  0.00  0.00    +0.000 A 
ATOM      2  C   UNL     1       1.486   8.112  21.190  0.00  0.00    +0.000 A 
ATOM      3  C   UNL     1       0.759   8.919  22.072  0.00  0.00    +0.000 A 
ATOM      4  C   UNL     1       0.122  10.014  21.526  0.00  0.00    +0.000 A 
ATOM      5  C   UNL     1       0.205  10.294  20.177  0.00  0.00    +0.000 A 
ATOM      6  C   UNL     1       0.928   9.527  19.276  0.00  0.00    +0.000 A 
ATOM      7  C   UNL     1      -0.607  11.477  19.929  0.00  0.00    +0.000 C 
ATOM      8  O   UNL     1      -0.730  11.947  18.818  0.00  0.00    +0.000 OA
ATOM      9  N   UNL     1      -1.128  11.864  21.135  0.00  0.00    +0.000 N 
ATOM     10  C   UNL     1      -0.710  11.040  22.144  0.00  0.00    +0.000 C 
ATOM     11  O   UNL     1      -0.933  11.108  23.343  0.00  0.00    +0.000 OA
ENDROOT
BRANCH   1  18
ATOM     12  C   UNL     1       3.556   1.575  18.157  0.00  0.00    +0.000 C 
ATOM     13  C   UNL     1       3.614   3.059  18.068  0.00  0.00    +0.000 A 
ATOM     14  C   UNL     1       4.375   3.772  17.163  0.00  0.00    +0.000 A 
ATOM     15  S   UNL     1       4.143   5.444  17.394  0.00  0.00    +0.000 S 
ATOM     16  C   UNL     1       3.047   5.124  18.666  0.00  0.00    +0.000 A 
ATOM     17  N   UNL     1       2.452   6.145  19.387  0.00  0.00    +0.000 N 
ATOM     18  C   UNL     1       2.310   7.439  18.934  0.00  0.00    +0.000 C 
ATOM     19  O   UNL     1       2.681   7.882  17.849  0.00  0.00    +0.000 OA
ATOM     20  N   UNL     1       2.876   3.850  18.951  0.00  0.00    +0.000 NA
ATOM     21  H   UNL     1       1.977   5.826  20.219  0.00  0.00    +0.000 HD
ENDBRANCH   1  18
BRANCH   9  22
ATOM     22  C   UNL     1      -1.868  13.098  21.388  0.00  0.00    +0.000 C 
BRANCH  22  23
ATOM     23  C   UNL     1      -3.322  13.069  20.910  0.00  0.00    +0.000 C 
BRANCH  23  24
ATOM     24  C   UNL     1      -4.316  12.883  22.027  0.00  0.00    +0.000 A 
ATOM     25  C   UNL     1      -5.683  12.815  21.723  0.00  0.00    +0.000 A 
ATOM     26  C   UNL     1      -6.630  12.737  22.741  0.00  0.00    +0.000 A 
ATOM     27  C   UNL     1      -6.222  12.690  24.071  0.00  0.00    +0.000 A 
ATOM     28  C   UNL     1      -4.861  12.712  24.382  0.00  0.00    +0.000 A 
ATOM     29  C   UNL     1      -3.909  12.812  23.366  0.00  0.00    +0.000 A 
ENDBRANCH  23  24
ENDBRANCH  22  23
ENDBRANCH   9  22
TORSDOF 4
ENDMDL
MODEL 9
REMARK VINA RESULT:      -8.1      1.723      2.336
REMARK  Name = 
REMARK  5 active torsions:
REMARK  status: ('A' for Active; 'I' for Inactive)
REMARK    1  A    between atoms: C_1  and  C_2
REMARK    2  A    between atoms: C_7  and  C_9
REMARK    3  A    between atoms: N_17  and  C_18
REMARK    4  A    between atoms: C_18  and  C_19
REMARK    5  A    between atoms: C_19  and  C_20
REMARK                            x       y       z     vdW  Elec       q    Type
REMARK                         _______ _______ _______ _____ _____    ______ ____
ROOT
ATOM      1  C   UNL     1       2.220   7.809  18.835  0.00  0.00    +0.000 A 
ATOM      2  C   UNL     1       2.254   6.833  19.872  0.00  0.00    +0.000 A 
ATOM      3  C   UNL     1       3.182   5.785  19.877  0.00  0.00    +0.000 A 
ATOM      4  C   UNL     1       4.084   5.754  18.834  0.00  0.00    +0.000 A 
ATOM      5  C   UNL     1       4.064   6.709  17.838  0.00  0.00    +0.000 A 
ATOM      6  C   UNL     1       3.150   7.752  17.792  0.00  0.00    +0.000 A 
ATOM      7  C   UNL     1       5.162   6.411  16.929  0.00  0.00    +0.000 C 
ATOM      8  O   UNL     1       5.394   7.100  15.959  0.00  0.00    +0.000 OA
ATOM      9  N   UNL     1       5.782   5.287  17.406  0.00  0.00    +0.000 N 
ATOM     10  C   UNL     1       5.169   4.825  18.539  0.00  0.00    +0.000 C 
ATOM     11  O   UNL     1       5.415   3.830  19.203  0.00  0.00    +0.000 OA
ENDROOT
BRANCH   1  18
ATOM     12  C   UNL     1      -3.817  11.313  16.698  0.00  0.00    +0.000 C 
ATOM     13  C   UNL     1      -2.532  11.154  17.431  0.00  0.00    +0.000 A 
ATOM     14  C   UNL     1      -2.023  12.051  18.349  0.00  0.00    +0.000 A 
ATOM     15  S   UNL     1      -0.538  11.483  18.960  0.00  0.00    +0.000 S 
ATOM     16  C   UNL     1      -0.661  10.086  17.982  0.00  0.00    +0.000 A 
ATOM     17  N   UNL     1       0.332   9.122  17.963  0.00  0.00    +0.000 N 
ATOM     18  C   UNL     1       1.253   8.933  18.971  0.00  0.00    +0.000 C 
ATOM     19  O   UNL     1       1.341   9.575  20.015  0.00  0.00    +0.000 OA
ATOM     20  N   UNL     1      -1.722  10.039  17.203  0.00  0.00    +0.000 NA
ATOM     21  H   UNL     1       0.226   8.450  17.217  0.00  0.00    +0.000 HD
ENDBRANCH   1  18
BRANCH   9  22
ATOM     22  C   UNL     1       6.829   4.535  16.721  0.00  0.00    +0.000 C 
BRANCH  22  23
ATOM     23  C   UNL     1       7.358   5.207  15.451  0.00  0.00    +0.000 C 
BRANCH  23  24
ATOM     24  C   UNL     1       6.861   4.565  14.182  0.00  0.00    +0.000 A 
ATOM     25  C   UNL     1       7.617   4.690  13.009  0.00  0.00    +0.000 A 
ATOM     26  C   UNL     1       7.139   4.188  11.802  0.00  0.00    +0.000 A 
ATOM     27  C   UNL     1       5.916   3.523  11.759  0.00  0.00    +0.000 A 
ATOM     28  C   UNL     1       5.175   3.354  12.930  0.00  0.00    +0.000 A 
ATOM     29  C   UNL     1       5.642   3.875  14.138  0.00  0.00    +0.000 A 
ENDBRANCH  23  24
ENDBRANCH  22  23
ENDBRANCH   9  22
TORSDOF 4
ENDMDL
