MODEL 1
REMARK VINA RESULT:      -8.0      0.000      0.000
REMARK  Name = 
REMARK  8 active torsions:
REMARK  status: ('A' for Active; 'I' for Inactive)
REMARK    1  A    between atoms: C_1  and  O_2
REMARK    2  A    between atoms: O_2  and  C_3
REMARK    3  A    between atoms: C_6  and  O_7
REMARK    4  A    between atoms: O_7  and  C_8
REMARK    5  A    between atoms: C_9  and  C_10
REMARK    6  A    between atoms: C_10  and  C_11
REMARK    7  A    between atoms: C_10  and  N_12
REMARK    8  A    between atoms: N_12  and  C_13
REMARK                            x       y       z     vdW  Elec       q    Type
REMARK                         _______ _______ _______ _____ _____    ______ ____
ROOT
ATOM      1  N   UNL     1       4.000   3.230  17.457  0.00  0.00    +0.000 N 
ATOM      2  H   UNL     1       4.152   2.379  16.923  0.00  0.00    +0.000 HD
ENDROOT
BRANCH   1   3
ATOM      3  C   UNL     1       5.041   4.142  17.269  0.00  0.00    +0.000 A 
ATOM      4  C   UNL     1       5.096   5.042  16.181  0.00  0.00    +0.000 A 
ATOM      5  C   UNL     1       6.011   6.103  16.131  0.00  0.00    +0.000 A 
ATOM      6  C   UNL     1       6.860   6.272  17.204  0.00  0.00    +0.000 A 
ATOM      7  C   UNL     1       6.844   5.359  18.252  0.00  0.00    +0.000 A 
ATOM      8  C   UNL     1       5.959   4.302  18.315  0.00  0.00    +0.000 A 
ATOM      9  C   UNL     1       7.722   5.866  19.308  0.00  0.00    +0.000 C 
ATOM     10  O   UNL     1       7.899   5.358  20.395  0.00  0.00    +0.000 OA
ATOM     11  N   UNL     1       8.218   7.076  18.861  0.00  0.00    +0.000 N 
ATOM     12  C   UNL     1       7.777   7.400  17.527  0.00  0.00    +0.000 C 
ATOM     13  H   UNL     1       8.474   7.759  19.561  0.00  0.00    +0.000 HD
ENDBRANCH   1   3
BRANCH   1  14
ATOM     14  C   UNL     1       2.591   3.650  17.473  0.00  0.00    +0.000 C 
ATOM     15  C   UNL     1       1.759   2.422  17.864  0.00  0.00    +0.000 C 
BRANCH  14  20
ATOM     16  C   UNL     1       2.243   7.148  18.997  0.00  0.00    +0.000 A 
ATOM     17  C   UNL     1       2.141   6.846  20.353  0.00  0.00    +0.000 A 
ATOM     18  C   UNL     1       2.088   5.520  20.783  0.00  0.00    +0.000 A 
ATOM     19  C   UNL     1       2.144   4.475  19.858  0.00  0.00    +0.000 A 
ATOM     20  C   UNL     1       2.315   4.760  18.485  0.00  0.00    +0.000 A 
ATOM     21  C   UNL     1       2.321   6.110  18.071  0.00  0.00    +0.000 A 
BRANCH  16  23
ATOM     22  C   UNL     1       1.320   8.999  17.823  0.00  0.00    +0.000 C 
ATOM     23  O   UNL     1       2.291   8.486  18.721  0.00  0.00    +0.000 OA
ENDBRANCH  16  23
BRANCH  19  24
ATOM     24  O   UNL     1       2.053   3.152  20.207  0.00  0.00    +0.000 OA
ATOM     25  C   UNL     1       1.666   2.864  21.549  0.00  0.00    +0.000 C 
ENDBRANCH  19  24
ENDBRANCH  14  20
ENDBRANCH   1  14
TORSDOF 5
ENDMDL
MODEL 2
REMARK VINA RESULT:      -7.9      2.858      5.853
REMARK  Name = 
REMARK  8 active torsions:
REMARK  status: ('A' for Active; 'I' for Inactive)
REMARK    1  A    between atoms: C_1  and  O_2
REMARK    2  A    between atoms: O_2  and  C_3
REMARK    3  A    between atoms: C_6  and  O_7
REMARK    4  A    between atoms: O_7  and  C_8
REMARK    5  A    between atoms: C_9  and  C_10
REMARK    6  A    between atoms: C_10  and  C_11
REMARK    7  A    between atoms: C_10  and  N_12
REMARK    8  A    between atoms: N_12  and  C_13
REMARK                            x       y       z     vdW  Elec       q    Type
REMARK                         _______ _______ _______ _____ _____    ______ ____
ROOT
ATOM      1  N   UNL     1       2.761   5.127  18.687  0.00  0.00    +0.000 N 
ATOM      2  H   UNL     1       1.978   4.601  19.067  0.00  0.00    +0.000 HD
ENDROOT
BRANCH   1   3
ATOM      3  C   UNL     1       2.539   6.502  18.773  0.00  0.00    +0.000 A 
ATOM      4  C   UNL     1       2.504   7.354  17.646  0.00  0.00    +0.000 A 
ATOM      5  C   UNL     1       2.048   8.678  17.721  0.00  0.00    +0.000 A 
ATOM      6  C   UNL     1       1.599   9.137  18.940  0.00  0.00    +0.000 A 
ATOM      7  C   UNL     1       1.680   8.320  20.062  0.00  0.00    +0.000 A 
ATOM      8  C   UNL     1       2.134   7.018  20.012  0.00  0.00    +0.000 A 
ATOM      9  C   UNL     1       0.996   8.996  21.165  0.00  0.00    +0.000 C 
ATOM     10  O   UNL     1       0.817   8.546  22.277  0.00  0.00    +0.000 OA
ATOM     11  N   UNL     1       0.514  10.188  20.658  0.00  0.00    +0.000 N 
ATOM     12  C   UNL     1       0.881  10.397  19.281  0.00  0.00    +0.000 C 
ATOM     13  H   UNL     1      -0.310  10.578  21.097  0.00  0.00    +0.000 HD
ENDBRANCH   1   3
BRANCH   1  14
ATOM     14  C   UNL     1       4.064   4.528  19.015  0.00  0.00    +0.000 C 
ATOM     15  C   UNL     1       3.814   3.045  19.320  0.00  0.00    +0.000 C 
BRANCH  14  20
ATOM     16  C   UNL     1       5.514   4.433  15.469  0.00  0.00    +0.000 A 
ATOM     17  C   UNL     1       6.881   4.453  15.733  0.00  0.00    +0.000 A 
ATOM     18  C   UNL     1       7.350   4.591  17.039  0.00  0.00    +0.000 A 
ATOM     19  C   UNL     1       6.453   4.704  18.104  0.00  0.00    +0.000 A 
ATOM     20  C   UNL     1       5.063   4.619  17.864  0.00  0.00    +0.000 A 
ATOM     21  C   UNL     1       4.613   4.524  16.529  0.00  0.00    +0.000 A 
BRANCH  16  23
ATOM     22  C   UNL     1       6.178   3.699  13.306  0.00  0.00    +0.000 C 
ATOM     23  O   UNL     1       5.198   4.287  14.147  0.00  0.00    +0.000 OA
ENDBRANCH  16  23
BRANCH  19  24
ATOM     24  O   UNL     1       6.845   4.886  19.406  0.00  0.00    +0.000 OA
ATOM     25  C   UNL     1       7.887   5.831  19.640  0.00  0.00    +0.000 C 
ENDBRANCH  19  24
ENDBRANCH  14  20
ENDBRANCH   1  14
TORSDOF 5
ENDMDL
MODEL 3
REMARK VINA RESULT:      -7.8      1.012      2.925
REMARK  Name = 
REMARK  8 active torsions:
REMARK  status: ('A' for Active; 'I' for Inactive)
REMARK    1  A    between atoms: C_1  and  O_2
REMARK    2  A    between atoms: O_2  and  C_3
REMARK    3  A    between atoms: C_6  and  O_7
REMARK    4  A    between atoms: O_7  and  C_8
REMARK    5  A    between atoms: C_9  and  C_10
REMARK    6  A    between atoms: C_10  and  C_11
REMARK    7  A    between atoms: C_10  and  N_12
REMARK    8  A    between atoms: N_12  and  C_13
REMARK                            x       y       z     vdW  Elec       q    Type
REMARK                         _______ _______ _______ _____ _____    ______ ____
ROOT
ATOM      1  N   UNL     1       4.523   3.342  17.020  0.00  0.00    +0.000 N 
ATOM      2  H   UNL     1       4.677   2.658  16.283  0.00  0.00    +0.000 HD
ENDROOT
BRANCH   1   3
ATOM      3  C   UNL     1       5.496   4.343  16.996  0.00  0.00    +0.000 A 
ATOM      4  C   UNL     1       5.517   5.382  16.039  0.00  0.00    +0.000 A 
ATOM      5  C   UNL     1       6.350   6.502  16.168  0.00  0.00    +0.000 A 
ATOM      6  C   UNL     1       7.149   6.586  17.287  0.00  0.00    +0.000 A 
ATOM      7  C   UNL     1       7.170   5.542  18.205  0.00  0.00    +0.000 A 
ATOM      8  C   UNL     1       6.366   4.426  18.092  0.00  0.00    +0.000 A 
ATOM      9  C   UNL     1       7.972   5.965  19.353  0.00  0.00    +0.000 C 
ATOM     10  O   UNL     1       8.153   5.329  20.371  0.00  0.00    +0.000 OA
ATOM     11  N   UNL     1       8.389   7.255  19.090  0.00  0.00    +0.000 N 
ATOM     12  C   UNL     1       7.967   7.723  17.794  0.00  0.00    +0.000 C 
ATOM     13  H   UNL     1       8.570   7.855  19.884  0.00  0.00    +0.000 HD
ENDBRANCH   1   3
BRANCH   1  14
ATOM     14  C   UNL     1       3.099   3.646  17.229  0.00  0.00    +0.000 C 
ATOM     15  C   UNL     1       2.347   2.309  17.213  0.00  0.00    +0.000 C 
BRANCH  14  20
ATOM     16  C   UNL     1       2.305   4.138  20.945  0.00  0.00    +0.000 A 
ATOM     17  C   UNL     1       2.017   5.500  20.984  0.00  0.00    +0.000 A 
ATOM     18  C   UNL     1       2.165   6.290  19.844  0.00  0.00    +0.000 A 
ATOM     19  C   UNL     1       2.599   5.723  18.643  0.00  0.00    +0.000 A 
ATOM     20  C   UNL     1       2.831   4.332  18.566  0.00  0.00    +0.000 A 
ATOM     21  C   UNL     1       2.717   3.562  19.744  0.00  0.00    +0.000 A 
BRANCH  16  23
ATOM     22  C   UNL     1       1.901   2.086  22.077  0.00  0.00    +0.000 C 
ATOM     23  O   UNL     1       2.110   3.487  22.131  0.00  0.00    +0.000 OA
ENDBRANCH  16  23
BRANCH  19  24
ATOM     24  O   UNL     1       2.807   6.449  17.498  0.00  0.00    +0.000 OA
ATOM     25  C   UNL     1       3.232   7.800  17.659  0.00  0.00    +0.000 C 
ENDBRANCH  19  24
ENDBRANCH  14  20
ENDBRANCH   1  14
TORSDOF 5
ENDMDL
MODEL 4
REMARK VINA RESULT:      -7.6      2.790      6.055
REMARK  Name = 
REMARK  8 active torsions:
REMARK  status: ('A' for Active; 'I' for Inactive)
REMARK    1  A    between atoms: C_1  and  O_2
REMARK    2  A    between atoms: O_2  and  C_3
REMARK    3  A    between atoms: C_6  and  O_7
REMARK    4  A    between atoms: O_7  and  C_8
REMARK    5  A    between atoms: C_9  and  C_10
REMARK    6  A    between atoms: C_10  and  C_11
REMARK    7  A    between atoms: C_10  and  N_12
REMARK    8  A    between atoms: N_12  and  C_13
REMARK                            x       y       z     vdW  Elec       q    Type
REMARK                         _______ _______ _______ _____ _____    ______ ____
ROOT
ATOM      1  N   UNL     1       3.734   5.666  19.688  0.00  0.00    +0.000 N 
ATOM      2  H   UNL     1       4.628   6.150  19.691  0.00  0.00    +0.000 HD
ENDROOT
BRANCH   1   3
ATOM      3  C   UNL     1       2.668   6.564  19.763  0.00  0.00    +0.000 A 
ATOM      4  C   UNL     1       1.782   6.625  20.862  0.00  0.00    +0.000 A 
ATOM      5  C   UNL     1       0.871   7.677  21.032  0.00  0.00    +0.000 A 
ATOM      6  C   UNL     1       0.875   8.691  20.098  0.00  0.00    +0.000 A 
ATOM      7  C   UNL     1       1.709   8.609  18.989  0.00  0.00    +0.000 A 
ATOM      8  C   UNL     1       2.605   7.577  18.797  0.00  0.00    +0.000 A 
ATOM      9  C   UNL     1       1.622   9.875  18.262  0.00  0.00    +0.000 C 
ATOM     10  O   UNL     1       2.263  10.180  17.278  0.00  0.00    +0.000 OA
ATOM     11  N   UNL     1       0.751  10.679  18.972  0.00  0.00    +0.000 N 
ATOM     12  C   UNL     1       0.186  10.011  20.118  0.00  0.00    +0.000 C 
ATOM     13  H   UNL     1       0.878  11.680  18.898  0.00  0.00    +0.000 HD
ENDBRANCH   1   3
BRANCH   1  14
ATOM     14  C   UNL     1       3.715   4.509  18.779  0.00  0.00    +0.000 C 
ATOM     15  C   UNL     1       2.349   4.507  18.083  0.00  0.00    +0.000 C 
BRANCH  14  20
ATOM     16  C   UNL     1       5.435   4.347  15.359  0.00  0.00    +0.000 A 
ATOM     17  C   UNL     1       6.777   4.375  15.727  0.00  0.00    +0.000 A 
ATOM     18  C   UNL     1       7.144   4.541  17.063  0.00  0.00    +0.000 A 
ATOM     19  C   UNL     1       6.167   4.673  18.052  0.00  0.00    +0.000 A 
ATOM     20  C   UNL     1       4.801   4.580  17.708  0.00  0.00    +0.000 A 
ATOM     21  C   UNL     1       4.455   4.457  16.344  0.00  0.00    +0.000 A 
BRANCH  16  23
ATOM     22  C   UNL     1       6.352   3.875  13.216  0.00  0.00    +0.000 C 
ATOM     23  O   UNL     1       5.222   4.173  14.020  0.00  0.00    +0.000 OA
ENDBRANCH  16  23
BRANCH  19  24
ATOM     24  O   UNL     1       6.457   4.882  19.376  0.00  0.00    +0.000 OA
ATOM     25  C   UNL     1       7.627   5.644  19.668  0.00  0.00    +0.000 C 
ENDBRANCH  19  24
ENDBRANCH  14  20
ENDBRANCH   1  14
TORSDOF 5
ENDMDL
MODEL 5
REMARK VINA RESULT:      -7.5      2.510      6.124
REMARK  Name = 
REMARK  8 active torsions:
REMARK  status: ('A' for Active; 'I' for Inactive)
REMARK    1  A    between atoms: C_1  and  O_2
REMARK    2  A    between atoms: O_2  and  C_3
REMARK    3  A    between atoms: C_6  and  O_7
REMARK    4  A    between atoms: O_7  and  C_8
REMARK    5  A    between atoms: C_9  and  C_10
REMARK    6  A    between atoms: C_10  and  C_11
REMARK    7  A    between atoms: C_10  and  N_12
REMARK    8  A    between atoms: N_12  and  C_13
REMARK                            x       y       z     vdW  Elec       q    Type
REMARK                         _______ _______ _______ _____ _____    ______ ____
ROOT
ATOM      1  N   UNL     1       5.931   3.923  19.188  0.00  0.00    +0.000 N 
ATOM      2  H   UNL     1       6.150   3.869  20.180  0.00  0.00    +0.000 HD
ENDROOT
BRANCH   1   3
ATOM      3  C   UNL     1       4.625   3.500  18.932  0.00  0.00    +0.000 A 
ATOM      4  C   UNL     1       4.316   2.257  18.337  0.00  0.00    +0.000 A 
ATOM      5  C   UNL     1       3.010   1.747  18.303  0.00  0.00    +0.000 A 
ATOM      6  C   UNL     1       2.013   2.488  18.900  0.00  0.00    +0.000 A 
ATOM      7  C   UNL     1       2.304   3.735  19.441  0.00  0.00    +0.000 A 
ATOM      8  C   UNL     1       3.580   4.259  19.475  0.00  0.00    +0.000 A 
ATOM      9  C   UNL     1       1.111   4.217  20.136  0.00  0.00    +0.000 C 
ATOM     10  O   UNL     1       1.023   5.243  20.778  0.00  0.00    +0.000 OA
ATOM     11  N   UNL     1       0.151   3.231  20.002  0.00  0.00    +0.000 N 
ATOM     12  C   UNL     1       0.601   2.122  19.199  0.00  0.00    +0.000 C 
ATOM     13  H   UNL     1      -0.550   3.166  20.728  0.00  0.00    +0.000 HD
ENDBRANCH   1   3
BRANCH   1  14
ATOM     14  C   UNL     1       6.505   5.112  18.541  0.00  0.00    +0.000 C 
ATOM     15  C   UNL     1       8.031   4.960  18.590  0.00  0.00    +0.000 C 
BRANCH  14  20
ATOM     16  C   UNL     1       6.304   4.510  14.762  0.00  0.00    +0.000 A 
ATOM     17  C   UNL     1       5.612   5.643  14.342  0.00  0.00    +0.000 A 
ATOM     18  C   UNL     1       5.123   6.562  15.270  0.00  0.00    +0.000 A 
ATOM     19  C   UNL     1       5.327   6.360  16.638  0.00  0.00    +0.000 A 
ATOM     20  C   UNL     1       6.083   5.252  17.080  0.00  0.00    +0.000 A 
ATOM     21  C   UNL     1       6.529   4.314  16.124  0.00  0.00    +0.000 A 
BRANCH  16  23
ATOM     22  C   UNL     1       5.846   3.510  12.653  0.00  0.00    +0.000 C 
ATOM     23  O   UNL     1       6.730   3.702  13.745  0.00  0.00    +0.000 OA
ENDBRANCH  16  23
BRANCH  19  24
ATOM     24  O   UNL     1       4.836   7.199  17.606  0.00  0.00    +0.000 OA
ATOM     25  C   UNL     1       3.423   7.387  17.641  0.00  0.00    +0.000 C 
ENDBRANCH  19  24
ENDBRANCH  14  20
ENDBRANCH   1  14
TORSDOF 5
ENDMDL
MODEL 6
REMARK VINA RESULT:      -7.5      3.186      5.574
REMARK  Name = 
REMARK  8 active torsions:
REMARK  status: ('A' for Active; 'I' for Inactive)
REMARK    1  A    between atoms: C_1  and  O_2
REMARK    2  A    between atoms: O_2  and  C_3
REMARK    3  A    between atoms: C_6  and  O_7
REMARK    4  A    between atoms: O_7  and  C_8
REMARK    5  A    between atoms: C_9  and  C_10
REMARK    6  A    between atoms: C_10  and  C_11
REMARK    7  A    between atoms: C_10  and  N_12
REMARK    8  A    between atoms: N_12  and  C_13
REMARK                            x       y       z     vdW  Elec       q    Type
REMARK                         _______ _______ _______ _____ _____    ______ ____
ROOT
ATOM      1  N   UNL     1       2.180   7.126  19.976  0.00  0.00    +0.000 N 
ATOM      2  H   UNL     1       1.291   6.986  20.448  0.00  0.00    +0.000 HD
ENDROOT
BRANCH   1   3
ATOM      3  C   UNL     1       2.671   5.930  19.450  0.00  0.00    +0.000 A 
ATOM      4  C   UNL     1       4.039   5.578  19.469  0.00  0.00    +0.000 A 
ATOM      5  C   UNL     1       4.485   4.286  19.158  0.00  0.00    +0.000 A 
ATOM      6  C   UNL     1       3.538   3.334  18.849  0.00  0.00    +0.000 A 
ATOM      7  C   UNL     1       2.195   3.689  18.779  0.00  0.00    +0.000 A 
ATOM      8  C   UNL     1       1.737   4.957  19.072  0.00  0.00    +0.000 A 
ATOM      9  C   UNL     1       1.413   2.466  18.592  0.00  0.00    +0.000 C 
ATOM     10  O   UNL     1       0.203   2.392  18.552  0.00  0.00    +0.000 OA
ATOM     11  N   UNL     1       2.315   1.420  18.576  0.00  0.00    +0.000 N 
ATOM     12  C   UNL     1       3.683   1.862  18.681  0.00  0.00    +0.000 C 
ATOM     13  H   UNL     1       1.981   0.515  18.881  0.00  0.00    +0.000 HD
ENDBRANCH   1   3
BRANCH   1  14
ATOM     14  C   UNL     1       2.233   8.388  19.222  0.00  0.00    +0.000 C 
ATOM     15  C   UNL     1       2.452   8.023  17.749  0.00  0.00    +0.000 C 
BRANCH  14  20
ATOM     16  C   UNL     1      -0.905  10.341  18.212  0.00  0.00    +0.000 A 
ATOM     17  C   UNL     1      -1.249  10.947  19.417  0.00  0.00    +0.000 A 
ATOM     18  C   UNL     1      -0.537  10.664  20.583  0.00  0.00    +0.000 A 
ATOM     19  C   UNL     1       0.537   9.771  20.556  0.00  0.00    +0.000 A 
ATOM     20  C   UNL     1       0.943   9.197  19.330  0.00  0.00    +0.000 A 
ATOM     21  C   UNL     1       0.179   9.465  18.173  0.00  0.00    +0.000 A 
BRANCH  16  23
ATOM     22  C   UNL     1      -2.871  11.434  17.440  0.00  0.00    +0.000 C 
ATOM     23  O   UNL     1      -1.683  10.715  17.152  0.00  0.00    +0.000 OA
ENDBRANCH  16  23
BRANCH  19  24
ATOM     24  O   UNL     1       1.251   9.415  21.671  0.00  0.00    +0.000 OA
ATOM     25  C   UNL     1       0.538   9.363  22.905  0.00  0.00    +0.000 C 
ENDBRANCH  19  24
ENDBRANCH  14  20
ENDBRANCH   1  14
TORSDOF 5
ENDMDL
MODEL 7
REMARK VINA RESULT:      -7.5      2.661      5.935
REMARK  Name = 
REMARK  8 active torsions:
REMARK  status: ('A' for Active; 'I' for Inactive)
REMARK    1  A    between atoms: C_1  and  O_2
REMARK    2  A    between atoms: O_2  and  C_3
REMARK    3  A    between atoms: C_6  and  O_7
REMARK    4  A    between atoms: O_7  and  C_8
REMARK    5  A    between atoms: C_9  and  C_10
REMARK    6  A    between atoms: C_10  and  C_11
REMARK    7  A    between atoms: C_10  and  N_12
REMARK    8  A    between atoms: N_12  and  C_13
REMARK                            x       y       z     vdW  Elec       q    Type
REMARK                         _______ _______ _______ _____ _____    ______ ____
ROOT
ATOM      1  N   UNL     1       2.835   4.499  18.391  0.00  0.00    +0.000 N 
ATOM      2  H   UNL     1       2.206   3.706  18.297  0.00  0.00    +0.000 HD
ENDROOT
BRANCH   1   3
ATOM      3  C   UNL     1       2.206   5.574  19.024  0.00  0.00    +0.000 A 
ATOM      4  C   UNL     1       1.891   5.586  20.401  0.00  0.00    +0.000 A 
ATOM      5  C   UNL     1       1.482   6.751  21.065  0.00  0.00    +0.000 A 
ATOM      6  C   UNL     1       1.417   7.919  20.337  0.00  0.00    +0.000 A 
ATOM      7  C   UNL     1       1.676   7.901  18.971  0.00  0.00    +0.000 A 
ATOM      8  C   UNL     1       2.070   6.764  18.296  0.00  0.00    +0.000 A 
ATOM      9  C   UNL     1       1.689   9.284  18.494  0.00  0.00    +0.000 C 
ATOM     10  O   UNL     1       1.945   9.648  17.366  0.00  0.00    +0.000 OA
ATOM     11  N   UNL     1       1.454  10.084  19.596  0.00  0.00    +0.000 N 
ATOM     12  C   UNL     1       1.220   9.322  20.797  0.00  0.00    +0.000 C 
ATOM     13  H   UNL     1       1.833  11.022  19.578  0.00  0.00    +0.000 HD
ENDBRANCH   1   3
BRANCH   1  14
ATOM     14  C   UNL     1       4.212   4.101  18.718  0.00  0.00    +0.000 C 
ATOM     15  C   UNL     1       4.186   2.598  19.022  0.00  0.00    +0.000 C 
BRANCH  14  20
ATOM     16  C   UNL     1       5.630   4.313  15.165  0.00  0.00    +0.000 A 
ATOM     17  C   UNL     1       6.992   4.451  15.423  0.00  0.00    +0.000 A 
ATOM     18  C   UNL     1       7.459   4.571  16.732  0.00  0.00    +0.000 A 
ATOM     19  C   UNL     1       6.565   4.548  17.805  0.00  0.00    +0.000 A 
ATOM     20  C   UNL     1       5.187   4.342  17.569  0.00  0.00    +0.000 A 
ATOM     21  C   UNL     1       4.735   4.268  16.233  0.00  0.00    +0.000 A 
BRANCH  16  23
ATOM     22  C   UNL     1       6.295   3.626  12.987  0.00  0.00    +0.000 C 
ATOM     23  O   UNL     1       5.317   4.200  13.839  0.00  0.00    +0.000 OA
ENDBRANCH  16  23
BRANCH  19  24
ATOM     24  O   UNL     1       6.950   4.704  19.112  0.00  0.00    +0.000 OA
ATOM     25  C   UNL     1       7.783   5.823  19.409  0.00  0.00    +0.000 C 
ENDBRANCH  19  24
ENDBRANCH  14  20
ENDBRANCH   1  14
TORSDOF 5
ENDMDL
MODEL 8
REMARK VINA RESULT:      -7.5      3.646      6.536
REMARK  Name = 
REMARK  8 active torsions:
REMARK  status: ('A' for Active; 'I' for Inactive)
REMARK    1  A    between atoms: C_1  and  O_2
REMARK    2  A    between atoms: O_2  and  C_3
REMARK    3  A    between atoms: C_6  and  O_7
REMARK    4  A    between atoms: O_7  and  C_8
REMARK    5  A    between atoms: C_9  and  C_10
REMARK    6  A    between atoms: C_10  and  C_11
REMARK    7  A    between atoms: C_10  and  N_12
REMARK    8  A    between atoms: N_12  and  C_13
REMARK                            x       y       z     vdW  Elec       q    Type
REMARK                         _______ _______ _______ _____ _____    ______ ____
ROOT
ATOM      1  N   UNL     1       2.244   7.301  19.614  0.00  0.00    +0.000 N 
ATOM      2  H   UNL     1       3.094   7.190  20.160  0.00  0.00    +0.000 HD
ENDROOT
BRANCH   1   3
ATOM      3  C   UNL     1       1.572   8.478  19.951  0.00  0.00    +0.000 A 
ATOM      4  C   UNL     1       0.932   9.304  19.001  0.00  0.00    +0.000 A 
ATOM      5  C   UNL     1       0.068  10.344  19.373  0.00  0.00    +0.000 A 
ATOM      6  C   UNL     1      -0.172  10.533  20.717  0.00  0.00    +0.000 A 
ATOM      7  C   UNL     1       0.496   9.756  21.657  0.00  0.00    +0.000 A 
ATOM      8  C   UNL     1       1.358   8.735  21.312  0.00  0.00    +0.000 A 
ATOM      9  C   UNL     1      -0.062  10.060  22.975  0.00  0.00    +0.000 C 
ATOM     10  O   UNL     1       0.239   9.521  24.019  0.00  0.00    +0.000 OA
ATOM     11  N   UNL     1      -1.058  10.996  22.775  0.00  0.00    +0.000 N 
ATOM     12  C   UNL     1      -1.175  11.399  21.396  0.00  0.00    +0.000 C 
ATOM     13  H   UNL     1      -1.817  11.016  23.443  0.00  0.00    +0.000 HD
ENDBRANCH   1   3
BRANCH   1  14
ATOM     14  C   UNL     1       2.402   6.868  18.217  0.00  0.00    +0.000 C 
ATOM     15  C   UNL     1       3.369   7.853  17.548  0.00  0.00    +0.000 C 
BRANCH  14  20
ATOM     16  C   UNL     1       4.532   3.933  16.980  0.00  0.00    +0.000 A 
ATOM     17  C   UNL     1       3.889   2.856  17.584  0.00  0.00    +0.000 A 
ATOM     18  C   UNL     1       2.828   3.065  18.465  0.00  0.00    +0.000 A 
ATOM     19  C   UNL     1       2.391   4.361  18.749  0.00  0.00    +0.000 A 
ATOM     20  C   UNL     1       2.987   5.463  18.096  0.00  0.00    +0.000 A 
ATOM     21  C   UNL     1       4.087   5.228  17.243  0.00  0.00    +0.000 A 
BRANCH  16  23
ATOM     22  C   UNL     1       5.750   4.389  14.988  0.00  0.00    +0.000 C 
ATOM     23  O   UNL     1       5.549   3.581  16.137  0.00  0.00    +0.000 OA
ENDBRANCH  16  23
BRANCH  19  24
ATOM     24  O   UNL     1       1.385   4.640  19.638  0.00  0.00    +0.000 OA
ATOM     25  C   UNL     1       1.082   3.638  20.606  0.00  0.00    +0.000 C 
ENDBRANCH  19  24
ENDBRANCH  14  20
ENDBRANCH   1  14
TORSDOF 5
ENDMDL
MODEL 9
REMARK VINA RESULT:      -7.5      2.062      3.256
REMARK  Name = 
REMARK  8 active torsions:
REMARK  status: ('A' for Active; 'I' for Inactive)
REMARK    1  A    between atoms: C_1  and  O_2
REMARK    2  A    between atoms: O_2  and  C_3
REMARK    3  A    between atoms: C_6  and  O_7
REMARK    4  A    between atoms: O_7  and  C_8
REMARK    5  A    between atoms: C_9  and  C_10
REMARK    6  A    between atoms: C_10  and  C_11
REMARK    7  A    between atoms: C_10  and  N_12
REMARK    8  A    between atoms: N_12  and  C_13
REMARK                            x       y       z     vdW  Elec       q    Type
REMARK                         _______ _______ _______ _____ _____    ______ ____
ROOT
ATOM      1  N   UNL     1       3.477   4.579  19.974  0.00  0.00    +0.000 N 
ATOM      2  H   UNL     1       3.557   3.805  20.628  0.00  0.00    +0.000 HD
ENDROOT
BRANCH   1   3
ATOM      3  C   UNL     1       4.376   4.444  18.914  0.00  0.00    +0.000 A 
ATOM      4  C   UNL     1       4.101   3.683  17.756  0.00  0.00    +0.000 A 
ATOM      5  C   UNL     1       4.903   3.749  16.608  0.00  0.00    +0.000 A 
ATOM      6  C   UNL     1       5.978   4.611  16.621  0.00  0.00    +0.000 A 
ATOM      7  C   UNL     1       6.283   5.323  17.776  0.00  0.00    +0.000 A 
ATOM      8  C   UNL     1       5.512   5.265  18.919  0.00  0.00    +0.000 A 
ATOM      9  C   UNL     1       7.358   6.263  17.458  0.00  0.00    +0.000 C 
ATOM     10  O   UNL     1       7.832   7.087  18.212  0.00  0.00    +0.000 OA
ATOM     11  N   UNL     1       7.647   6.093  16.118  0.00  0.00    +0.000 N 
ATOM     12  C   UNL     1       6.870   5.043  15.509  0.00  0.00    +0.000 C 
ATOM     13  H   UNL     1       8.023   6.890  15.620  0.00  0.00    +0.000 HD
ENDBRANCH   1   3
BRANCH   1  14
ATOM     14  C   UNL     1       2.086   5.009  19.764  0.00  0.00    +0.000 C 
ATOM     15  C   UNL     1       1.226   4.269  20.797  0.00  0.00    +0.000 C 
BRANCH  14  20
ATOM     16  C   UNL     1       1.049   8.341  21.347  0.00  0.00    +0.000 A 
ATOM     17  C   UNL     1       1.213   9.214  20.275  0.00  0.00    +0.000 A 
ATOM     18  C   UNL     1       1.744   8.764  19.067  0.00  0.00    +0.000 A 
ATOM     19  C   UNL     1       2.114   7.426  18.913  0.00  0.00    +0.000 A 
ATOM     20  C   UNL     1       1.894   6.510  19.965  0.00  0.00    +0.000 A 
ATOM     21  C   UNL     1       1.396   6.999  21.193  0.00  0.00    +0.000 A 
BRANCH  16  23
ATOM     22  C   UNL     1      -0.372  10.007  22.274  0.00  0.00    +0.000 C 
ATOM     23  O   UNL     1       0.514   8.916  22.466  0.00  0.00    +0.000 OA
ENDBRANCH  16  23
BRANCH  19  24
ATOM     24  O   UNL     1       2.682   6.926  17.768  0.00  0.00    +0.000 OA
ATOM     25  C   UNL     1       3.691   7.721  17.149  0.00  0.00    +0.000 C 
ENDBRANCH  19  24
ENDBRANCH  14  20
ENDBRANCH   1  14
TORSDOF 5
ENDMDL
