MODEL 1
REMARK VINA RESULT:      -8.9      0.000      0.000
REMARK  Name = 
REMARK  7 active torsions:
REMARK  status: ('A' for Active; 'I' for Inactive)
REMARK    1  A    between atoms: C_2  and  C_10
REMARK    2  A    between atoms: N_3  and  C_4
REMARK    3  A    between atoms: C_4  and  C_5
REMARK    4  A    between atoms: C_15  and  S_16
REMARK    5  A    between atoms: S_16  and  C_17
REMARK    6  A    between atoms: C_21  and  C_22
REMARK    7  A    between atoms: C_23  and  C_24
REMARK                            x       y       z     vdW  Elec       q    Type
REMARK                         _______ _______ _______ _____ _____    ______ ____
ROOT
ATOM      1  C   UNL     1       3.144   7.471  17.782  0.00  0.00    +0.000 A 
ATOM      2  C   UNL     1       2.556   8.707  17.496  0.00  0.00    +0.000 A 
ATOM      3  C   UNL     1       1.713   9.351  18.420  0.00  0.00    +0.000 A 
ATOM      4  C   UNL     1       1.449   8.736  19.659  0.00  0.00    +0.000 A 
ATOM      5  C   UNL     1       0.624   8.999  20.801  0.00  0.00    +0.000 A 
ATOM      6  N   UNL     1       0.797   8.059  21.746  0.00  0.00    +0.000 NA
ATOM      7  N   UNL     1       1.678   7.204  21.205  0.00  0.00    +0.000 N 
ATOM      8  C   UNL     1       2.086   7.531  19.941  0.00  0.00    +0.000 A 
ATOM      9  C   UNL     1       2.944   6.878  19.039  0.00  0.00    +0.000 A 
ATOM     10  H   UNL     1       1.947   6.395  21.753  0.00  0.00    +0.000 HD
ENDROOT
BRANCH   5  11
ATOM     11  C   UNL     1      -0.321  10.078  20.921  0.00  0.00    +0.000 C 
ATOM     12  C   UNL     1      -0.403  10.896  21.987  0.00  0.00    +0.000 C 
BRANCH  12  13
ATOM     13  C   UNL     1      -1.410  11.950  22.179  0.00  0.00    +0.000 A 
ATOM     14  C   UNL     1      -2.321  11.852  23.230  0.00  0.00    +0.000 A 
ATOM     15  C   UNL     1      -3.281  12.851  23.391  0.00  0.00    +0.000 A 
ATOM     16  C   UNL     1      -3.311  13.911  22.496  0.00  0.00    +0.000 A 
ATOM     17  C   UNL     1      -2.377  13.928  21.475  0.00  0.00    +0.000 A 
ATOM     18  N   UNL     1      -1.430  12.977  21.298  0.00  0.00    +0.000 NA
ENDBRANCH  12  13
ENDBRANCH   5  11
BRANCH   1  19
ATOM     19  S   UNL     1       4.225   6.706  16.575  0.00  0.00    +0.000 S 
BRANCH  19  25
ATOM     20  C   UNL     1       6.096   5.292  18.206  0.00  0.00    +0.000 A 
ATOM     21  C   UNL     1       7.322   5.237  18.903  0.00  0.00    +0.000 A 
ATOM     22  C   UNL     1       8.216   6.307  18.877  0.00  0.00    +0.000 A 
ATOM     23  C   UNL     1       7.900   7.444  18.147  0.00  0.00    +0.000 A 
ATOM     24  C   UNL     1       6.685   7.517  17.462  0.00  0.00    +0.000 A 
ATOM     25  C   UNL     1       5.751   6.463  17.497  0.00  0.00    +0.000 A 
BRANCH  20  27
ATOM     26  O   UNL     1       4.674   3.633  17.314  0.00  0.00    +0.000 OA
ATOM     27  C   UNL     1       5.277   4.045  18.300  0.00  0.00    +0.000 C 
ATOM     28  N   UNL     1       5.180   3.446  19.529  0.00  0.00    +0.000 N 
ATOM     29  H   UNL     1       5.612   3.877  20.336  0.00  0.00    +0.000 HD
BRANCH  28  30
ATOM     30  C   UNL     1       4.359   2.279  19.753  0.00  0.00    +0.000 C 
BRANCH  30  31
ATOM     31  C   UNL     1       2.967   2.739  19.978  0.00  0.00    +0.000 A 
ATOM     32  C   UNL     1       2.389   3.569  20.913  0.00  0.00    +0.000 A 
ATOM     33  C   UNL     1       1.017   3.650  20.577  0.00  0.00    +0.000 A 
ATOM     34  C   UNL     1       0.848   2.864  19.463  0.00  0.00    +0.000 A 
ATOM     35  O   UNL     1       2.028   2.307  19.088  0.00  0.00    +0.000 OA
ENDBRANCH  30  31
ENDBRANCH  28  30
ENDBRANCH  20  27
ENDBRANCH  19  25
ENDBRANCH   1  19
TORSDOF 7
ENDMDL
MODEL 2
REMARK VINA RESULT:      -8.8      3.253      8.085
REMARK  Name = 
REMARK  7 active torsions:
REMARK  status: ('A' for Active; 'I' for Inactive)
REMARK    1  A    between atoms: C_2  and  C_10
REMARK    2  A    between atoms: N_3  and  C_4
REMARK    3  A    between atoms: C_4  and  C_5
REMARK    4  A    between atoms: C_15  and  S_16
REMARK    5  A    between atoms: S_16  and  C_17
REMARK    6  A    between atoms: C_21  and  C_22
REMARK    7  A    between atoms: C_23  and  C_24
REMARK                            x       y       z     vdW  Elec       q    Type
REMARK                         _______ _______ _______ _____ _____    ______ ____
ROOT
ATOM      1  C   UNL     1       5.100   3.844  18.075  0.00  0.00    +0.000 A 
ATOM      2  C   UNL     1       5.369   4.572  19.238  0.00  0.00    +0.000 A 
ATOM      3  C   UNL     1       6.185   5.718  19.215  0.00  0.00    +0.000 A 
ATOM      4  C   UNL     1       6.750   6.139  17.995  0.00  0.00    +0.000 A 
ATOM      5  C   UNL     1       7.660   7.158  17.562  0.00  0.00    +0.000 A 
ATOM      6  N   UNL     1       7.827   7.119  16.230  0.00  0.00    +0.000 NA
ATOM      7  N   UNL     1       7.074   6.083  15.832  0.00  0.00    +0.000 N 
ATOM      8  C   UNL     1       6.426   5.428  16.843  0.00  0.00    +0.000 A 
ATOM      9  C   UNL     1       5.600   4.290  16.841  0.00  0.00    +0.000 A 
ATOM     10  H   UNL     1       7.062   5.860  14.843  0.00  0.00    +0.000 HD
ENDROOT
BRANCH   5  11
ATOM     11  C   UNL     1       8.367   8.070  18.423  0.00  0.00    +0.000 C 
ATOM     12  C   UNL     1       8.487   9.391  18.188  0.00  0.00    +0.000 C 
BRANCH  12  13
ATOM     13  C   UNL     1       9.273  10.333  18.998  0.00  0.00    +0.000 A 
ATOM     14  C   UNL     1      10.329  11.032  18.416  0.00  0.00    +0.000 A 
ATOM     15  C   UNL     1      11.076  11.911  19.199  0.00  0.00    +0.000 A 
ATOM     16  C   UNL     1      10.755  12.061  20.541  0.00  0.00    +0.000 A 
ATOM     17  C   UNL     1       9.697  11.323  21.044  0.00  0.00    +0.000 A 
ATOM     18  N   UNL     1       8.951  10.468  20.306  0.00  0.00    +0.000 NA
ENDBRANCH  12  13
ENDBRANCH   5  11
BRANCH   1  19
ATOM     19  S   UNL     1       4.037   2.404  18.160  0.00  0.00    +0.000 S 
BRANCH  19  25
ATOM     20  C   UNL     1       2.036   3.925  19.519  0.00  0.00    +0.000 A 
ATOM     21  C   UNL     1       1.211   4.141  20.643  0.00  0.00    +0.000 A 
ATOM     22  C   UNL     1       1.217   3.260  21.724  0.00  0.00    +0.000 A 
ATOM     23  C   UNL     1       2.041   2.145  21.691  0.00  0.00    +0.000 A 
ATOM     24  C   UNL     1       2.873   1.924  20.591  0.00  0.00    +0.000 A 
ATOM     25  C   UNL     1       2.909   2.815  19.500  0.00  0.00    +0.000 A 
BRANCH  20  27
ATOM     26  O   UNL     1       1.340   4.618  17.373  0.00  0.00    +0.000 OA
ATOM     27  C   UNL     1       1.874   4.937  18.431  0.00  0.00    +0.000 C 
ATOM     28  N   UNL     1       2.405   6.182  18.645  0.00  0.00    +0.000 N 
ATOM     29  H   UNL     1       2.926   6.370  19.492  0.00  0.00    +0.000 HD
BRANCH  28  30
ATOM     30  C   UNL     1       2.372   7.216  17.637  0.00  0.00    +0.000 C 
BRANCH  30  31
ATOM     31  C   UNL     1       1.893   8.463  18.279  0.00  0.00    +0.000 A 
ATOM     32  C   UNL     1       1.726   9.752  17.823  0.00  0.00    +0.000 A 
ATOM     33  C   UNL     1       1.192  10.490  18.906  0.00  0.00    +0.000 A 
ATOM     34  C   UNL     1       1.069   9.604  19.950  0.00  0.00    +0.000 A 
ATOM     35  O   UNL     1       1.489   8.368  19.578  0.00  0.00    +0.000 OA
ENDBRANCH  30  31
ENDBRANCH  28  30
ENDBRANCH  20  27
ENDBRANCH  19  25
ENDBRANCH   1  19
TORSDOF 7
ENDMDL
MODEL 3
REMARK VINA RESULT:      -8.7      2.168      4.400
REMARK  Name = 
REMARK  7 active torsions:
REMARK  status: ('A' for Active; 'I' for Inactive)
REMARK    1  A    between atoms: C_2  and  C_10
REMARK    2  A    between atoms: N_3  and  C_4
REMARK    3  A    between atoms: C_4  and  C_5
REMARK    4  A    between atoms: C_15  and  S_16
REMARK    5  A    between atoms: S_16  and  C_17
REMARK    6  A    between atoms: C_21  and  C_22
REMARK    7  A    between atoms: C_23  and  C_24
REMARK                            x       y       z     vdW  Elec       q    Type
REMARK                         _______ _______ _______ _____ _____    ______ ____
ROOT
ATOM      1  C   UNL     1       1.835   8.138  19.409  0.00  0.00    +0.000 A 
ATOM      2  C   UNL     1       1.074   9.158  18.829  0.00  0.00    +0.000 A 
ATOM      3  C   UNL     1       0.328  10.056  19.614  0.00  0.00    +0.000 A 
ATOM      4  C   UNL     1       0.342   9.923  21.016  0.00  0.00    +0.000 A 
ATOM      5  C   UNL     1      -0.309  10.547  22.131  0.00  0.00    +0.000 A 
ATOM      6  N   UNL     1       0.120  10.024  23.292  0.00  0.00    +0.000 NA
ATOM      7  N   UNL     1       0.990   9.071  22.925  0.00  0.00    +0.000 N 
ATOM      8  C   UNL     1       1.146   8.933  21.573  0.00  0.00    +0.000 A 
ATOM      9  C   UNL     1       1.912   8.036  20.808  0.00  0.00    +0.000 A 
ATOM     10  H   UNL     1       1.434   8.530  23.657  0.00  0.00    +0.000 HD
ENDROOT
BRANCH   5  11
ATOM     11  C   UNL     1      -1.335  11.552  22.046  0.00  0.00    +0.000 C 
ATOM     12  C   UNL     1      -2.163  11.874  23.058  0.00  0.00    +0.000 C 
BRANCH  12  13
ATOM     13  C   UNL     1      -3.276  12.832  22.978  0.00  0.00    +0.000 A 
ATOM     14  C   UNL     1      -3.020  14.165  22.662  0.00  0.00    +0.000 A 
ATOM     15  C   UNL     1      -4.082  15.066  22.605  0.00  0.00    +0.000 A 
ATOM     16  C   UNL     1      -5.367  14.615  22.875  0.00  0.00    +0.000 A 
ATOM     17  C   UNL     1      -5.535  13.278  23.189  0.00  0.00    +0.000 A 
ATOM     18  N   UNL     1      -4.524  12.379  23.246  0.00  0.00    +0.000 NA
ENDBRANCH  12  13
ENDBRANCH   5  11
BRANCH   1  19
ATOM     19  S   UNL     1       2.781   7.036  18.361  0.00  0.00    +0.000 S 
BRANCH  19  25
ATOM     20  C   UNL     1       3.809   4.604  19.453  0.00  0.00    +0.000 A 
ATOM     21  C   UNL     1       3.618   3.399  20.163  0.00  0.00    +0.000 A 
ATOM     22  C   UNL     1       2.375   3.067  20.701  0.00  0.00    +0.000 A 
ATOM     23  C   UNL     1       1.309   3.941  20.546  0.00  0.00    +0.000 A 
ATOM     24  C   UNL     1       1.479   5.131  19.836  0.00  0.00    +0.000 A 
ATOM     25  C   UNL     1       2.716   5.476  19.255  0.00  0.00    +0.000 A 
BRANCH  20  27
ATOM     26  O   UNL     1       6.107   5.020  19.798  0.00  0.00    +0.000 OA
ATOM     27  C   UNL     1       5.210   4.827  18.982  0.00  0.00    +0.000 C 
ATOM     28  N   UNL     1       5.420   4.875  17.629  0.00  0.00    +0.000 N 
ATOM     29  H   UNL     1       4.635   4.811  16.994  0.00  0.00    +0.000 HD
BRANCH  28  30
ATOM     30  C   UNL     1       6.718   5.156  17.062  0.00  0.00    +0.000 C 
BRANCH  30  31
ATOM     31  C   UNL     1       6.686   4.761  15.633  0.00  0.00    +0.000 A 
ATOM     32  C   UNL     1       5.863   3.932  14.904  0.00  0.00    +0.000 A 
ATOM     33  C   UNL     1       6.321   3.994  13.566  0.00  0.00    +0.000 A 
ATOM     34  C   UNL     1       7.392   4.855  13.568  0.00  0.00    +0.000 A 
ATOM     35  O   UNL     1       7.621   5.330  14.819  0.00  0.00    +0.000 OA
ENDBRANCH  30  31
ENDBRANCH  28  30
ENDBRANCH  20  27
ENDBRANCH  19  25
ENDBRANCH   1  19
TORSDOF 7
ENDMDL
MODEL 4
REMARK VINA RESULT:      -8.7      4.332      9.828
REMARK  Name = 
REMARK  7 active torsions:
REMARK  status: ('A' for Active; 'I' for Inactive)
REMARK    1  A    between atoms: C_2  and  C_10
REMARK    2  A    between atoms: N_3  and  C_4
REMARK    3  A    between atoms: C_4  and  C_5
REMARK    4  A    between atoms: C_15  and  S_16
REMARK    5  A    between atoms: S_16  and  C_17
REMARK    6  A    between atoms: C_21  and  C_22
REMARK    7  A    between atoms: C_23  and  C_24
REMARK                            x       y       z     vdW  Elec       q    Type
REMARK                         _______ _______ _______ _____ _____    ______ ____
ROOT
ATOM      1  C   UNL     1      -0.330  10.490  21.497  0.00  0.00    +0.000 A 
ATOM      2  C   UNL     1       0.254   9.295  21.928  0.00  0.00    +0.000 A 
ATOM      3  C   UNL     1       1.076   8.530  21.080  0.00  0.00    +0.000 A 
ATOM      4  C   UNL     1       1.312   8.973  19.764  0.00  0.00    +0.000 A 
ATOM      5  C   UNL     1       1.990   8.480  18.601  0.00  0.00    +0.000 A 
ATOM      6  N   UNL     1       1.920   9.365  17.593  0.00  0.00    +0.000 NA
ATOM      7  N   UNL     1       1.188  10.374  18.087  0.00  0.00    +0.000 N 
ATOM      8  C   UNL     1       0.762  10.191  19.374  0.00  0.00    +0.000 A 
ATOM      9  C   UNL     1      -0.049  10.978  20.211  0.00  0.00    +0.000 A 
ATOM     10  H   UNL     1       0.997  11.161  17.478  0.00  0.00    +0.000 HD
ENDROOT
BRANCH   5  11
ATOM     11  C   UNL     1       2.612   7.188  18.480  0.00  0.00    +0.000 C 
ATOM     12  C   UNL     1       1.937   6.040  18.280  0.00  0.00    +0.000 C 
BRANCH  12  13
ATOM     13  C   UNL     1       2.532   4.696  18.238  0.00  0.00    +0.000 A 
ATOM     14  C   UNL     1       3.741   4.455  18.890  0.00  0.00    +0.000 A 
ATOM     15  C   UNL     1       4.302   3.180  18.829  0.00  0.00    +0.000 A 
ATOM     16  C   UNL     1       3.649   2.186  18.114  0.00  0.00    +0.000 A 
ATOM     17  C   UNL     1       2.457   2.510  17.488  0.00  0.00    +0.000 A 
ATOM     18  N   UNL     1       1.885   3.737  17.535  0.00  0.00    +0.000 NA
ENDBRANCH  12  13
ENDBRANCH   5  11
BRANCH   1  19
ATOM     19  S   UNL     1      -1.351  11.433  22.627  0.00  0.00    +0.000 S 
BRANCH  19  25
ATOM     20  C   UNL     1      -2.123  13.682  21.043  0.00  0.00    +0.000 A 
ATOM     21  C   UNL     1      -1.906  15.005  20.602  0.00  0.00    +0.000 A 
ATOM     22  C   UNL     1      -0.849  15.767  21.096  0.00  0.00    +0.000 A 
ATOM     23  C   UNL     1       0.003  15.221  22.045  0.00  0.00    +0.000 A 
ATOM     24  C   UNL     1      -0.191  13.908  22.482  0.00  0.00    +0.000 A 
ATOM     25  C   UNL     1      -1.233  13.106  21.977  0.00  0.00    +0.000 A 
BRANCH  20  27
ATOM     26  O   UNL     1      -4.372  12.970  21.088  0.00  0.00    +0.000 OA
ATOM     27  C   UNL     1      -3.325  13.023  20.449  0.00  0.00    +0.000 C 
ATOM     28  N   UNL     1      -3.178  12.433  19.221  0.00  0.00    +0.000 N 
ATOM     29  H   UNL     1      -2.270  12.414  18.776  0.00  0.00    +0.000 HD
BRANCH  28  30
ATOM     30  C   UNL     1      -4.251  11.706  18.584  0.00  0.00    +0.000 C 
BRANCH  30  31
ATOM     31  C   UNL     1      -3.691  11.013  17.398  0.00  0.00    +0.000 A 
ATOM     32  C   UNL     1      -2.773   9.998  17.248  0.00  0.00    +0.000 A 
ATOM     33  C   UNL     1      -2.683   9.746  15.858  0.00  0.00    +0.000 A 
ATOM     34  C   UNL     1      -3.550  10.625  15.254  0.00  0.00    +0.000 A 
ATOM     35  O   UNL     1      -4.171  11.398  16.181  0.00  0.00    +0.000 OA
ENDBRANCH  30  31
ENDBRANCH  28  30
ENDBRANCH  20  27
ENDBRANCH  19  25
ENDBRANCH   1  19
TORSDOF 7
ENDMDL
MODEL 5
REMARK VINA RESULT:      -8.6      1.525      4.074
REMARK  Name = 
REMARK  7 active torsions:
REMARK  status: ('A' for Active; 'I' for Inactive)
REMARK    1  A    between atoms: C_2  and  C_10
REMARK    2  A    between atoms: N_3  and  C_4
REMARK    3  A    between atoms: C_4  and  C_5
REMARK    4  A    between atoms: C_15  and  S_16
REMARK    5  A    between atoms: S_16  and  C_17
REMARK    6  A    between atoms: C_21  and  C_22
REMARK    7  A    between atoms: C_23  and  C_24
REMARK                            x       y       z     vdW  Elec       q    Type
REMARK                         _______ _______ _______ _____ _____    ______ ____
ROOT
ATOM      1  C   UNL     1       2.437   7.520  18.399  0.00  0.00    +0.000 A 
ATOM      2  C   UNL     1       1.805   8.655  17.882  0.00  0.00    +0.000 A 
ATOM      3  C   UNL     1       1.077   9.532  18.706  0.00  0.00    +0.000 A 
ATOM      4  C   UNL     1       0.974   9.257  20.084  0.00  0.00    +0.000 A 
ATOM      5  C   UNL     1       0.293   9.820  21.213  0.00  0.00    +0.000 A 
ATOM      6  N   UNL     1       0.590   9.147  22.338  0.00  0.00    +0.000 NA
ATOM      7  N   UNL     1       1.406   8.164  21.930  0.00  0.00    +0.000 N 
ATOM      8  C   UNL     1       1.652   8.149  20.585  0.00  0.00    +0.000 A 
ATOM      9  C   UNL     1       2.399   7.270  19.781  0.00  0.00    +0.000 A 
ATOM     10  H   UNL     1       1.749   7.515  22.629  0.00  0.00    +0.000 HD
ENDROOT
BRANCH   5  11
ATOM     11  C   UNL     1      -0.641  10.914  21.168  0.00  0.00    +0.000 C 
ATOM     12  C   UNL     1      -1.139  11.528  22.258  0.00  0.00    +0.000 C 
BRANCH  12  13
ATOM     13  C   UNL     1      -2.158  12.588  22.250  0.00  0.00    +0.000 A 
ATOM     14  C   UNL     1      -3.264  12.491  23.092  0.00  0.00    +0.000 A 
ATOM     15  C   UNL     1      -4.230  13.496  23.063  0.00  0.00    +0.000 A 
ATOM     16  C   UNL     1      -4.072  14.562  22.189  0.00  0.00    +0.000 A 
ATOM     17  C   UNL     1      -2.949  14.579  21.379  0.00  0.00    +0.000 A 
ATOM     18  N   UNL     1      -1.991  13.622  21.390  0.00  0.00    +0.000 NA
ENDBRANCH  12  13
ENDBRANCH   5  11
BRANCH   1  19
ATOM     19  S   UNL     1       3.368   6.450  17.305  0.00  0.00    +0.000 S 
BRANCH  19  25
ATOM     20  C   UNL     1       3.915   3.930  18.535  0.00  0.00    +0.000 A 
ATOM     21  C   UNL     1       3.488   2.657  18.969  0.00  0.00    +0.000 A 
ATOM     22  C   UNL     1       2.158   2.259  18.841  0.00  0.00    +0.000 A 
ATOM     23  C   UNL     1       1.234   3.132  18.285  0.00  0.00    +0.000 A 
ATOM     24  C   UNL     1       1.645   4.391  17.839  0.00  0.00    +0.000 A 
ATOM     25  C   UNL     1       2.988   4.806  17.929  0.00  0.00    +0.000 A 
BRANCH  20  27
ATOM     26  O   UNL     1       5.744   4.475  19.924  0.00  0.00    +0.000 OA
ATOM     27  C   UNL     1       5.360   4.214  18.788  0.00  0.00    +0.000 C 
ATOM     28  N   UNL     1       6.197   4.240  17.702  0.00  0.00    +0.000 N 
ATOM     29  H   UNL     1       5.819   4.119  16.771  0.00  0.00    +0.000 HD
BRANCH  28  30
ATOM     30  C   UNL     1       7.597   4.575  17.818  0.00  0.00    +0.000 C 
BRANCH  30  31
ATOM     31  C   UNL     1       7.714   6.053  17.811  0.00  0.00    +0.000 A 
ATOM     32  C   UNL     1       7.283   7.027  16.937  0.00  0.00    +0.000 A 
ATOM     33  C   UNL     1       7.668   8.266  17.503  0.00  0.00    +0.000 A 
ATOM     34  C   UNL     1       8.307   7.966  18.681  0.00  0.00    +0.000 A 
ATOM     35  O   UNL     1       8.338   6.624  18.880  0.00  0.00    +0.000 OA
ENDBRANCH  30  31
ENDBRANCH  28  30
ENDBRANCH  20  27
ENDBRANCH  19  25
ENDBRANCH   1  19
TORSDOF 7
ENDMDL
MODEL 6
REMARK VINA RESULT:      -8.6      3.425      7.995
REMARK  Name = 
REMARK  7 active torsions:
REMARK  status: ('A' for Active; 'I' for Inactive)
REMARK    1  A    between atoms: C_2  and  C_10
REMARK    2  A    between atoms: N_3  and  C_4
REMARK    3  A    between atoms: C_4  and  C_5
REMARK    4  A    between atoms: C_15  and  S_16
REMARK    5  A    between atoms: S_16  and  C_17
REMARK    6  A    between atoms: C_21  and  C_22
REMARK    7  A    between atoms: C_23  and  C_24
REMARK                            x       y       z     vdW  Elec       q    Type
REMARK                         _______ _______ _______ _____ _____    ______ ____
ROOT
ATOM      1  C   UNL     1       4.658   4.832  17.208  0.00  0.00    +0.000 A 
ATOM      2  C   UNL     1       4.823   5.987  16.437  0.00  0.00    +0.000 A 
ATOM      3  C   UNL     1       5.880   6.885  16.674  0.00  0.00    +0.000 A 
ATOM      4  C   UNL     1       6.789   6.620  17.718  0.00  0.00    +0.000 A 
ATOM      5  C   UNL     1       7.907   7.283  18.322  0.00  0.00    +0.000 A 
ATOM      6  N   UNL     1       8.442   6.530  19.297  0.00  0.00    +0.000 NA
ATOM      7  N   UNL     1       7.665   5.437  19.336  0.00  0.00    +0.000 N 
ATOM      8  C   UNL     1       6.634   5.440  18.439  0.00  0.00    +0.000 A 
ATOM      9  C   UNL     1       5.595   4.521  18.207  0.00  0.00    +0.000 A 
ATOM     10  H   UNL     1       7.886   4.726  20.023  0.00  0.00    +0.000 HD
ENDROOT
BRANCH   5  11
ATOM     11  C   UNL     1       8.374   8.605  17.995  0.00  0.00    +0.000 C 
ATOM     12  C   UNL     1       8.990   9.425  18.867  0.00  0.00    +0.000 C 
BRANCH  12  13
ATOM     13  C   UNL     1       9.401  10.810  18.591  0.00  0.00    +0.000 A 
ATOM     14  C   UNL     1       8.567  11.643  17.847  0.00  0.00    +0.000 A 
ATOM     15  C   UNL     1       8.976  12.949  17.579  0.00  0.00    +0.000 A 
ATOM     16  C   UNL     1      10.206  13.384  18.052  0.00  0.00    +0.000 A 
ATOM     17  C   UNL     1      10.978  12.491  18.776  0.00  0.00    +0.000 A 
ATOM     18  N   UNL     1      10.605  11.220  19.056  0.00  0.00    +0.000 NA
ENDBRANCH  12  13
ENDBRANCH   5  11
BRANCH   1  19
ATOM     19  S   UNL     1       3.305   3.715  16.846  0.00  0.00    +0.000 S 
BRANCH  19  25
ATOM     20  C   UNL     1       2.169   4.738  19.260  0.00  0.00    +0.000 A 
ATOM     21  C   UNL     1       1.471   4.537  20.469  0.00  0.00    +0.000 A 
ATOM     22  C   UNL     1       0.990   3.278  20.826  0.00  0.00    +0.000 A 
ATOM     23  C   UNL     1       1.194   2.202  19.973  0.00  0.00    +0.000 A 
ATOM     24  C   UNL     1       1.895   2.383  18.778  0.00  0.00    +0.000 A 
ATOM     25  C   UNL     1       2.417   3.638  18.409  0.00  0.00    +0.000 A 
BRANCH  20  27
ATOM     26  O   UNL     1       3.479   6.658  19.669  0.00  0.00    +0.000 OA
ATOM     27  C   UNL     1       2.574   6.154  19.009  0.00  0.00    +0.000 C 
ATOM     28  N   UNL     1       1.853   6.862  18.083  0.00  0.00    +0.000 N 
ATOM     29  H   UNL     1       1.051   6.437  17.637  0.00  0.00    +0.000 HD
BRANCH  28  30
ATOM     30  C   UNL     1       2.108   8.257  17.813  0.00  0.00    +0.000 C 
BRANCH  30  31
ATOM     31  C   UNL     1       1.146   9.059  18.608  0.00  0.00    +0.000 A 
ATOM     32  C   UNL     1       0.989   9.269  19.960  0.00  0.00    +0.000 A 
ATOM     33  C   UNL     1      -0.092  10.173  20.098  0.00  0.00    +0.000 A 
ATOM     34  C   UNL     1      -0.522  10.452  18.823  0.00  0.00    +0.000 A 
ATOM     35  O   UNL     1       0.226   9.782  17.909  0.00  0.00    +0.000 OA
ENDBRANCH  30  31
ENDBRANCH  28  30
ENDBRANCH  20  27
ENDBRANCH  19  25
ENDBRANCH   1  19
TORSDOF 7
ENDMDL
MODEL 7
REMARK VINA RESULT:      -8.6      4.264      9.996
REMARK  Name = 
REMARK  7 active torsions:
REMARK  status: ('A' for Active; 'I' for Inactive)
REMARK    1  A    between atoms: C_2  and  C_10
REMARK    2  A    between atoms: N_3  and  C_4
REMARK    3  A    between atoms: C_4  and  C_5
REMARK    4  A    between atoms: C_15  and  S_16
REMARK    5  A    between atoms: S_16  and  C_17
REMARK    6  A    between atoms: C_21  and  C_22
REMARK    7  A    between atoms: C_23  and  C_24
REMARK                            x       y       z     vdW  Elec       q    Type
REMARK                         _______ _______ _______ _____ _____    ______ ____
ROOT
ATOM      1  C   UNL     1      -0.507  10.671  21.651  0.00  0.00    +0.000 A 
ATOM      2  C   UNL     1      -0.038   9.368  21.844  0.00  0.00    +0.000 A 
ATOM      3  C   UNL     1       0.747   8.718  20.875  0.00  0.00    +0.000 A 
ATOM      4  C   UNL     1       1.063   9.390  19.678  0.00  0.00    +0.000 A 
ATOM      5  C   UNL     1       1.738   9.079  18.452  0.00  0.00    +0.000 A 
ATOM      6  N   UNL     1       1.775  10.149  17.640  0.00  0.00    +0.000 NA
ATOM      7  N   UNL     1       1.112  11.100  18.313  0.00  0.00    +0.000 N 
ATOM      8  C   UNL     1       0.628  10.704  19.530  0.00  0.00    +0.000 A 
ATOM      9  C   UNL     1      -0.144  11.378  20.493  0.00  0.00    +0.000 A 
ATOM     10  H   UNL     1       1.006  12.005  17.870  0.00  0.00    +0.000 HD
ENDROOT
BRANCH   5  11
ATOM     11  C   UNL     1       2.256   7.787  18.085  0.00  0.00    +0.000 C 
ATOM     12  C   UNL     1       3.530   7.562  17.715  0.00  0.00    +0.000 C 
BRANCH  12  13
ATOM     13  C   UNL     1       4.069   6.274  17.252  0.00  0.00    +0.000 A 
ATOM     14  C   UNL     1       3.656   5.092  17.864  0.00  0.00    +0.000 A 
ATOM     15  C   UNL     1       4.187   3.879  17.426  0.00  0.00    +0.000 A 
ATOM     16  C   UNL     1       5.120   3.881  16.399  0.00  0.00    +0.000 A 
ATOM     17  C   UNL     1       5.484   5.099  15.851  0.00  0.00    +0.000 A 
ATOM     18  N   UNL     1       4.981   6.291  16.251  0.00  0.00    +0.000 NA
ENDBRANCH  12  13
ENDBRANCH   5  11
BRANCH   1  19
ATOM     19  S   UNL     1      -1.486  11.457  22.928  0.00  0.00    +0.000 S 
BRANCH  19  25
ATOM     20  C   UNL     1      -2.506  13.671  21.438  0.00  0.00    +0.000 A 
ATOM     21  C   UNL     1      -2.458  15.034  21.077  0.00  0.00    +0.000 A 
ATOM     22  C   UNL     1      -1.530  15.902  21.651  0.00  0.00    +0.000 A 
ATOM     23  C   UNL     1      -0.642  15.419  22.602  0.00  0.00    +0.000 A 
ATOM     24  C   UNL     1      -0.669  14.070  22.961  0.00  0.00    +0.000 A 
ATOM     25  C   UNL     1      -1.576  13.166  22.373  0.00  0.00    +0.000 A 
BRANCH  20  27
ATOM     26  O   UNL     1      -4.540  12.473  21.417  0.00  0.00    +0.000 OA
ATOM     27  C   UNL     1      -3.589  12.892  20.764  0.00  0.00    +0.000 C 
ATOM     28  N   UNL     1      -3.430  12.616  19.430  0.00  0.00    +0.000 N 
ATOM     29  H   UNL     1      -2.582  12.895  18.955  0.00  0.00    +0.000 HD
BRANCH  28  30
ATOM     30  C   UNL     1      -4.376  11.811  18.694  0.00  0.00    +0.000 C 
BRANCH  30  31
ATOM     31  C   UNL     1      -3.635  11.108  17.619  0.00  0.00    +0.000 A 
ATOM     32  C   UNL     1      -2.668  10.127  17.628  0.00  0.00    +0.000 A 
ATOM     33  C   UNL     1      -2.382   9.839  16.272  0.00  0.00    +0.000 A 
ATOM     34  C   UNL     1      -3.191  10.664  15.527  0.00  0.00    +0.000 A 
ATOM     35  O   UNL     1      -3.959  11.437  16.336  0.00  0.00    +0.000 OA
ENDBRANCH  30  31
ENDBRANCH  28  30
ENDBRANCH  20  27
ENDBRANCH  19  25
ENDBRANCH   1  19
TORSDOF 7
ENDMDL
MODEL 8
REMARK VINA RESULT:      -8.6      1.977      4.607
REMARK  Name = 
REMARK  7 active torsions:
REMARK  status: ('A' for Active; 'I' for Inactive)
REMARK    1  A    between atoms: C_2  and  C_10
REMARK    2  A    between atoms: N_3  and  C_4
REMARK    3  A    between atoms: C_4  and  C_5
REMARK    4  A    between atoms: C_15  and  S_16
REMARK    5  A    between atoms: S_16  and  C_17
REMARK    6  A    between atoms: C_21  and  C_22
REMARK    7  A    between atoms: C_23  and  C_24
REMARK                            x       y       z     vdW  Elec       q    Type
REMARK                         _______ _______ _______ _____ _____    ______ ____
ROOT
ATOM      1  C   UNL     1       2.203   7.492  19.946  0.00  0.00    +0.000 A 
ATOM      2  C   UNL     1       1.447   7.760  21.092  0.00  0.00    +0.000 A 
ATOM      3  C   UNL     1       0.492   8.793  21.118  0.00  0.00    +0.000 A 
ATOM      4  C   UNL     1       0.296   9.581  19.968  0.00  0.00    +0.000 A 
ATOM      5  C   UNL     1      -0.482  10.731  19.609  0.00  0.00    +0.000 A 
ATOM      6  N   UNL     1      -0.297  11.051  18.317  0.00  0.00    +0.000 NA
ATOM      7  N   UNL     1       0.598  10.155  17.878  0.00  0.00    +0.000 N 
ATOM      8  C   UNL     1       1.023   9.263  18.824  0.00  0.00    +0.000 A 
ATOM      9  C   UNL     1       1.970   8.225  18.771  0.00  0.00    +0.000 A 
ATOM     10  H   UNL     1       0.896  10.220  16.911  0.00  0.00    +0.000 HD
ENDROOT
BRANCH   5  11
ATOM     11  C   UNL     1      -1.304  11.498  20.506  0.00  0.00    +0.000 C 
ATOM     12  C   UNL     1      -0.975  11.776  21.782  0.00  0.00    +0.000 C 
BRANCH  12  13
ATOM     13  C   UNL     1      -1.829  12.482  22.749  0.00  0.00    +0.000 A 
ATOM     14  C   UNL     1      -1.436  13.725  23.240  0.00  0.00    +0.000 A 
ATOM     15  C   UNL     1      -2.247  14.376  24.169  0.00  0.00    +0.000 A 
ATOM     16  C   UNL     1      -3.421  13.766  24.587  0.00  0.00    +0.000 A 
ATOM     17  C   UNL     1      -3.735  12.526  24.057  0.00  0.00    +0.000 A 
ATOM     18  N   UNL     1      -2.971  11.874  23.150  0.00  0.00    +0.000 NA
ENDBRANCH  12  13
ENDBRANCH   5  11
BRANCH   1  19
ATOM     19  S   UNL     1       3.390   6.151  19.964  0.00  0.00    +0.000 S 
BRANCH  19  25
ATOM     20  C   UNL     1       2.691   3.963  18.266  0.00  0.00    +0.000 A 
ATOM     21  C   UNL     1       1.834   2.891  17.934  0.00  0.00    +0.000 A 
ATOM     22  C   UNL     1       0.739   2.567  18.733  0.00  0.00    +0.000 A 
ATOM     23  C   UNL     1       0.490   3.304  19.882  0.00  0.00    +0.000 A 
ATOM     24  C   UNL     1       1.322   4.375  20.217  0.00  0.00    +0.000 A 
ATOM     25  C   UNL     1       2.416   4.743  19.410  0.00  0.00    +0.000 A 
BRANCH  20  27
ATOM     26  O   UNL     1       4.478   3.170  16.944  0.00  0.00    +0.000 OA
ATOM     27  C   UNL     1       3.841   4.146  17.329  0.00  0.00    +0.000 C 
ATOM     28  N   UNL     1       4.181   5.430  16.992  0.00  0.00    +0.000 N 
ATOM     29  H   UNL     1       3.691   6.209  17.413  0.00  0.00    +0.000 HD
BRANCH  28  30
ATOM     30  C   UNL     1       5.318   5.730  16.154  0.00  0.00    +0.000 C 
BRANCH  30  31
ATOM     31  C   UNL     1       6.376   6.315  17.013  0.00  0.00    +0.000 A 
ATOM     32  C   UNL     1       7.109   5.823  18.069  0.00  0.00    +0.000 A 
ATOM     33  C   UNL     1       7.999   6.856  18.450  0.00  0.00    +0.000 A 
ATOM     34  C   UNL     1       7.748   7.908  17.603  0.00  0.00    +0.000 A 
ATOM     35  O   UNL     1       6.765   7.589  16.722  0.00  0.00    +0.000 OA
ENDBRANCH  30  31
ENDBRANCH  28  30
ENDBRANCH  20  27
ENDBRANCH  19  25
ENDBRANCH   1  19
TORSDOF 7
ENDMDL
MODEL 9
REMARK VINA RESULT:      -8.5      3.355      8.080
REMARK  Name = 
REMARK  7 active torsions:
REMARK  status: ('A' for Active; 'I' for Inactive)
REMARK    1  A    between atoms: C_2  and  C_10
REMARK    2  A    between atoms: N_3  and  C_4
REMARK    3  A    between atoms: C_4  and  C_5
REMARK    4  A    between atoms: C_15  and  S_16
REMARK    5  A    between atoms: S_16  and  C_17
REMARK    6  A    between atoms: C_21  and  C_22
REMARK    7  A    between atoms: C_23  and  C_24
REMARK                            x       y       z     vdW  Elec       q    Type
REMARK                         _______ _______ _______ _____ _____    ______ ____
ROOT
ATOM      1  C   UNL     1       5.142   3.834  18.134  0.00  0.00    +0.000 A 
ATOM      2  C   UNL     1       5.467   4.532  19.302  0.00  0.00    +0.000 A 
ATOM      3  C   UNL     1       6.286   5.676  19.270  0.00  0.00    +0.000 A 
ATOM      4  C   UNL     1       6.797   6.125  18.037  0.00  0.00    +0.000 A 
ATOM      5  C   UNL     1       7.691   7.152  17.589  0.00  0.00    +0.000 A 
ATOM      6  N   UNL     1       7.797   7.145  16.249  0.00  0.00    +0.000 NA
ATOM      7  N   UNL     1       7.023   6.122  15.861  0.00  0.00    +0.000 N 
ATOM      8  C   UNL     1       6.418   5.445  16.883  0.00  0.00    +0.000 A 
ATOM      9  C   UNL     1       5.588   4.310  16.891  0.00  0.00    +0.000 A 
ATOM     10  H   UNL     1       6.965   5.925  14.868  0.00  0.00    +0.000 HD
ENDROOT
BRANCH   5  11
ATOM     11  C   UNL     1       8.440   8.040  18.438  0.00  0.00    +0.000 C 
ATOM     12  C   UNL     1       8.523   9.371  18.254  0.00  0.00    +0.000 C 
BRANCH  12  13
ATOM     13  C   UNL     1       9.347  10.294  19.050  0.00  0.00    +0.000 A 
ATOM     14  C   UNL     1       8.967  10.610  20.353  0.00  0.00    +0.000 A 
ATOM     15  C   UNL     1       9.749  11.499  21.091  0.00  0.00    +0.000 A 
ATOM     16  C   UNL     1      10.879  12.052  20.506  0.00  0.00    +0.000 A 
ATOM     17  C   UNL     1      11.182  11.691  19.204  0.00  0.00    +0.000 A 
ATOM     18  N   UNL     1      10.446  10.828  18.466  0.00  0.00    +0.000 NA
ENDBRANCH  12  13
ENDBRANCH   5  11
BRANCH   1  19
ATOM     19  S   UNL     1       4.079   2.396  18.232  0.00  0.00    +0.000 S 
BRANCH  19  25
ATOM     20  C   UNL     1       2.098   3.972  19.557  0.00  0.00    +0.000 A 
ATOM     21  C   UNL     1       1.253   4.205  20.663  0.00  0.00    +0.000 A 
ATOM     22  C   UNL     1       1.199   3.313  21.733  0.00  0.00    +0.000 A 
ATOM     23  C   UNL     1       1.985   2.170  21.709  0.00  0.00    +0.000 A 
ATOM     24  C   UNL     1       2.836   1.932  20.627  0.00  0.00    +0.000 A 
ATOM     25  C   UNL     1       2.932   2.832  19.548  0.00  0.00    +0.000 A 
BRANCH  20  27
ATOM     26  O   UNL     1       1.434   4.729  17.423  0.00  0.00    +0.000 OA
ATOM     27  C   UNL     1       2.000   5.001  18.478  0.00  0.00    +0.000 C 
ATOM     28  N   UNL     1       2.621   6.203  18.694  0.00  0.00    +0.000 N 
ATOM     29  H   UNL     1       3.162   6.347  19.538  0.00  0.00    +0.000 HD
BRANCH  28  30
ATOM     30  C   UNL     1       2.654   7.243  17.693  0.00  0.00    +0.000 C 
BRANCH  30  31
ATOM     31  C   UNL     1       2.022   8.453  18.273  0.00  0.00    +0.000 A 
ATOM     32  C   UNL     1       1.386   8.702  19.469  0.00  0.00    +0.000 A 
ATOM     33  C   UNL     1       1.033  10.072  19.454  0.00  0.00    +0.000 A 
ATOM     34  C   UNL     1       1.474  10.567  18.250  0.00  0.00    +0.000 A 
ATOM     35  O   UNL     1       2.080   9.592  17.526  0.00  0.00    +0.000 OA
ENDBRANCH  30  31
ENDBRANCH  28  30
ENDBRANCH  20  27
ENDBRANCH  19  25
ENDBRANCH   1  19
TORSDOF 7
ENDMDL
