MODEL 1
REMARK VINA RESULT:      -7.7      0.000      0.000
REMARK  Name = 
REMARK  10 active torsions:
REMARK  status: ('A' for Active; 'I' for Inactive)
REMARK    1  A    between atoms: C_1  and  C_2
REMARK    2  A    between atoms: C_2  and  C_3
REMARK    3  A    between atoms: C_2  and  C_4
REMARK    4  A    between atoms: C_2  and  C_6
REMARK    5  A    between atoms: C_4  and  N_5
REMARK    6  A    between atoms: C_6  and  N_7
REMARK    7  A    between atoms: C_8  and  C_10
REMARK    8  A    between atoms: C_11  and  C_12
REMARK    9  A    between atoms: N_14  and  C_15
REMARK   10  A    between atoms: C_15  and  C_16
REMARK                            x       y       z     vdW  Elec       q    Type
REMARK                         _______ _______ _______ _____ _____    ______ ____
ROOT
ATOM      1  C   UNL     1       4.016   5.024  18.980  0.00  0.00    +0.000 C 
ATOM      2  C   UNL     1       2.855   5.606  18.092  0.00  0.00    +0.000 C 
ATOM      3  C   UNL     1       1.578   4.917  18.681  0.00  0.00    +0.000 C 
ATOM      4  C   UNL     1       1.370   5.377  20.122  0.00  0.00    +0.000 C 
ATOM      5  C   UNL     1       2.386   4.876  20.852  0.00  0.00    +0.000 C 
ATOM      6  C   UNL     1       3.247   4.030  19.914  0.00  0.00    +0.000 C 
ATOM      7  C   UNL     1       2.166   3.551  18.962  0.00  0.00    +0.000 C 
ATOM      8  C   UNL     1       1.337   2.318  19.212  0.00  0.00    +0.000 C 
ATOM      9  C   UNL     1       2.257   2.388  18.012  0.00  0.00    +0.000 C 
ENDROOT
BRANCH   1  11
ATOM     10  N   UNL     1       4.863   4.218  16.818  0.00  0.00    +0.000 N 
ATOM     11  C   UNL     1       5.076   4.275  18.179  0.00  0.00    +0.000 C 
ATOM     12  O   UNL     1       6.095   3.820  18.698  0.00  0.00    +0.000 OA
ATOM     13  H   UNL     1       4.051   4.674  16.415  0.00  0.00    +0.000 HD
BRANCH  10  14
ATOM     14  C   UNL     1       5.833   3.615  15.910  0.00  0.00    +0.000 C 
BRANCH  14  16
ATOM     15  C   UNL     1       5.981   3.671  13.384  0.00  0.00    +0.000 C 
ATOM     16  C   UNL     1       6.189   4.487  14.675  0.00  0.00    +0.000 C 
ATOM     17  C   UNL     1       7.656   4.950  14.758  0.00  0.00    +0.000 C 
BRANCH  16  18
ATOM     18  C   UNL     1       5.233   5.717  14.685  0.00  0.00    +0.000 C 
BRANCH  18  19
ATOM     19  N   UNL     1       5.600   6.763  15.638  0.00  0.00    +0.000 NA
ATOM     20  H   UNL     1       6.402   6.462  16.191  0.00  0.00    +0.000 HD
ATOM     21  H   UNL     1       4.840   6.897  16.304  0.00  0.00    +0.000 HD
ENDBRANCH  18  19
ENDBRANCH  16  18
ENDBRANCH  14  16
ENDBRANCH  10  14
ENDBRANCH   1  11
BRANCH   2  22
ATOM     22  C   UNL     1       2.824   7.130  18.028  0.00  0.00    +0.000 C 
ATOM     23  O   UNL     1       3.875   7.770  18.043  0.00  0.00    +0.000 OA
ATOM     24  N   UNL     1       1.599   7.747  17.981  0.00  0.00    +0.000 N 
ATOM     25  H   UNL     1       0.757   7.205  18.123  0.00  0.00    +0.000 HD
BRANCH  24  26
ATOM     26  C   UNL     1       1.449   9.186  17.950  0.00  0.00    +0.000 C 
BRANCH  26  27
ATOM     27  C   UNL     1       0.724   9.701  19.173  0.00  0.00    +0.000 A 
ATOM     28  C   UNL     1       0.949   9.137  20.439  0.00  0.00    +0.000 A 
ATOM     29  C   UNL     1       0.315   9.652  21.573  0.00  0.00    +0.000 A 
ATOM     30  C   UNL     1      -0.555  10.735  21.447  0.00  0.00    +0.000 A 
ATOM     31 BR   UNL     1      -1.395  11.447  22.984  0.00  0.00    +0.000 Br
ATOM     32  C   UNL     1      -0.797  11.303  20.199  0.00  0.00    +0.000 A 
ATOM     33  C   UNL     1      -0.157  10.788  19.067  0.00  0.00    +0.000 A 
ENDBRANCH  26  27
ENDBRANCH  24  26
ENDBRANCH   2  22
TORSDOF 8
ENDMDL
MODEL 2
REMARK VINA RESULT:      -7.6      0.843      1.224
REMARK  Name = 
REMARK  10 active torsions:
REMARK  status: ('A' for Active; 'I' for Inactive)
REMARK    1  A    between atoms: C_1  and  C_2
REMARK    2  A    between atoms: C_2  and  C_3
REMARK    3  A    between atoms: C_2  and  C_4
REMARK    4  A    between atoms: C_2  and  C_6
REMARK    5  A    between atoms: C_4  and  N_5
REMARK    6  A    between atoms: C_6  and  N_7
REMARK    7  A    between atoms: C_8  and  C_10
REMARK    8  A    between atoms: C_11  and  C_12
REMARK    9  A    between atoms: N_14  and  C_15
REMARK   10  A    between atoms: C_15  and  C_16
REMARK                            x       y       z     vdW  Elec       q    Type
REMARK                         _______ _______ _______ _____ _____    ______ ____
ROOT
ATOM      1  C   UNL     1       3.803   5.115  19.270  0.00  0.00    +0.000 C 
ATOM      2  C   UNL     1       2.637   5.733  18.412  0.00  0.00    +0.000 C 
ATOM      3  C   UNL     1       1.352   5.128  19.071  0.00  0.00    +0.000 C 
ATOM      4  C   UNL     1       1.228   5.638  20.505  0.00  0.00    +0.000 C 
ATOM      5  C   UNL     1       2.246   5.105  21.209  0.00  0.00    +0.000 C 
ATOM      6  C   UNL     1       3.023   4.190  20.262  0.00  0.00    +0.000 C 
ATOM      7  C   UNL     1       1.881   3.741  19.369  0.00  0.00    +0.000 C 
ATOM      8  C   UNL     1       1.000   2.560  19.688  0.00  0.00    +0.000 C 
ATOM      9  C   UNL     1       1.872   2.549  18.451  0.00  0.00    +0.000 C 
ENDROOT
BRANCH   1  11
ATOM     10  N   UNL     1       4.570   4.282  17.089  0.00  0.00    +0.000 N 
ATOM     11  C   UNL     1       4.789   4.290  18.450  0.00  0.00    +0.000 C 
ATOM     12  O   UNL     1       5.763   3.733  18.956  0.00  0.00    +0.000 OA
ATOM     13  H   UNL     1       3.804   4.819  16.698  0.00  0.00    +0.000 HD
BRANCH  10  14
ATOM     14  C   UNL     1       5.480   3.613  16.166  0.00  0.00    +0.000 C 
BRANCH  14  16
ATOM     15  C   UNL     1       5.374   5.869  15.022  0.00  0.00    +0.000 C 
ATOM     16  C   UNL     1       6.174   4.557  15.145  0.00  0.00    +0.000 C 
ATOM     17  C   UNL     1       6.258   3.876  13.765  0.00  0.00    +0.000 C 
BRANCH  16  18
ATOM     18  C   UNL     1       7.604   4.856  15.688  0.00  0.00    +0.000 C 
BRANCH  18  19
ATOM     19  N   UNL     1       7.912   4.221  16.968  0.00  0.00    +0.000 NA
ATOM     20  H   UNL     1       8.680   4.711  17.423  0.00  0.00    +0.000 HD
ATOM     21  H   UNL     1       8.248   3.272  16.803  0.00  0.00    +0.000 HD
ENDBRANCH  18  19
ENDBRANCH  16  18
ENDBRANCH  14  16
ENDBRANCH  10  14
ENDBRANCH   1  11
BRANCH   2  22
ATOM     22  C   UNL     1       2.682   7.254  18.304  0.00  0.00    +0.000 C 
ATOM     23  O   UNL     1       3.569   7.801  17.649  0.00  0.00    +0.000 OA
ATOM     24  N   UNL     1       1.728   7.975  18.976  0.00  0.00    +0.000 N 
ATOM     25  H   UNL     1       1.108   7.508  19.625  0.00  0.00    +0.000 HD
BRANCH  24  26
ATOM     26  C   UNL     1       1.692   9.422  18.971  0.00  0.00    +0.000 C 
BRANCH  26  27
ATOM     27  C   UNL     1       0.734   9.964  20.008  0.00  0.00    +0.000 A 
ATOM     28  C   UNL     1       0.540   9.301  21.231  0.00  0.00    +0.000 A 
ATOM     29  C   UNL     1      -0.308   9.836  22.205  0.00  0.00    +0.000 A 
ATOM     30  C   UNL     1      -0.974  11.036  21.960  0.00  0.00    +0.000 A 
ATOM     31 BR   UNL     1      -2.103  11.771  23.286  0.00  0.00    +0.000 Br
ATOM     32  C   UNL     1      -0.801  11.704  20.750  0.00  0.00    +0.000 A 
ATOM     33  C   UNL     1       0.052  11.169  19.778  0.00  0.00    +0.000 A 
ENDBRANCH  26  27
ENDBRANCH  24  26
ENDBRANCH   2  22
TORSDOF 8
ENDMDL
MODEL 3
REMARK VINA RESULT:      -7.5      1.674      2.143
REMARK  Name = 
REMARK  10 active torsions:
REMARK  status: ('A' for Active; 'I' for Inactive)
REMARK    1  A    between atoms: C_1  and  C_2
REMARK    2  A    between atoms: C_2  and  C_3
REMARK    3  A    between atoms: C_2  and  C_4
REMARK    4  A    between atoms: C_2  and  C_6
REMARK    5  A    between atoms: C_4  and  N_5
REMARK    6  A    between atoms: C_6  and  N_7
REMARK    7  A    between atoms: C_8  and  C_10
REMARK    8  A    between atoms: C_11  and  C_12
REMARK    9  A    between atoms: N_14  and  C_15
REMARK   10  A    between atoms: C_15  and  C_16
REMARK                            x       y       z     vdW  Elec       q    Type
REMARK                         _______ _______ _______ _____ _____    ______ ____
ROOT
ATOM      1  C   UNL     1       3.661   4.833  19.611  0.00  0.00    +0.000 C 
ATOM      2  C   UNL     1       2.527   5.575  18.812  0.00  0.00    +0.000 C 
ATOM      3  C   UNL     1       1.270   4.673  19.057  0.00  0.00    +0.000 C 
ATOM      4  C   UNL     1       0.913   4.690  20.541  0.00  0.00    +0.000 C 
ATOM      5  C   UNL     1       1.908   4.062  21.199  0.00  0.00    +0.000 C 
ATOM      6  C   UNL     1       2.907   3.571  20.151  0.00  0.00    +0.000 C 
ATOM      7  C   UNL     1       1.948   3.320  19.002  0.00  0.00    +0.000 C 
ATOM      8  C   UNL     1       1.208   2.021  18.816  0.00  0.00    +0.000 C 
ATOM      9  C   UNL     1       2.209   2.484  17.779  0.00  0.00    +0.000 C 
ENDROOT
BRANCH   1  11
ATOM     10  N   UNL     1       4.618   4.446  17.381  0.00  0.00    +0.000 N 
ATOM     11  C   UNL     1       4.839   4.407  18.742  0.00  0.00    +0.000 C 
ATOM     12  O   UNL     1       5.939   4.124  19.215  0.00  0.00    +0.000 OA
ATOM     13  H   UNL     1       3.722   4.761  17.025  0.00  0.00    +0.000 HD
BRANCH  10  14
ATOM     14  C   UNL     1       5.675   4.154  16.420  0.00  0.00    +0.000 C 
BRANCH  14  16
ATOM     15  C   UNL     1       7.344   6.055  16.519  0.00  0.00    +0.000 C 
ATOM     16  C   UNL     1       6.233   5.399  15.676  0.00  0.00    +0.000 C 
ATOM     17  C   UNL     1       5.105   6.419  15.431  0.00  0.00    +0.000 C 
BRANCH  16  18
ATOM     18  C   UNL     1       6.818   4.904  14.319  0.00  0.00    +0.000 C 
BRANCH  18  19
ATOM     19  N   UNL     1       8.069   5.551  13.926  0.00  0.00    +0.000 NA
ATOM     20  H   UNL     1       7.926   6.556  13.835  0.00  0.00    +0.000 HD
ATOM     21  H   UNL     1       8.341   5.225  12.999  0.00  0.00    +0.000 HD
ENDBRANCH  18  19
ENDBRANCH  16  18
ENDBRANCH  14  16
ENDBRANCH  10  14
ENDBRANCH   1  11
BRANCH   2  22
ATOM     22  C   UNL     1       2.373   7.049  19.172  0.00  0.00    +0.000 C 
ATOM     23  O   UNL     1       2.334   7.396  20.353  0.00  0.00    +0.000 OA
ATOM     24  N   UNL     1       2.256   7.953  18.147  0.00  0.00    +0.000 N 
ATOM     25  H   UNL     1       2.139   7.625  17.198  0.00  0.00    +0.000 HD
BRANCH  24  26
ATOM     26  C   UNL     1       2.073   9.372  18.371  0.00  0.00    +0.000 C 
BRANCH  26  27
ATOM     27  C   UNL     1       0.613   9.762  18.338  0.00  0.00    +0.000 A 
ATOM     28  C   UNL     1       0.061  10.587  19.331  0.00  0.00    +0.000 A 
ATOM     29  C   UNL     1      -1.277  10.986  19.266  0.00  0.00    +0.000 A 
ATOM     30  C   UNL     1      -2.076  10.557  18.206  0.00  0.00    +0.000 A 
ATOM     31 BR   UNL     1      -3.879  11.115  18.104  0.00  0.00    +0.000 Br
ATOM     32  C   UNL     1      -1.549   9.732  17.215  0.00  0.00    +0.000 A 
ATOM     33  C   UNL     1      -0.208   9.338  17.281  0.00  0.00    +0.000 A 
ENDBRANCH  26  27
ENDBRANCH  24  26
ENDBRANCH   2  22
TORSDOF 8
ENDMDL
MODEL 4
REMARK VINA RESULT:      -7.4      0.664      1.387
REMARK  Name = 
REMARK  10 active torsions:
REMARK  status: ('A' for Active; 'I' for Inactive)
REMARK    1  A    between atoms: C_1  and  C_2
REMARK    2  A    between atoms: C_2  and  C_3
REMARK    3  A    between atoms: C_2  and  C_4
REMARK    4  A    between atoms: C_2  and  C_6
REMARK    5  A    between atoms: C_4  and  N_5
REMARK    6  A    between atoms: C_6  and  N_7
REMARK    7  A    between atoms: C_8  and  C_10
REMARK    8  A    between atoms: C_11  and  C_12
REMARK    9  A    between atoms: N_14  and  C_15
REMARK   10  A    between atoms: C_15  and  C_16
REMARK                            x       y       z     vdW  Elec       q    Type
REMARK                         _______ _______ _______ _____ _____    ______ ____
ROOT
ATOM      1  C   UNL     1       3.983   5.092  19.026  0.00  0.00    +0.000 C 
ATOM      2  C   UNL     1       2.804   5.660  18.153  0.00  0.00    +0.000 C 
ATOM      3  C   UNL     1       1.534   5.017  18.806  0.00  0.00    +0.000 C 
ATOM      4  C   UNL     1       1.379   5.536  20.233  0.00  0.00    +0.000 C 
ATOM      5  C   UNL     1       2.409   5.046  20.952  0.00  0.00    +0.000 C 
ATOM      6  C   UNL     1       3.226   4.149  20.021  0.00  0.00    +0.000 C 
ATOM      7  C   UNL     1       2.108   3.652  19.122  0.00  0.00    +0.000 C 
ATOM      8  C   UNL     1       1.266   2.445  19.446  0.00  0.00    +0.000 C 
ATOM      9  C   UNL     1       2.150   2.452  18.216  0.00  0.00    +0.000 C 
ENDROOT
BRANCH   1  11
ATOM     10  N   UNL     1       4.867   4.359  16.853  0.00  0.00    +0.000 N 
ATOM     11  C   UNL     1       5.004   4.293  18.224  0.00  0.00    +0.000 C 
ATOM     12  O   UNL     1       5.939   3.695  18.756  0.00  0.00    +0.000 OA
ATOM     13  H   UNL     1       4.132   4.928  16.448  0.00  0.00    +0.000 HD
BRANCH  10  14
ATOM     14  C   UNL     1       5.820   3.724  15.951  0.00  0.00    +0.000 C 
BRANCH  14  16
ATOM     15  C   UNL     1       5.289   5.825  14.645  0.00  0.00    +0.000 C 
ATOM     16  C   UNL     1       6.144   4.544  14.672  0.00  0.00    +0.000 C 
ATOM     17  C   UNL     1       5.849   3.703  13.415  0.00  0.00    +0.000 C 
BRANCH  16  18
ATOM     18  C   UNL     1       7.656   4.916  14.731  0.00  0.00    +0.000 C 
BRANCH  18  19
ATOM     19  N   UNL     1       8.151   5.630  13.555  0.00  0.00    +0.000 NA
ATOM     20  H   UNL     1       9.051   5.246  13.270  0.00  0.00    +0.000 HD
ATOM     21  H   UNL     1       8.330   6.603  13.800  0.00  0.00    +0.000 HD
ENDBRANCH  18  19
ENDBRANCH  16  18
ENDBRANCH  14  16
ENDBRANCH  10  14
ENDBRANCH   1  11
BRANCH   2  22
ATOM     22  C   UNL     1       2.797   7.180  18.030  0.00  0.00    +0.000 C 
ATOM     23  O   UNL     1       3.858   7.799  17.950  0.00  0.00    +0.000 OA
ATOM     24  N   UNL     1       1.583   7.821  18.039  0.00  0.00    +0.000 N 
ATOM     25  H   UNL     1       0.742   7.303  18.257  0.00  0.00    +0.000 HD
BRANCH  24  26
ATOM     26  C   UNL     1       1.457   9.261  17.961  0.00  0.00    +0.000 C 
BRANCH  26  27
ATOM     27  C   UNL     1       0.784   9.833  19.188  0.00  0.00    +0.000 A 
ATOM     28  C   UNL     1       0.012  11.003  19.110  0.00  0.00    +0.000 A 
ATOM     29  C   UNL     1      -0.651  11.498  20.238  0.00  0.00    +0.000 A 
ATOM     30  C   UNL     1      -0.540  10.825  21.454  0.00  0.00    +0.000 A 
ATOM     31 BR   UNL     1      -1.455  11.480  22.974  0.00  0.00    +0.000 Br
ATOM     32  C   UNL     1       0.227   9.667  21.554  0.00  0.00    +0.000 A 
ATOM     33  C   UNL     1       0.885   9.173  20.422  0.00  0.00    +0.000 A 
ENDBRANCH  26  27
ENDBRANCH  24  26
ENDBRANCH   2  22
TORSDOF 8
ENDMDL
MODEL 5
REMARK VINA RESULT:      -7.3      2.205      2.799
REMARK  Name = 
REMARK  10 active torsions:
REMARK  status: ('A' for Active; 'I' for Inactive)
REMARK    1  A    between atoms: C_1  and  C_2
REMARK    2  A    between atoms: C_2  and  C_3
REMARK    3  A    between atoms: C_2  and  C_4
REMARK    4  A    between atoms: C_2  and  C_6
REMARK    5  A    between atoms: C_4  and  N_5
REMARK    6  A    between atoms: C_6  and  N_7
REMARK    7  A    between atoms: C_8  and  C_10
REMARK    8  A    between atoms: C_11  and  C_12
REMARK    9  A    between atoms: N_14  and  C_15
REMARK   10  A    between atoms: C_15  and  C_16
REMARK                            x       y       z     vdW  Elec       q    Type
REMARK                         _______ _______ _______ _____ _____    ______ ____
ROOT
ATOM      1  C   UNL     1       3.480   4.620  20.192  0.00  0.00    +0.000 C 
ATOM      2  C   UNL     1       2.432   5.466  19.379  0.00  0.00    +0.000 C 
ATOM      3  C   UNL     1       1.308   4.425  19.055  0.00  0.00    +0.000 C 
ATOM      4  C   UNL     1       0.657   3.959  20.354  0.00  0.00    +0.000 C 
ATOM      5  C   UNL     1       1.581   3.251  21.034  0.00  0.00    +0.000 C 
ATOM      6  C   UNL     1       2.838   3.192  20.165  0.00  0.00    +0.000 C 
ATOM      7  C   UNL     1       2.185   3.219  18.795  0.00  0.00    +0.000 C 
ATOM      8  C   UNL     1       1.710   1.976  18.085  0.00  0.00    +0.000 C 
ATOM      9  C   UNL     1       2.818   2.819  17.490  0.00  0.00    +0.000 C 
ENDROOT
BRANCH   1  11
ATOM     10  N   UNL     1       5.410   5.813  19.248  0.00  0.00    +0.000 N 
ATOM     11  C   UNL     1       4.863   4.584  19.550  0.00  0.00    +0.000 C 
ATOM     12  O   UNL     1       5.486   3.535  19.385  0.00  0.00    +0.000 OA
ATOM     13  H   UNL     1       4.900   6.660  19.472  0.00  0.00    +0.000 HD
BRANCH  10  14
ATOM     14  C   UNL     1       6.761   5.945  18.714  0.00  0.00    +0.000 C 
BRANCH  14  16
ATOM     15  C   UNL     1       7.764   7.706  17.197  0.00  0.00    +0.000 C 
ATOM     16  C   UNL     1       6.829   6.481  17.258  0.00  0.00    +0.000 C 
ATOM     17  C   UNL     1       5.423   6.885  16.775  0.00  0.00    +0.000 C 
BRANCH  16  18
ATOM     18  C   UNL     1       7.398   5.335  16.368  0.00  0.00    +0.000 C 
BRANCH  18  19
ATOM     19  N   UNL     1       7.886   4.175  17.112  0.00  0.00    +0.000 NA
ATOM     20  H   UNL     1       8.366   4.482  17.957  0.00  0.00    +0.000 HD
ATOM     21  H   UNL     1       8.588   3.687  16.556  0.00  0.00    +0.000 HD
ENDBRANCH  18  19
ENDBRANCH  16  18
ENDBRANCH  14  16
ENDBRANCH  10  14
ENDBRANCH   1  11
BRANCH   2  22
ATOM     22  C   UNL     1       1.980   6.742  20.083  0.00  0.00    +0.000 C 
ATOM     23  O   UNL     1       1.546   6.691  21.234  0.00  0.00    +0.000 OA
ATOM     24  N   UNL     1       2.051   7.921  19.386  0.00  0.00    +0.000 N 
ATOM     25  H   UNL     1       2.267   7.909  18.398  0.00  0.00    +0.000 HD
BRANCH  24  26
ATOM     26  C   UNL     1       1.619   9.186  19.942  0.00  0.00    +0.000 C 
BRANCH  26  27
ATOM     27  C   UNL     1       0.342   9.676  19.298  0.00  0.00    +0.000 A 
ATOM     28  C   UNL     1      -0.563  10.483  20.006  0.00  0.00    +0.000 A 
ATOM     29  C   UNL     1      -1.716  10.976  19.388  0.00  0.00    +0.000 A 
ATOM     30  C   UNL     1      -1.976  10.657  18.056  0.00  0.00    +0.000 A 
ATOM     31 BR   UNL     1      -3.524  11.341  17.212  0.00  0.00    +0.000 Br
ATOM     32  C   UNL     1      -1.096   9.850  17.339  0.00  0.00    +0.000 A 
ATOM     33  C   UNL     1       0.061   9.364  17.959  0.00  0.00    +0.000 A 
ENDBRANCH  26  27
ENDBRANCH  24  26
ENDBRANCH   2  22
TORSDOF 8
ENDMDL
MODEL 6
REMARK VINA RESULT:      -7.3      1.628      2.082
REMARK  Name = 
REMARK  10 active torsions:
REMARK  status: ('A' for Active; 'I' for Inactive)
REMARK    1  A    between atoms: C_1  and  C_2
REMARK    2  A    between atoms: C_2  and  C_3
REMARK    3  A    between atoms: C_2  and  C_4
REMARK    4  A    between atoms: C_2  and  C_6
REMARK    5  A    between atoms: C_4  and  N_5
REMARK    6  A    between atoms: C_6  and  N_7
REMARK    7  A    between atoms: C_8  and  C_10
REMARK    8  A    between atoms: C_11  and  C_12
REMARK    9  A    between atoms: N_14  and  C_15
REMARK   10  A    between atoms: C_15  and  C_16
REMARK                            x       y       z     vdW  Elec       q    Type
REMARK                         _______ _______ _______ _____ _____    ______ ____
ROOT
ATOM      1  C   UNL     1       3.642   4.803  19.602  0.00  0.00    +0.000 C 
ATOM      2  C   UNL     1       2.535   5.569  18.788  0.00  0.00    +0.000 C 
ATOM      3  C   UNL     1       1.252   4.704  19.029  0.00  0.00    +0.000 C 
ATOM      4  C   UNL     1       0.884   4.742  20.510  0.00  0.00    +0.000 C 
ATOM      5  C   UNL     1       1.856   4.093  21.181  0.00  0.00    +0.000 C 
ATOM      6  C   UNL     1       2.850   3.567  20.145  0.00  0.00    +0.000 C 
ATOM      7  C   UNL     1       1.894   3.333  18.990  0.00  0.00    +0.000 C 
ATOM      8  C   UNL     1       1.120   2.052  18.808  0.00  0.00    +0.000 C 
ATOM      9  C   UNL     1       2.142   2.480  17.776  0.00  0.00    +0.000 C 
ENDROOT
BRANCH   1  11
ATOM     10  N   UNL     1       4.619   4.407  17.382  0.00  0.00    +0.000 N 
ATOM     11  C   UNL     1       4.815   4.339  18.745  0.00  0.00    +0.000 C 
ATOM     12  O   UNL     1       5.894   4.001  19.232  0.00  0.00    +0.000 OA
ATOM     13  H   UNL     1       3.744   4.766  17.016  0.00  0.00    +0.000 HD
BRANCH  10  14
ATOM     14  C   UNL     1       5.679   4.083  16.434  0.00  0.00    +0.000 C 
BRANCH  14  16
ATOM     15  C   UNL     1       5.193   6.386  15.505  0.00  0.00    +0.000 C 
ATOM     16  C   UNL     1       6.279   5.309  15.693  0.00  0.00    +0.000 C 
ATOM     17  C   UNL     1       6.822   4.883  14.315  0.00  0.00    +0.000 C 
BRANCH  16  18
ATOM     18  C   UNL     1       7.433   5.868  16.579  0.00  0.00    +0.000 C 
BRANCH  18  19
ATOM     19  N   UNL     1       6.992   6.720  17.682  0.00  0.00    +0.000 NA
ATOM     20  H   UNL     1       7.802   7.088  18.181  0.00  0.00    +0.000 HD
ATOM     21  H   UNL     1       6.481   6.157  18.362  0.00  0.00    +0.000 HD
ENDBRANCH  18  19
ENDBRANCH  16  18
ENDBRANCH  14  16
ENDBRANCH  10  14
ENDBRANCH   1  11
BRANCH   2  22
ATOM     22  C   UNL     1       2.418   7.050  19.135  0.00  0.00    +0.000 C 
ATOM     23  O   UNL     1       2.491   7.417  20.308  0.00  0.00    +0.000 OA
ATOM     24  N   UNL     1       2.207   7.937  18.110  0.00  0.00    +0.000 N 
ATOM     25  H   UNL     1       2.001   7.593  17.181  0.00  0.00    +0.000 HD
BRANCH  24  26
ATOM     26  C   UNL     1       2.048   9.359  18.326  0.00  0.00    +0.000 C 
BRANCH  26  27
ATOM     27  C   UNL     1       0.599   9.781  18.245  0.00  0.00    +0.000 A 
ATOM     28  C   UNL     1      -0.237   9.309  17.220  0.00  0.00    +0.000 A 
ATOM     29  C   UNL     1      -1.589   9.662  17.181  0.00  0.00    +0.000 A 
ATOM     30  C   UNL     1      -2.114  10.497  18.167  0.00  0.00    +0.000 A 
ATOM     31 BR   UNL     1      -3.948  10.957  18.129  0.00  0.00    +0.000 Br
ATOM     32  C   UNL     1      -1.300  10.983  19.188  0.00  0.00    +0.000 A 
ATOM     33  C   UNL     1       0.052  10.623  19.226  0.00  0.00    +0.000 A 
ENDBRANCH  26  27
ENDBRANCH  24  26
ENDBRANCH   2  22
TORSDOF 8
ENDMDL
MODEL 7
REMARK VINA RESULT:      -7.3      1.314      1.602
REMARK  Name = 
REMARK  10 active torsions:
REMARK  status: ('A' for Active; 'I' for Inactive)
REMARK    1  A    between atoms: C_1  and  C_2
REMARK    2  A    between atoms: C_2  and  C_3
REMARK    3  A    between atoms: C_2  and  C_4
REMARK    4  A    between atoms: C_2  and  C_6
REMARK    5  A    between atoms: C_4  and  N_5
REMARK    6  A    between atoms: C_6  and  N_7
REMARK    7  A    between atoms: C_8  and  C_10
REMARK    8  A    between atoms: C_11  and  C_12
REMARK    9  A    between atoms: N_14  and  C_15
REMARK   10  A    between atoms: C_15  and  C_16
REMARK                            x       y       z     vdW  Elec       q    Type
REMARK                         _______ _______ _______ _____ _____    ______ ____
ROOT
ATOM      1  C   UNL     1       3.879   4.922  19.256  0.00  0.00    +0.000 C 
ATOM      2  C   UNL     1       2.710   5.573  18.429  0.00  0.00    +0.000 C 
ATOM      3  C   UNL     1       1.436   4.850  18.983  0.00  0.00    +0.000 C 
ATOM      4  C   UNL     1       1.249   5.205  20.456  0.00  0.00    +0.000 C 
ATOM      5  C   UNL     1       2.271   4.646  21.134  0.00  0.00    +0.000 C 
ATOM      6  C   UNL     1       3.115   3.867  20.125  0.00  0.00    +0.000 C 
ATOM      7  C   UNL     1       2.019   3.464  19.155  0.00  0.00    +0.000 C 
ATOM      8  C   UNL     1       1.185   2.220  19.326  0.00  0.00    +0.000 C 
ATOM      9  C   UNL     1       2.090   2.373  18.122  0.00  0.00    +0.000 C 
ENDROOT
BRANCH   1  11
ATOM     10  N   UNL     1       4.598   4.098  17.055  0.00  0.00    +0.000 N 
ATOM     11  C   UNL     1       4.923   4.228  18.389  0.00  0.00    +0.000 C 
ATOM     12  O   UNL     1       6.019   3.878  18.829  0.00  0.00    +0.000 OA
ATOM     13  H   UNL     1       3.719   4.470  16.713  0.00  0.00    +0.000 HD
BRANCH  10  14
ATOM     14  C   UNL     1       5.532   3.538  16.085  0.00  0.00    +0.000 C 
BRANCH  14  16
ATOM     15  C   UNL     1       6.252   4.014  13.705  0.00  0.00    +0.000 C 
ATOM     16  C   UNL     1       6.180   4.583  15.136  0.00  0.00    +0.000 C 
ATOM     17  C   UNL     1       7.601   4.930  15.621  0.00  0.00    +0.000 C 
BRANCH  16  18
ATOM     18  C   UNL     1       5.277   5.852  15.158  0.00  0.00    +0.000 C 
BRANCH  18  19
ATOM     19  N   UNL     1       5.691   6.875  16.117  0.00  0.00    +0.000 NA
ATOM     20  H   UNL     1       6.195   6.442  16.890  0.00  0.00    +0.000 HD
ATOM     21  H   UNL     1       4.864   7.304  16.533  0.00  0.00    +0.000 HD
ENDBRANCH  18  19
ENDBRANCH  16  18
ENDBRANCH  14  16
ENDBRANCH  10  14
ENDBRANCH   1  11
BRANCH   2  22
ATOM     22  C   UNL     1       2.687   7.098  18.477  0.00  0.00    +0.000 C 
ATOM     23  O   UNL     1       3.357   7.751  17.676  0.00  0.00    +0.000 OA
ATOM     24  N   UNL     1       1.926   7.700  19.446  0.00  0.00    +0.000 N 
ATOM     25  H   UNL     1       1.511   7.141  20.180  0.00  0.00    +0.000 HD
BRANCH  24  26
ATOM     26  C   UNL     1       1.856   9.138  19.606  0.00  0.00    +0.000 C 
BRANCH  26  27
ATOM     27  C   UNL     1       0.502   9.681  19.212  0.00  0.00    +0.000 A 
ATOM     28  C   UNL     1      -0.276  10.417  20.120  0.00  0.00    +0.000 A 
ATOM     29  C   UNL     1      -1.504  10.961  19.732  0.00  0.00    +0.000 A 
ATOM     30  C   UNL     1      -1.966  10.766  18.431  0.00  0.00    +0.000 A 
ATOM     31 BR   UNL     1      -3.616  11.521  17.898  0.00  0.00    +0.000 Br
ATOM     32  C   UNL     1      -1.213  10.032  17.517  0.00  0.00    +0.000 A 
ATOM     33  C   UNL     1       0.018   9.494  17.908  0.00  0.00    +0.000 A 
ENDBRANCH  26  27
ENDBRANCH  24  26
ENDBRANCH   2  22
TORSDOF 8
ENDMDL
MODEL 8
REMARK VINA RESULT:      -7.2      3.368      7.542
REMARK  Name = 
REMARK  10 active torsions:
REMARK  status: ('A' for Active; 'I' for Inactive)
REMARK    1  A    between atoms: C_1  and  C_2
REMARK    2  A    between atoms: C_2  and  C_3
REMARK    3  A    between atoms: C_2  and  C_4
REMARK    4  A    between atoms: C_2  and  C_6
REMARK    5  A    between atoms: C_4  and  N_5
REMARK    6  A    between atoms: C_6  and  N_7
REMARK    7  A    between atoms: C_8  and  C_10
REMARK    8  A    between atoms: C_11  and  C_12
REMARK    9  A    between atoms: N_14  and  C_15
REMARK   10  A    between atoms: C_15  and  C_16
REMARK                            x       y       z     vdW  Elec       q    Type
REMARK                         _______ _______ _______ _____ _____    ______ ____
ROOT
ATOM      1  C   UNL     1       2.661   5.652  18.970  0.00  0.00    +0.000 C 
ATOM      2  C   UNL     1       3.890   4.804  19.467  0.00  0.00    +0.000 C 
ATOM      3  C   UNL     1       3.358   3.333  19.397  0.00  0.00    +0.000 C 
ATOM      4  C   UNL     1       3.067   2.965  17.944  0.00  0.00    +0.000 C 
ATOM      5  C   UNL     1       2.022   3.717  17.544  0.00  0.00    +0.000 C 
ATOM      6  C   UNL     1       1.573   4.549  18.745  0.00  0.00    +0.000 C 
ATOM      7  C   UNL     1       1.938   3.583  19.858  0.00  0.00    +0.000 C 
ATOM      8  C   UNL     1       1.012   2.497  20.342  0.00  0.00    +0.000 C 
ATOM      9  C   UNL     1       1.434   3.612  21.275  0.00  0.00    +0.000 C 
ENDROOT
BRANCH   1  11
ATOM     10  N   UNL     1       1.851   7.913  19.490  0.00  0.00    +0.000 N 
ATOM     11  C   UNL     1       2.171   6.670  19.994  0.00  0.00    +0.000 C 
ATOM     12  O   UNL     1       1.995   6.382  21.177  0.00  0.00    +0.000 OA
ATOM     13  H   UNL     1       1.933   8.090  18.495  0.00  0.00    +0.000 HD
BRANCH  10  14
ATOM     14  C   UNL     1       1.284   8.962  20.329  0.00  0.00    +0.000 C 
BRANCH  14  16
ATOM     15  C   UNL     1       1.203  11.460  19.929  0.00  0.00    +0.000 C 
ATOM     16  C   UNL     1       0.578  10.104  19.547  0.00  0.00    +0.000 C 
ATOM     17  C   UNL     1      -0.927  10.122  19.877  0.00  0.00    +0.000 C 
BRANCH  16  18
ATOM     18  C   UNL     1       0.795   9.828  18.029  0.00  0.00    +0.000 C 
BRANCH  18  19
ATOM     19  N   UNL     1       2.020  10.405  17.476  0.00  0.00    +0.000 NA
ATOM     20  H   UNL     1       2.763   9.707  17.477  0.00  0.00    +0.000 HD
ATOM     21  H   UNL     1       2.345  11.156  18.084  0.00  0.00    +0.000 HD
ENDBRANCH  18  19
ENDBRANCH  16  18
ENDBRANCH  14  16
ENDBRANCH  10  14
ENDBRANCH   1  11
BRANCH   2  22
ATOM     22  C   UNL     1       5.186   5.084  18.712  0.00  0.00    +0.000 C 
ATOM     23  O   UNL     1       6.260   4.685  19.162  0.00  0.00    +0.000 OA
ATOM     24  N   UNL     1       5.110   5.807  17.549  0.00  0.00    +0.000 N 
ATOM     25  H   UNL     1       4.239   6.249  17.287  0.00  0.00    +0.000 HD
BRANCH  24  26
ATOM     26  C   UNL     1       6.277   6.160  16.769  0.00  0.00    +0.000 C 
BRANCH  26  27
ATOM     27  C   UNL     1       6.380   5.333  15.508  0.00  0.00    +0.000 A 
ATOM     28  C   UNL     1       5.409   4.369  15.192  0.00  0.00    +0.000 A 
ATOM     29  C   UNL     1       5.483   3.645  13.999  0.00  0.00    +0.000 A 
ATOM     30  C   UNL     1       6.535   3.877  13.113  0.00  0.00    +0.000 A 
ATOM     31 BR   UNL     1       6.622   2.915  11.488  0.00  0.00    +0.000 Br
ATOM     32  C   UNL     1       7.512   4.824  13.411  0.00  0.00    +0.000 A 
ATOM     33  C   UNL     1       7.433   5.550  14.605  0.00  0.00    +0.000 A 
ENDBRANCH  26  27
ENDBRANCH  24  26
ENDBRANCH   2  22
TORSDOF 8
ENDMDL
MODEL 9
REMARK VINA RESULT:      -7.2      1.474      1.987
REMARK  Name = 
REMARK  10 active torsions:
REMARK  status: ('A' for Active; 'I' for Inactive)
REMARK    1  A    between atoms: C_1  and  C_2
REMARK    2  A    between atoms: C_2  and  C_3
REMARK    3  A    between atoms: C_2  and  C_4
REMARK    4  A    between atoms: C_2  and  C_6
REMARK    5  A    between atoms: C_4  and  N_5
REMARK    6  A    between atoms: C_6  and  N_7
REMARK    7  A    between atoms: C_8  and  C_10
REMARK    8  A    between atoms: C_11  and  C_12
REMARK    9  A    between atoms: N_14  and  C_15
REMARK   10  A    between atoms: C_15  and  C_16
REMARK                            x       y       z     vdW  Elec       q    Type
REMARK                         _______ _______ _______ _____ _____    ______ ____
ROOT
ATOM      1  C   UNL     1       3.836   4.964  19.339  0.00  0.00    +0.000 C 
ATOM      2  C   UNL     1       2.689   5.646  18.507  0.00  0.00    +0.000 C 
ATOM      3  C   UNL     1       1.400   4.908  19.006  0.00  0.00    +0.000 C 
ATOM      4  C   UNL     1       1.180   5.214  20.485  0.00  0.00    +0.000 C 
ATOM      5  C   UNL     1       2.185   4.630  21.168  0.00  0.00    +0.000 C 
ATOM      6  C   UNL     1       3.050   3.882  20.153  0.00  0.00    +0.000 C 
ATOM      7  C   UNL     1       1.977   3.515  19.144  0.00  0.00    +0.000 C 
ATOM      8  C   UNL     1       1.136   2.269  19.253  0.00  0.00    +0.000 C 
ATOM      9  C   UNL     1       2.070   2.460  18.077  0.00  0.00    +0.000 C 
ENDROOT
BRANCH   1  11
ATOM     10  N   UNL     1       4.640   4.279  17.119  0.00  0.00    +0.000 N 
ATOM     11  C   UNL     1       4.900   4.296  18.473  0.00  0.00    +0.000 C 
ATOM     12  O   UNL     1       5.958   3.872  18.938  0.00  0.00    +0.000 OA
ATOM     13  H   UNL     1       3.794   4.710  16.763  0.00  0.00    +0.000 HD
BRANCH  10  14
ATOM     14  C   UNL     1       5.603   3.758  16.156  0.00  0.00    +0.000 C 
BRANCH  14  16
ATOM     15  C   UNL     1       5.239   6.081  15.220  0.00  0.00    +0.000 C 
ATOM     16  C   UNL     1       5.941   4.728  14.991  0.00  0.00    +0.000 C 
ATOM     17  C   UNL     1       5.475   4.130  13.650  0.00  0.00    +0.000 C 
BRANCH  16  18
ATOM     18  C   UNL     1       7.486   4.927  14.987  0.00  0.00    +0.000 C 
BRANCH  18  19
ATOM     19  N   UNL     1       8.014   5.557  13.777  0.00  0.00    +0.000 NA
ATOM     20  H   UNL     1       8.017   4.886  13.010  0.00  0.00    +0.000 HD
ATOM     21  H   UNL     1       8.990   5.811  13.926  0.00  0.00    +0.000 HD
ENDBRANCH  18  19
ENDBRANCH  16  18
ENDBRANCH  14  16
ENDBRANCH  10  14
ENDBRANCH   1  11
BRANCH   2  22
ATOM     22  C   UNL     1       2.668   7.169  18.606  0.00  0.00    +0.000 C 
ATOM     23  O   UNL     1       3.382   7.845  17.866  0.00  0.00    +0.000 OA
ATOM     24  N   UNL     1       1.858   7.741  19.553  0.00  0.00    +0.000 N 
ATOM     25  H   UNL     1       1.401   7.160  20.243  0.00  0.00    +0.000 HD
BRANCH  24  26
ATOM     26  C   UNL     1       1.783   9.172  19.758  0.00  0.00    +0.000 C 
BRANCH  26  27
ATOM     27  C   UNL     1       0.488   9.748  19.233  0.00  0.00    +0.000 A 
ATOM     28  C   UNL     1       0.035   9.449  17.938  0.00  0.00    +0.000 A 
ATOM     29  C   UNL     1      -1.189   9.943  17.478  0.00  0.00    +0.000 A 
ATOM     30  C   UNL     1      -1.967  10.747  18.310  0.00  0.00    +0.000 A 
ATOM     31 BR   UNL     1      -3.634  11.397  17.697  0.00  0.00    +0.000 Br
ATOM     32  C   UNL     1      -1.532  11.062  19.595  0.00  0.00    +0.000 A 
ATOM     33  C   UNL     1      -0.308  10.562  20.054  0.00  0.00    +0.000 A 
ENDBRANCH  26  27
ENDBRANCH  24  26
ENDBRANCH   2  22
TORSDOF 8
ENDMDL
