MODEL 1
REMARK VINA RESULT:      -8.0      0.000      0.000
REMARK  Name = 
REMARK  7 active torsions:
REMARK  status: ('A' for Active; 'I' for Inactive)
REMARK    1  A    between atoms: C_1  and  C_2
REMARK    2  A    between atoms: C_2  and  C_3
REMARK    3  A    between atoms: C_2  and  C_4
REMARK    4  A    between atoms: C_2  and  C_5
REMARK    5  A    between atoms: N_8  and  C_9
REMARK    6  A    between atoms: C_18  and  C_19
REMARK    7  A    between atoms: C_19  and  C_20
REMARK                            x       y       z     vdW  Elec       q    Type
REMARK                         _______ _______ _______ _____ _____    ______ ____
ROOT
ATOM      1  C   UNL     1       0.530   9.474  20.252  0.00  0.00    +0.000 A 
ATOM      2  N   UNL     1      -0.351  10.326  19.599  0.00  0.00    +0.000 NA
ATOM      3  C   UNL     1      -0.227  10.301  18.299  0.00  0.00    +0.000 A 
ATOM      4  N   UNL     1      -1.019  10.981  17.437  0.00  0.00    +0.000 N 
ATOM      5  S   UNL     1       1.062   9.315  17.754  0.00  0.00    +0.000 S 
ATOM      6  C   UNL     1       1.382   8.796  19.380  0.00  0.00    +0.000 A 
ATOM      7  H   UNL     1      -0.757  10.998  16.459  0.00  0.00    +0.000 HD
ENDROOT
BRANCH   4   8
ATOM      8  C   UNL     1      -2.375  11.291  17.680  0.00  0.00    +0.000 A 
ATOM      9  C   UNL     1      -3.395  10.988  16.765  0.00  0.00    +0.000 A 
ATOM     10  C   UNL     1      -4.733  11.275  17.043  0.00  0.00    +0.000 A 
ATOM     11  C   UNL     1      -5.080  11.856  18.261  0.00  0.00    +0.000 A 
ATOM     12 CL   UNL     1      -6.751  12.195  18.541  0.00  0.00    +0.000 Cl
ATOM     13  C   UNL     1      -4.085  12.144  19.199  0.00  0.00    +0.000 A 
ATOM     14 CL   UNL     1      -4.439  12.838  20.739  0.00  0.00    +0.000 Cl
ATOM     15  C   UNL     1      -2.739  11.862  18.905  0.00  0.00    +0.000 A 
ENDBRANCH   4   8
BRANCH   1  17
ATOM     16  C   UNL     1      -0.622   8.247  22.091  0.00  0.00    +0.000 C 
ATOM     17  C   UNL     1       0.318   9.436  21.767  0.00  0.00    +0.000 C 
ATOM     18  C   UNL     1      -0.383  10.734  22.235  0.00  0.00    +0.000 C 
ATOM     19  C   UNL     1       1.589   9.273  22.604  0.00  0.00    +0.000 C 
ENDBRANCH   1  17
BRANCH   6  20
ATOM     20  C   UNL     1       2.491   7.800  19.587  0.00  0.00    +0.000 C 
BRANCH  20  21
ATOM     21  C   UNL     1       2.136   6.323  19.519  0.00  0.00    +0.000 A 
ATOM     22  C   UNL     1       1.653   5.575  20.619  0.00  0.00    +0.000 A 
ATOM     23  C   UNL     1       1.500   4.184  20.538  0.00  0.00    +0.000 A 
ATOM     24  C   UNL     1       1.826   3.566  19.353  0.00  0.00    +0.000 A 
ATOM     25  C   UNL     1       2.225   4.287  18.253  0.00  0.00    +0.000 A 
ATOM     26  C   UNL     1       2.359   5.659  18.295  0.00  0.00    +0.000 A 
ATOM     27  O   UNL     1       2.509   3.492  17.187  0.00  0.00    +0.000 OA
ATOM     28  C   UNL     1       2.429   2.190  17.804  0.00  0.00    +0.000 C 
ATOM     29  O   UNL     1       1.834   2.226  19.120  0.00  0.00    +0.000 OA
ENDBRANCH  20  21
ENDBRANCH   6  20
TORSDOF 4
ENDMDL
MODEL 2
REMARK VINA RESULT:      -7.7      5.736      9.179
REMARK  Name = 
REMARK  7 active torsions:
REMARK  status: ('A' for Active; 'I' for Inactive)
REMARK    1  A    between atoms: C_1  and  C_2
REMARK    2  A    between atoms: C_2  and  C_3
REMARK    3  A    between atoms: C_2  and  C_4
REMARK    4  A    between atoms: C_2  and  C_5
REMARK    5  A    between atoms: N_8  and  C_9
REMARK    6  A    between atoms: C_18  and  C_19
REMARK    7  A    between atoms: C_19  and  C_20
REMARK                            x       y       z     vdW  Elec       q    Type
REMARK                         _______ _______ _______ _____ _____    ______ ____
ROOT
ATOM      1  C   UNL     1      -0.285  10.462  20.390  0.00  0.00    +0.000 A 
ATOM      2  N   UNL     1       0.638   9.444  20.183  0.00  0.00    +0.000 NA
ATOM      3  C   UNL     1       1.014   8.854  21.286  0.00  0.00    +0.000 A 
ATOM      4  N   UNL     1       1.844   7.786  21.344  0.00  0.00    +0.000 N 
ATOM      5  S   UNL     1       0.361   9.567  22.699  0.00  0.00    +0.000 S 
ATOM      6  C   UNL     1      -0.587  10.658  21.738  0.00  0.00    +0.000 A 
ATOM      7  H   UNL     1       2.177   7.488  22.252  0.00  0.00    +0.000 HD
ENDROOT
BRANCH   4   8
ATOM      8  C   UNL     1       1.939   6.800  20.338  0.00  0.00    +0.000 A 
ATOM      9  C   UNL     1       2.529   7.049  19.089  0.00  0.00    +0.000 A 
ATOM     10  C   UNL     1       2.641   6.047  18.123  0.00  0.00    +0.000 A 
ATOM     11  C   UNL     1       2.180   4.761  18.398  0.00  0.00    +0.000 A 
ATOM     12 CL   UNL     1       2.338   3.569  17.158  0.00  0.00    +0.000 Cl
ATOM     13  C   UNL     1       1.612   4.482  19.644  0.00  0.00    +0.000 A 
ATOM     14 CL   UNL     1       1.044   2.909  20.069  0.00  0.00    +0.000 Cl
ATOM     15  C   UNL     1       1.493   5.500  20.607  0.00  0.00    +0.000 A 
ENDBRANCH   4   8
BRANCH   1  17
ATOM     16  C   UNL     1      -0.797   9.986  17.998  0.00  0.00    +0.000 C 
ATOM     17  C   UNL     1      -0.793  11.086  19.089  0.00  0.00    +0.000 C 
ATOM     18  C   UNL     1       0.172  12.205  18.628  0.00  0.00    +0.000 C 
ATOM     19  C   UNL     1      -2.198  11.689  19.156  0.00  0.00    +0.000 C 
ENDBRANCH   1  17
BRANCH   6  20
ATOM     20  C   UNL     1      -1.492  11.618  22.463  0.00  0.00    +0.000 C 
BRANCH  20  21
ATOM     21  C   UNL     1      -1.024  13.057  22.610  0.00  0.00    +0.000 A 
ATOM     22  C   UNL     1       0.024  13.628  21.850  0.00  0.00    +0.000 A 
ATOM     23  C   UNL     1       0.519  14.906  22.144  0.00  0.00    +0.000 A 
ATOM     24  C   UNL     1      -0.051  15.594  23.190  0.00  0.00    +0.000 A 
ATOM     25  C   UNL     1      -1.119  15.084  23.889  0.00  0.00    +0.000 A 
ATOM     26  C   UNL     1      -1.644  13.841  23.605  0.00  0.00    +0.000 A 
ATOM     27  O   UNL     1      -1.529  15.911  24.888  0.00  0.00    +0.000 OA
ATOM     28  C   UNL     1      -0.477  16.900  24.855  0.00  0.00    +0.000 C 
ATOM     29  O   UNL     1       0.357  16.796  23.681  0.00  0.00    +0.000 OA
ENDBRANCH  20  21
ENDBRANCH   6  20
TORSDOF 4
ENDMDL
MODEL 3
REMARK VINA RESULT:      -7.6      5.427      8.897
REMARK  Name = 
REMARK  7 active torsions:
REMARK  status: ('A' for Active; 'I' for Inactive)
REMARK    1  A    between atoms: C_1  and  C_2
REMARK    2  A    between atoms: C_2  and  C_3
REMARK    3  A    between atoms: C_2  and  C_4
REMARK    4  A    between atoms: C_2  and  C_5
REMARK    5  A    between atoms: N_8  and  C_9
REMARK    6  A    between atoms: C_18  and  C_19
REMARK    7  A    between atoms: C_19  and  C_20
REMARK                            x       y       z     vdW  Elec       q    Type
REMARK                         _______ _______ _______ _____ _____    ______ ____
ROOT
ATOM      1  C   UNL     1      -0.299  10.425  20.284  0.00  0.00    +0.000 A 
ATOM      2  N   UNL     1       0.630   9.408  20.106  0.00  0.00    +0.000 NA
ATOM      3  C   UNL     1       1.010   8.852  21.225  0.00  0.00    +0.000 A 
ATOM      4  N   UNL     1       1.847   7.791  21.313  0.00  0.00    +0.000 N 
ATOM      5  S   UNL     1       0.352   9.600  22.618  0.00  0.00    +0.000 S 
ATOM      6  C   UNL     1      -0.604  10.657  21.626  0.00  0.00    +0.000 A 
ATOM      7  H   UNL     1       2.182   7.522  22.229  0.00  0.00    +0.000 HD
ENDROOT
BRANCH   4   8
ATOM      8  C   UNL     1       1.949   6.778  20.335  0.00  0.00    +0.000 A 
ATOM      9  C   UNL     1       2.545   6.994  19.083  0.00  0.00    +0.000 A 
ATOM     10  C   UNL     1       2.663   5.965  18.145  0.00  0.00    +0.000 A 
ATOM     11  C   UNL     1       2.203   4.687  18.454  0.00  0.00    +0.000 A 
ATOM     12 CL   UNL     1       2.370   3.461  17.247  0.00  0.00    +0.000 Cl
ATOM     13  C   UNL     1       1.628   4.441  19.704  0.00  0.00    +0.000 A 
ATOM     14 CL   UNL     1       1.061   2.880  20.169  0.00  0.00    +0.000 Cl
ATOM     15  C   UNL     1       1.503   5.485  20.637  0.00  0.00    +0.000 A 
ENDBRANCH   4   8
BRANCH   1  17
ATOM     16  C   UNL     1      -0.445  10.022  17.829  0.00  0.00    +0.000 C 
ATOM     17  C   UNL     1      -0.812  11.009  18.967  0.00  0.00    +0.000 C 
ATOM     18  C   UNL     1      -0.103  12.353  18.673  0.00  0.00    +0.000 C 
ATOM     19  C   UNL     1      -2.320  11.261  18.903  0.00  0.00    +0.000 C 
ENDBRANCH   1  17
BRANCH   6  20
ATOM     20  C   UNL     1      -1.515  11.631  22.324  0.00  0.00    +0.000 C 
BRANCH  20  21
ATOM     21  C   UNL     1      -1.362  13.106  21.990  0.00  0.00    +0.000 A 
ATOM     22  C   UNL     1      -2.403  13.909  21.465  0.00  0.00    +0.000 A 
ATOM     23  C   UNL     1      -2.157  15.217  21.025  0.00  0.00    +0.000 A 
ATOM     24  C   UNL     1      -0.874  15.701  21.126  0.00  0.00    +0.000 A 
ATOM     25  C   UNL     1       0.131  14.961  21.702  0.00  0.00    +0.000 A 
ATOM     26  C   UNL     1      -0.087  13.682  22.168  0.00  0.00    +0.000 A 
ATOM     27  O   UNL     1       1.324  15.613  21.697  0.00  0.00    +0.000 OA
ATOM     28  C   UNL     1       0.993  16.758  20.882  0.00  0.00    +0.000 C 
ATOM     29  O   UNL     1      -0.429  16.902  20.665  0.00  0.00    +0.000 OA
ENDBRANCH  20  21
ENDBRANCH   6  20
TORSDOF 4
ENDMDL
MODEL 4
REMARK VINA RESULT:      -7.6      0.665      1.290
REMARK  Name = 
REMARK  7 active torsions:
REMARK  status: ('A' for Active; 'I' for Inactive)
REMARK    1  A    between atoms: C_1  and  C_2
REMARK    2  A    between atoms: C_2  and  C_3
REMARK    3  A    between atoms: C_2  and  C_4
REMARK    4  A    between atoms: C_2  and  C_5
REMARK    5  A    between atoms: N_8  and  C_9
REMARK    6  A    between atoms: C_18  and  C_19
REMARK    7  A    between atoms: C_19  and  C_20
REMARK                            x       y       z     vdW  Elec       q    Type
REMARK                         _______ _______ _______ _____ _____    ______ ____
ROOT
ATOM      1  C   UNL     1       0.561   9.461  20.308  0.00  0.00    +0.000 A 
ATOM      2  N   UNL     1      -0.341  10.245  19.600  0.00  0.00    +0.000 NA
ATOM      3  C   UNL     1      -0.175  10.186  18.306  0.00  0.00    +0.000 A 
ATOM      4  N   UNL     1      -0.972  10.796  17.398  0.00  0.00    +0.000 N 
ATOM      5  S   UNL     1       1.181   9.252  17.834  0.00  0.00    +0.000 S 
ATOM      6  C   UNL     1       1.475   8.802  19.485  0.00  0.00    +0.000 A 
ATOM      7  H   UNL     1      -0.680  10.797  16.430  0.00  0.00    +0.000 HD
ENDROOT
BRANCH   4   8
ATOM      8  C   UNL     1      -2.349  11.042  17.590  0.00  0.00    +0.000 A 
ATOM      9  C   UNL     1      -3.333  10.543  16.723  0.00  0.00    +0.000 A 
ATOM     10  C   UNL     1      -4.692  10.772  16.953  0.00  0.00    +0.000 A 
ATOM     11  C   UNL     1      -5.095  11.493  18.075  0.00  0.00    +0.000 A 
ATOM     12 CL   UNL     1      -6.788  11.751  18.298  0.00  0.00    +0.000 Cl
ATOM     13  C   UNL     1      -4.134  11.980  18.967  0.00  0.00    +0.000 A 
ATOM     14 CL   UNL     1      -4.556  12.857  20.391  0.00  0.00    +0.000 Cl
ATOM     15  C   UNL     1      -2.769  11.753  18.721  0.00  0.00    +0.000 A 
ENDBRANCH   4   8
BRANCH   1  17
ATOM     16  C   UNL     1      -0.664   8.292  22.137  0.00  0.00    +0.000 C 
ATOM     17  C   UNL     1       0.303   9.460  21.816  0.00  0.00    +0.000 C 
ATOM     18  C   UNL     1      -0.393  10.777  22.234  0.00  0.00    +0.000 C 
ATOM     19  C   UNL     1       1.545   9.297  22.694  0.00  0.00    +0.000 C 
ENDBRANCH   1  17
BRANCH   6  20
ATOM     20  C   UNL     1       2.626   7.872  19.758  0.00  0.00    +0.000 C 
BRANCH  20  21
ATOM     21  C   UNL     1       2.511   6.440  19.261  0.00  0.00    +0.000 A 
ATOM     22  C   UNL     1       3.021   5.992  18.019  0.00  0.00    +0.000 A 
ATOM     23  C   UNL     1       2.742   4.704  17.543  0.00  0.00    +0.000 A 
ATOM     24  C   UNL     1       1.963   3.882  18.324  0.00  0.00    +0.000 A 
ATOM     25  C   UNL     1       1.523   4.276  19.565  0.00  0.00    +0.000 A 
ATOM     26  C   UNL     1       1.804   5.527  20.070  0.00  0.00    +0.000 A 
ATOM     27  O   UNL     1       0.761   3.326  20.171  0.00  0.00    +0.000 OA
ATOM     28  C   UNL     1       0.617   2.379  19.091  0.00  0.00    +0.000 C 
ATOM     29  O   UNL     1       1.510   2.644  17.987  0.00  0.00    +0.000 OA
ENDBRANCH  20  21
ENDBRANCH   6  20
TORSDOF 4
ENDMDL
MODEL 5
REMARK VINA RESULT:      -7.6      5.692      9.171
REMARK  Name = 
REMARK  7 active torsions:
REMARK  status: ('A' for Active; 'I' for Inactive)
REMARK    1  A    between atoms: C_1  and  C_2
REMARK    2  A    between atoms: C_2  and  C_3
REMARK    3  A    between atoms: C_2  and  C_4
REMARK    4  A    between atoms: C_2  and  C_5
REMARK    5  A    between atoms: N_8  and  C_9
REMARK    6  A    between atoms: C_18  and  C_19
REMARK    7  A    between atoms: C_19  and  C_20
REMARK                            x       y       z     vdW  Elec       q    Type
REMARK                         _______ _______ _______ _____ _____    ______ ____
ROOT
ATOM      1  C   UNL     1      -0.294  10.405  20.318  0.00  0.00    +0.000 A 
ATOM      2  N   UNL     1       0.634   9.389  20.125  0.00  0.00    +0.000 NA
ATOM      3  C   UNL     1       1.012   8.815  21.235  0.00  0.00    +0.000 A 
ATOM      4  N   UNL     1       1.847   7.751  21.307  0.00  0.00    +0.000 N 
ATOM      5  S   UNL     1       0.355   9.542  22.639  0.00  0.00    +0.000 S 
ATOM      6  C   UNL     1      -0.599  10.617  21.663  0.00  0.00    +0.000 A 
ATOM      7  H   UNL     1       2.181   7.467  22.218  0.00  0.00    +0.000 HD
ENDROOT
BRANCH   4   8
ATOM      8  C   UNL     1       1.948   6.753  20.314  0.00  0.00    +0.000 A 
ATOM      9  C   UNL     1       2.562   6.982  19.072  0.00  0.00    +0.000 A 
ATOM     10  C   UNL     1       2.678   5.968  18.118  0.00  0.00    +0.000 A 
ATOM     11  C   UNL     1       2.198   4.691  18.400  0.00  0.00    +0.000 A 
ATOM     12 CL   UNL     1       2.364   3.484  17.175  0.00  0.00    +0.000 Cl
ATOM     13  C   UNL     1       1.605   4.432  19.639  0.00  0.00    +0.000 A 
ATOM     14 CL   UNL     1       1.012   2.870  20.071  0.00  0.00    +0.000 Cl
ATOM     15  C   UNL     1       1.482   5.462  20.588  0.00  0.00    +0.000 A 
ENDBRANCH   4   8
BRANCH   1  17
ATOM     16  C   UNL     1      -0.545   9.988  17.874  0.00  0.00    +0.000 C 
ATOM     17  C   UNL     1      -0.804  11.010  19.009  0.00  0.00    +0.000 C 
ATOM     18  C   UNL     1      -0.011  12.297  18.677  0.00  0.00    +0.000 C 
ATOM     19  C   UNL     1      -2.292  11.369  18.989  0.00  0.00    +0.000 C 
ENDBRANCH   1  17
BRANCH   6  20
ATOM     20  C   UNL     1      -1.509  11.581  22.375  0.00  0.00    +0.000 C 
BRANCH  20  21
ATOM     21  C   UNL     1      -1.286  13.067  22.143  0.00  0.00    +0.000 A 
ATOM     22  C   UNL     1      -0.010  13.676  22.098  0.00  0.00    +0.000 A 
ATOM     23  C   UNL     1       0.126  15.070  22.045  0.00  0.00    +0.000 A 
ATOM     24  C   UNL     1      -1.020  15.830  22.031  0.00  0.00    +0.000 A 
ATOM     25  C   UNL     1      -2.266  15.251  22.000  0.00  0.00    +0.000 A 
ATOM     26  C   UNL     1      -2.430  13.882  22.023  0.00  0.00    +0.000 A 
ATOM     27  O   UNL     1      -3.267  16.172  21.999  0.00  0.00    +0.000 OA
ATOM     28  C   UNL     1      -2.510  17.380  22.228  0.00  0.00    +0.000 C 
ATOM     29  O   UNL     1      -1.086  17.188  22.079  0.00  0.00    +0.000 OA
ENDBRANCH  20  21
ENDBRANCH   6  20
TORSDOF 4
ENDMDL
MODEL 6
REMARK VINA RESULT:      -7.5      3.899      5.776
REMARK  Name = 
REMARK  7 active torsions:
REMARK  status: ('A' for Active; 'I' for Inactive)
REMARK    1  A    between atoms: C_1  and  C_2
REMARK    2  A    between atoms: C_2  and  C_3
REMARK    3  A    between atoms: C_2  and  C_4
REMARK    4  A    between atoms: C_2  and  C_5
REMARK    5  A    between atoms: N_8  and  C_9
REMARK    6  A    between atoms: C_18  and  C_19
REMARK    7  A    between atoms: C_19  and  C_20
REMARK                            x       y       z     vdW  Elec       q    Type
REMARK                         _______ _______ _______ _____ _____    ______ ____
ROOT
ATOM      1  C   UNL     1       2.591   5.167  18.731  0.00  0.00    +0.000 A 
ATOM      2  N   UNL     1       2.239   6.481  19.013  0.00  0.00    +0.000 NA
ATOM      3  C   UNL     1       2.862   7.355  18.268  0.00  0.00    +0.000 A 
ATOM      4  N   UNL     1       2.638   8.690  18.296  0.00  0.00    +0.000 N 
ATOM      5  S   UNL     1       4.029   6.657  17.227  0.00  0.00    +0.000 S 
ATOM      6  C   UNL     1       3.561   5.063  17.734  0.00  0.00    +0.000 A 
ATOM      7  H   UNL     1       3.265   9.290  17.776  0.00  0.00    +0.000 HD
ENDROOT
BRANCH   4   8
ATOM      8  C   UNL     1       1.393   9.279  18.606  0.00  0.00    +0.000 A 
ATOM      9  C   UNL     1       1.122   9.857  19.856  0.00  0.00    +0.000 A 
ATOM     10  C   UNL     1      -0.107  10.463  20.128  0.00  0.00    +0.000 A 
ATOM     11  C   UNL     1      -1.086  10.522  19.139  0.00  0.00    +0.000 A 
ATOM     12 CL   UNL     1      -2.587  11.277  19.540  0.00  0.00    +0.000 Cl
ATOM     13  C   UNL     1      -0.831   9.976  17.878  0.00  0.00    +0.000 A 
ATOM     14 CL   UNL     1      -1.982  10.035  16.594  0.00  0.00    +0.000 Cl
ATOM     15  C   UNL     1       0.405   9.357  17.617  0.00  0.00    +0.000 A 
ENDBRANCH   4   8
BRANCH   1  17
ATOM     16  C   UNL     1       2.786   3.328  20.402  0.00  0.00    +0.000 C 
ATOM     17  C   UNL     1       1.791   4.144  19.540  0.00  0.00    +0.000 C 
ATOM     18  C   UNL     1       1.075   3.159  18.585  0.00  0.00    +0.000 C 
ATOM     19  C   UNL     1       0.730   4.731  20.474  0.00  0.00    +0.000 C 
ENDBRANCH   1  17
BRANCH   6  20
ATOM     20  C   UNL     1       4.264   3.895  17.096  0.00  0.00    +0.000 C 
BRANCH  20  21
ATOM     21  C   UNL     1       5.445   4.192  16.186  0.00  0.00    +0.000 A 
ATOM     22  C   UNL     1       6.586   4.926  16.588  0.00  0.00    +0.000 A 
ATOM     23  C   UNL     1       7.566   5.307  15.662  0.00  0.00    +0.000 A 
ATOM     24  C   UNL     1       7.390   4.940  14.348  0.00  0.00    +0.000 A 
ATOM     25  C   UNL     1       6.325   4.165  13.955  0.00  0.00    +0.000 A 
ATOM     26  C   UNL     1       5.361   3.752  14.849  0.00  0.00    +0.000 A 
ATOM     27  O   UNL     1       6.327   3.920  12.617  0.00  0.00    +0.000 OA
ATOM     28  C   UNL     1       7.400   4.789  12.195  0.00  0.00    +0.000 C 
ATOM     29  O   UNL     1       8.179   5.300  13.299  0.00  0.00    +0.000 OA
ENDBRANCH  20  21
ENDBRANCH   6  20
TORSDOF 4
ENDMDL
MODEL 7
REMARK VINA RESULT:      -7.5      5.237      8.708
REMARK  Name = 
REMARK  7 active torsions:
REMARK  status: ('A' for Active; 'I' for Inactive)
REMARK    1  A    between atoms: C_1  and  C_2
REMARK    2  A    between atoms: C_2  and  C_3
REMARK    3  A    between atoms: C_2  and  C_4
REMARK    4  A    between atoms: C_2  and  C_5
REMARK    5  A    between atoms: N_8  and  C_9
REMARK    6  A    between atoms: C_18  and  C_19
REMARK    7  A    between atoms: C_19  and  C_20
REMARK                            x       y       z     vdW  Elec       q    Type
REMARK                         _______ _______ _______ _____ _____    ______ ____
ROOT
ATOM      1  C   UNL     1       0.638  10.833  20.357  0.00  0.00    +0.000 A 
ATOM      2  N   UNL     1       1.293   9.610  20.282  0.00  0.00    +0.000 NA
ATOM      3  C   UNL     1       1.221   8.916  21.386  0.00  0.00    +0.000 A 
ATOM      4  N   UNL     1       1.710   7.663  21.541  0.00  0.00    +0.000 N 
ATOM      5  S   UNL     1       0.442   9.746  22.666  0.00  0.00    +0.000 S 
ATOM      6  C   UNL     1       0.072  11.073  21.609  0.00  0.00    +0.000 A 
ATOM      7  H   UNL     1       1.721   7.267  22.472  0.00  0.00    +0.000 HD
ENDROOT
BRANCH   4   8
ATOM      8  C   UNL     1       1.797   6.711  20.503  0.00  0.00    +0.000 A 
ATOM      9  C   UNL     1       2.365   7.005  19.254  0.00  0.00    +0.000 A 
ATOM     10  C   UNL     1       2.470   6.036  18.253  0.00  0.00    +0.000 A 
ATOM     11  C   UNL     1       2.023   4.738  18.494  0.00  0.00    +0.000 A 
ATOM     12 CL   UNL     1       2.172   3.588  17.214  0.00  0.00    +0.000 Cl
ATOM     13  C   UNL     1       1.477   4.414  19.739  0.00  0.00    +0.000 A 
ATOM     14 CL   UNL     1       0.928   2.823  20.122  0.00  0.00    +0.000 Cl
ATOM     15  C   UNL     1       1.365   5.399  20.736  0.00  0.00    +0.000 A 
ENDBRANCH   4   8
BRANCH   1  17
ATOM     16  C   UNL     1      -0.602  11.167  18.221  0.00  0.00    +0.000 C 
ATOM     17  C   UNL     1       0.645  11.600  19.034  0.00  0.00    +0.000 C 
ATOM     18  C   UNL     1       1.900  11.224  18.211  0.00  0.00    +0.000 C 
ATOM     19  C   UNL     1       0.617  13.125  19.159  0.00  0.00    +0.000 C 
ENDBRANCH   1  17
BRANCH   6  20
ATOM     20  C   UNL     1      -0.709  12.224  22.185  0.00  0.00    +0.000 C 
BRANCH  20  21
ATOM     21  C   UNL     1      -2.195  12.299  21.868  0.00  0.00    +0.000 A 
ATOM     22  C   UNL     1      -2.715  12.492  20.567  0.00  0.00    +0.000 A 
ATOM     23  C   UNL     1      -4.083  12.718  20.359  0.00  0.00    +0.000 A 
ATOM     24  C   UNL     1      -4.908  12.738  21.460  0.00  0.00    +0.000 A 
ATOM     25  C   UNL     1      -4.429  12.478  22.722  0.00  0.00    +0.000 A 
ATOM     26  C   UNL     1      -3.093  12.227  22.952  0.00  0.00    +0.000 A 
ATOM     27  O   UNL     1      -5.399  12.556  23.671  0.00  0.00    +0.000 OA
ATOM     28  C   UNL     1      -6.491  13.081  22.886  0.00  0.00    +0.000 C 
ATOM     29  O   UNL     1      -6.235  13.035  21.465  0.00  0.00    +0.000 OA
ENDBRANCH  20  21
ENDBRANCH   6  20
TORSDOF 4
ENDMDL
MODEL 8
REMARK VINA RESULT:      -7.3      2.398      3.836
REMARK  Name = 
REMARK  7 active torsions:
REMARK  status: ('A' for Active; 'I' for Inactive)
REMARK    1  A    between atoms: C_1  and  C_2
REMARK    2  A    between atoms: C_2  and  C_3
REMARK    3  A    between atoms: C_2  and  C_4
REMARK    4  A    between atoms: C_2  and  C_5
REMARK    5  A    between atoms: N_8  and  C_9
REMARK    6  A    between atoms: C_18  and  C_19
REMARK    7  A    between atoms: C_19  and  C_20
REMARK                            x       y       z     vdW  Elec       q    Type
REMARK                         _______ _______ _______ _____ _____    ______ ____
ROOT
ATOM      1  C   UNL     1       0.541   9.540  19.985  0.00  0.00    +0.000 A 
ATOM      2  N   UNL     1      -0.384  10.209  20.776  0.00  0.00    +0.000 NA
ATOM      3  C   UNL     1      -0.339   9.860  22.034  0.00  0.00    +0.000 A 
ATOM      4  N   UNL     1      -1.083  10.420  23.016  0.00  0.00    +0.000 N 
ATOM      5  S   UNL     1       0.767   8.591  22.351  0.00  0.00    +0.000 S 
ATOM      6  C   UNL     1       1.301   8.613  20.699  0.00  0.00    +0.000 A 
ATOM      7  H   UNL     1      -1.069   9.988  23.931  0.00  0.00    +0.000 HD
ENDROOT
BRANCH   4   8
ATOM      8  C   UNL     1      -1.519  11.762  23.014  0.00  0.00    +0.000 A 
ATOM      9  C   UNL     1      -0.685  12.827  22.637  0.00  0.00    +0.000 A 
ATOM     10  C   UNL     1      -1.151  14.144  22.611  0.00  0.00    +0.000 A 
ATOM     11  C   UNL     1      -2.475  14.419  22.943  0.00  0.00    +0.000 A 
ATOM     12 CL   UNL     1      -2.987  16.069  22.901  0.00  0.00    +0.000 Cl
ATOM     13  C   UNL     1      -3.332  13.373  23.298  0.00  0.00    +0.000 A 
ATOM     14 CL   UNL     1      -4.991  13.632  23.696  0.00  0.00    +0.000 Cl
ATOM     15  C   UNL     1      -2.852  12.052  23.332  0.00  0.00    +0.000 A 
ENDBRANCH   4   8
BRANCH   1  17
ATOM     16  C   UNL     1       1.198  11.426  18.494  0.00  0.00    +0.000 C 
ATOM     17  C   UNL     1       0.548  10.020  18.532  0.00  0.00    +0.000 C 
ATOM     18  C   UNL     1      -0.904  10.155  18.014  0.00  0.00    +0.000 C 
ATOM     19  C   UNL     1       1.306   9.124  17.549  0.00  0.00    +0.000 C 
ENDBRANCH   1  17
BRANCH   6  20
ATOM     20  C   UNL     1       2.395   7.656  20.308  0.00  0.00    +0.000 C 
BRANCH  20  21
ATOM     21  C   UNL     1       1.992   6.243  19.916  0.00  0.00    +0.000 A 
ATOM     22  C   UNL     1       1.255   5.372  20.753  0.00  0.00    +0.000 A 
ATOM     23  C   UNL     1       1.056   4.029  20.404  0.00  0.00    +0.000 A 
ATOM     24  C   UNL     1       1.591   3.584  19.218  0.00  0.00    +0.000 A 
ATOM     25  C   UNL     1       2.245   4.436  18.360  0.00  0.00    +0.000 A 
ATOM     26  C   UNL     1       2.433   5.768  18.664  0.00  0.00    +0.000 A 
ATOM     27  O   UNL     1       2.707   3.801  17.249  0.00  0.00    +0.000 OA
ATOM     28  C   UNL     1       2.438   2.428  17.603  0.00  0.00    +0.000 C 
ATOM     29  O   UNL     1       1.584   2.302  18.762  0.00  0.00    +0.000 OA
ENDBRANCH  20  21
ENDBRANCH   6  20
TORSDOF 4
ENDMDL
MODEL 9
REMARK VINA RESULT:      -7.3      3.882      5.669
REMARK  Name = 
REMARK  7 active torsions:
REMARK  status: ('A' for Active; 'I' for Inactive)
REMARK    1  A    between atoms: C_1  and  C_2
REMARK    2  A    between atoms: C_2  and  C_3
REMARK    3  A    between atoms: C_2  and  C_4
REMARK    4  A    between atoms: C_2  and  C_5
REMARK    5  A    between atoms: N_8  and  C_9
REMARK    6  A    between atoms: C_18  and  C_19
REMARK    7  A    between atoms: C_19  and  C_20
REMARK                            x       y       z     vdW  Elec       q    Type
REMARK                         _______ _______ _______ _____ _____    ______ ____
ROOT
ATOM      1  C   UNL     1       2.731   5.164  18.763  0.00  0.00    +0.000 A 
ATOM      2  N   UNL     1       2.354   6.480  18.998  0.00  0.00    +0.000 NA
ATOM      3  C   UNL     1       2.986   7.341  18.246  0.00  0.00    +0.000 A 
ATOM      4  N   UNL     1       2.744   8.673  18.230  0.00  0.00    +0.000 N 
ATOM      5  S   UNL     1       4.191   6.631  17.259  0.00  0.00    +0.000 S 
ATOM      6  C   UNL     1       3.730   5.046  17.797  0.00  0.00    +0.000 A 
ATOM      7  H   UNL     1       3.378   9.268  17.712  0.00  0.00    +0.000 HD
ENDROOT
BRANCH   4   8
ATOM      8  C   UNL     1       1.483   9.253  18.489  0.00  0.00    +0.000 A 
ATOM      9  C   UNL     1       0.498   9.392  17.499  0.00  0.00    +0.000 A 
ATOM     10  C   UNL     1      -0.754   9.939  17.788  0.00  0.00    +0.000 A 
ATOM     11  C   UNL     1      -1.053  10.342  19.088  0.00  0.00    +0.000 A 
ATOM     12 CL   UNL     1      -2.616  11.020  19.378  0.00  0.00    +0.000 Cl
ATOM     13  C   UNL     1      -0.098  10.191  20.096  0.00  0.00    +0.000 A 
ATOM     14 CL   UNL     1      -0.404  10.639  21.734  0.00  0.00    +0.000 Cl
ATOM     15  C   UNL     1       1.164   9.649  19.794  0.00  0.00    +0.000 A 
ENDBRANCH   4   8
BRANCH   1  17
ATOM     16  C   UNL     1       1.091   3.295  18.589  0.00  0.00    +0.000 C 
ATOM     17  C   UNL     1       1.921   4.153  19.577  0.00  0.00    +0.000 C 
ATOM     18  C   UNL     1       0.931   4.894  20.507  0.00  0.00    +0.000 C 
ATOM     19  C   UNL     1       2.745   3.202  20.448  0.00  0.00    +0.000 C 
ENDBRANCH   1  17
BRANCH   6  20
ATOM     20  C   UNL     1       4.466   3.871  17.212  0.00  0.00    +0.000 C 
BRANCH  20  21
ATOM     21  C   UNL     1       5.554   4.156  16.188  0.00  0.00    +0.000 A 
ATOM     22  C   UNL     1       6.695   4.951  16.449  0.00  0.00    +0.000 A 
ATOM     23  C   UNL     1       7.577   5.312  15.421  0.00  0.00    +0.000 A 
ATOM     24  C   UNL     1       7.304   4.865  14.150  0.00  0.00    +0.000 A 
ATOM     25  C   UNL     1       6.241   4.031  13.893  0.00  0.00    +0.000 A 
ATOM     26  C   UNL     1       5.373   3.637  14.889  0.00  0.00    +0.000 A 
ATOM     27  O   UNL     1       6.139   3.711  12.576  0.00  0.00    +0.000 OA
ATOM     28  C   UNL     1       7.137   4.590  12.015  0.00  0.00    +0.000 C 
ATOM     29  O   UNL     1       7.986   5.191  13.018  0.00  0.00    +0.000 OA
ENDBRANCH  20  21
ENDBRANCH   6  20
TORSDOF 4
ENDMDL
