MODEL 1
REMARK VINA RESULT:      -7.5      0.000      0.000
REMARK  Name = 
REMARK  8 active torsions:
REMARK  status: ('A' for Active; 'I' for Inactive)
REMARK    1  A    between atoms: C_1  and  C_2
REMARK    2  A    between atoms: C_4  and  C_5
REMARK    3  A    between atoms: C_5  and  O_6
REMARK    4  A    between atoms: C_9  and  N_10
REMARK    5  A    between atoms: C_11  and  C_13
REMARK    6  A    between atoms: C_13  and  C_14
REMARK    7  A    between atoms: C_14  and  C_15
REMARK    8  A    between atoms: C_25  and  O_26
REMARK                            x       y       z     vdW  Elec       q    Type
REMARK                         _______ _______ _______ _____ _____    ______ ____
ROOT
ATOM      1  C   UNL     1       3.202   6.483  18.282  0.00  0.00    +0.000 C 
ATOM      2  C   UNL     1       3.176   7.892  17.663  0.00  0.00    +0.000 C 
ATOM      3  C   UNL     1       1.907   8.667  18.022  0.00  0.00    +0.000 C 
ATOM      4  C   UNL     1       1.647   8.728  19.537  0.00  0.00    +0.000 C 
ATOM      5  C   UNL     1       1.777   7.352  20.213  0.00  0.00    +0.000 C 
ATOM      6  C   UNL     1       3.041   6.590  19.809  0.00  0.00    +0.000 C 
ENDROOT
BRANCH   1  10
ATOM      7  C   UNL     1       6.122   4.027  14.948  0.00  0.00    +0.000 C 
ATOM      8  C   UNL     1       5.911   4.598  16.317  0.00  0.00    +0.000 A 
ATOM      9  C   UNL     1       4.695   5.204  16.654  0.00  0.00    +0.000 A 
ATOM     10  C   UNL     1       4.513   5.770  17.921  0.00  0.00    +0.000 A 
ATOM     11  N   UNL     1       5.491   5.728  18.865  0.00  0.00    +0.000 NA
ATOM     12  C   UNL     1       6.660   5.134  18.522  0.00  0.00    +0.000 A 
ATOM     13  C   UNL     1       6.914   4.572  17.278  0.00  0.00    +0.000 A 
BRANCH  13  14
ATOM     14  O   UNL     1       8.115   4.004  16.970  0.00  0.00    +0.000 OA
ATOM     15  H   UNL     1       8.381   4.285  16.079  0.00  0.00    +0.000 HD
ENDBRANCH  13  14
ENDBRANCH   1  10
BRANCH   4  16
ATOM     16  N   UNL     1       0.320   9.271  19.825  0.00  0.00    +0.000 N 
ATOM     17  C   UNL     1       0.046  10.619  19.804  0.00  0.00    +0.000 C 
ATOM     18  O   UNL     1       0.884  11.477  19.541  0.00  0.00    +0.000 OA
ATOM     19  H   UNL     1      -0.379   8.653  20.221  0.00  0.00    +0.000 HD
BRANCH  17  20
ATOM     20  C   UNL     1      -1.384  10.958  20.166  0.00  0.00    +0.000 C 
BRANCH  20  21
ATOM     21  C   UNL     1      -1.912  12.063  19.251  0.00  0.00    +0.000 C 
BRANCH  21  22
ATOM     22  C   UNL     1      -2.661  11.499  18.070  0.00  0.00    +0.000 A 
ATOM     23  C   UNL     1      -1.998  10.704  17.127  0.00  0.00    +0.000 A 
ATOM     24  C   UNL     1      -2.669  10.242  15.995  0.00  0.00    +0.000 A 
ATOM     25  C   UNL     1      -4.010  10.567  15.797  0.00  0.00    +0.000 A 
ATOM     26  C   UNL     1      -4.687  11.334  16.745  0.00  0.00    +0.000 A 
ATOM     27  C   UNL     1      -4.016  11.798  17.877  0.00  0.00    +0.000 A 
ENDBRANCH  21  22
ENDBRANCH  20  21
ENDBRANCH  17  20
ENDBRANCH   4  16
BRANCH   1  28
ATOM     28  O   UNL     1       2.093   5.727  17.762  0.00  0.00    +0.000 OA
ATOM     29  H   UNL     1       1.945   4.948  18.317  0.00  0.00    +0.000 HD
ENDBRANCH   1  28
TORSDOF 7
ENDMDL
MODEL 2
REMARK VINA RESULT:      -7.5      0.648      1.147
REMARK  Name = 
REMARK  8 active torsions:
REMARK  status: ('A' for Active; 'I' for Inactive)
REMARK    1  A    between atoms: C_1  and  C_2
REMARK    2  A    between atoms: C_4  and  C_5
REMARK    3  A    between atoms: C_5  and  O_6
REMARK    4  A    between atoms: C_9  and  N_10
REMARK    5  A    between atoms: C_11  and  C_13
REMARK    6  A    between atoms: C_13  and  C_14
REMARK    7  A    between atoms: C_14  and  C_15
REMARK    8  A    between atoms: C_25  and  O_26
REMARK                            x       y       z     vdW  Elec       q    Type
REMARK                         _______ _______ _______ _____ _____    ______ ____
ROOT
ATOM      1  C   UNL     1       3.154   6.668  18.238  0.00  0.00    +0.000 C 
ATOM      2  C   UNL     1       3.141   8.061  17.585  0.00  0.00    +0.000 C 
ATOM      3  C   UNL     1       1.891   8.866  17.945  0.00  0.00    +0.000 C 
ATOM      4  C   UNL     1       1.655   8.968  19.461  0.00  0.00    +0.000 C 
ATOM      5  C   UNL     1       1.774   7.607  20.169  0.00  0.00    +0.000 C 
ATOM      6  C   UNL     1       3.019   6.815  19.765  0.00  0.00    +0.000 C 
ENDROOT
BRANCH   1  10
ATOM      7  C   UNL     1       6.413   4.900  14.784  0.00  0.00    +0.000 C 
ATOM      8  C   UNL     1       6.009   5.085  16.216  0.00  0.00    +0.000 A 
ATOM      9  C   UNL     1       4.805   5.720  16.538  0.00  0.00    +0.000 A 
ATOM     10  C   UNL     1       4.447   5.925  17.875  0.00  0.00    +0.000 A 
ATOM     11  N   UNL     1       5.238   5.495  18.896  0.00  0.00    +0.000 NA
ATOM     12  C   UNL     1       6.399   4.878  18.565  0.00  0.00    +0.000 A 
ATOM     13  C   UNL     1       6.823   4.662  17.260  0.00  0.00    +0.000 A 
BRANCH  13  14
ATOM     14  O   UNL     1       8.011   4.056  16.973  0.00  0.00    +0.000 OA
ATOM     15  H   UNL     1       7.902   3.497  16.187  0.00  0.00    +0.000 HD
ENDBRANCH  13  14
ENDBRANCH   1  10
BRANCH   4  16
ATOM     16  N   UNL     1       0.341   9.539  19.755  0.00  0.00    +0.000 N 
ATOM     17  C   UNL     1       0.160  10.570  20.649  0.00  0.00    +0.000 C 
ATOM     18  O   UNL     1       1.078  11.098  21.269  0.00  0.00    +0.000 OA
ATOM     19  H   UNL     1      -0.483   9.050  19.425  0.00  0.00    +0.000 HD
BRANCH  17  20
ATOM     20  C   UNL     1      -1.286  10.980  20.824  0.00  0.00    +0.000 C 
BRANCH  20  21
ATOM     21  C   UNL     1      -1.601  12.191  19.946  0.00  0.00    +0.000 C 
BRANCH  21  22
ATOM     22  C   UNL     1      -2.439  11.812  18.751  0.00  0.00    +0.000 A 
ATOM     23  C   UNL     1      -3.833  11.939  18.796  0.00  0.00    +0.000 A 
ATOM     24  C   UNL     1      -4.617  11.520  17.721  0.00  0.00    +0.000 A 
ATOM     25  C   UNL     1      -4.014  10.974  16.589  0.00  0.00    +0.000 A 
ATOM     26  C   UNL     1      -2.625  10.870  16.522  0.00  0.00    +0.000 A 
ATOM     27  C   UNL     1      -1.840  11.287  17.598  0.00  0.00    +0.000 A 
ENDBRANCH  21  22
ENDBRANCH  20  21
ENDBRANCH  17  20
ENDBRANCH   4  16
BRANCH   1  28
ATOM     28  O   UNL     1       2.025   5.918  17.754  0.00  0.00    +0.000 OA
ATOM     29  H   UNL     1       1.377   5.815  18.467  0.00  0.00    +0.000 HD
ENDBRANCH   1  28
TORSDOF 7
ENDMDL
MODEL 3
REMARK VINA RESULT:      -7.3      3.225      8.832
REMARK  Name = 
REMARK  8 active torsions:
REMARK  status: ('A' for Active; 'I' for Inactive)
REMARK    1  A    between atoms: C_1  and  C_2
REMARK    2  A    between atoms: C_4  and  C_5
REMARK    3  A    between atoms: C_5  and  O_6
REMARK    4  A    between atoms: C_9  and  N_10
REMARK    5  A    between atoms: C_11  and  C_13
REMARK    6  A    between atoms: C_13  and  C_14
REMARK    7  A    between atoms: C_14  and  C_15
REMARK    8  A    between atoms: C_25  and  O_26
REMARK                            x       y       z     vdW  Elec       q    Type
REMARK                         _______ _______ _______ _____ _____    ______ ____
ROOT
ATOM      1  C   UNL     1       0.911   9.846  19.650  0.00  0.00    +0.000 C 
ATOM      2  C   UNL     1       1.498   8.819  20.635  0.00  0.00    +0.000 C 
ATOM      3  C   UNL     1       1.776   7.467  19.976  0.00  0.00    +0.000 C 
ATOM      4  C   UNL     1       2.649   7.579  18.715  0.00  0.00    +0.000 C 
ATOM      5  C   UNL     1       2.159   8.678  17.755  0.00  0.00    +0.000 C 
ATOM      6  C   UNL     1       1.862  10.008  18.450  0.00  0.00    +0.000 C 
ENDROOT
BRANCH   1  10
ATOM      7  C   UNL     1      -1.440  12.676  23.135  0.00  0.00    +0.000 C 
ATOM      8  C   UNL     1      -0.434  12.542  22.032  0.00  0.00    +0.000 A 
ATOM      9  C   UNL     1      -0.274  11.325  21.360  0.00  0.00    +0.000 A 
ATOM     10  C   UNL     1       0.692  11.192  20.356  0.00  0.00    +0.000 A 
ATOM     11  N   UNL     1       1.481  12.236  19.986  0.00  0.00    +0.000 NA
ATOM     12  C   UNL     1       1.309  13.408  20.645  0.00  0.00    +0.000 A 
ATOM     13  C   UNL     1       0.385  13.603  21.663  0.00  0.00    +0.000 A 
BRANCH  13  14
ATOM     14  O   UNL     1       0.262  14.795  22.315  0.00  0.00    +0.000 OA
ATOM     15  H   UNL     1      -0.674  14.947  22.526  0.00  0.00    +0.000 HD
ENDBRANCH  13  14
ENDBRANCH   1  10
BRANCH   4  16
ATOM     16  N   UNL     1       2.699   6.309  17.992  0.00  0.00    +0.000 N 
ATOM     17  C   UNL     1       3.850   5.563  17.874  0.00  0.00    +0.000 C 
ATOM     18  O   UNL     1       4.925   5.894  18.366  0.00  0.00    +0.000 OA
ATOM     19  H   UNL     1       1.909   6.053  17.411  0.00  0.00    +0.000 HD
BRANCH  17  20
ATOM     20  C   UNL     1       3.680   4.303  17.055  0.00  0.00    +0.000 C 
BRANCH  20  21
ATOM     21  C   UNL     1       3.925   3.070  17.925  0.00  0.00    +0.000 C 
BRANCH  21  22
ATOM     22  C   UNL     1       2.977   3.016  19.096  0.00  0.00    +0.000 A 
ATOM     23  C   UNL     1       3.471   2.897  20.401  0.00  0.00    +0.000 A 
ATOM     24  C   UNL     1       2.596   2.772  21.480  0.00  0.00    +0.000 A 
ATOM     25  C   UNL     1       1.219   2.769  21.265  0.00  0.00    +0.000 A 
ATOM     26  C   UNL     1       0.716   2.916  19.973  0.00  0.00    +0.000 A 
ATOM     27  C   UNL     1       1.591   3.040  18.892  0.00  0.00    +0.000 A 
ENDBRANCH  21  22
ENDBRANCH  20  21
ENDBRANCH  17  20
ENDBRANCH   4  16
BRANCH   1  28
ATOM     28  O   UNL     1      -0.351   9.354  19.165  0.00  0.00    +0.000 OA
ATOM     29  H   UNL     1      -0.248   8.437  18.870  0.00  0.00    +0.000 HD
ENDBRANCH   1  28
TORSDOF 7
ENDMDL
MODEL 4
REMARK VINA RESULT:      -7.2      3.271      8.822
REMARK  Name = 
REMARK  8 active torsions:
REMARK  status: ('A' for Active; 'I' for Inactive)
REMARK    1  A    between atoms: C_1  and  C_2
REMARK    2  A    between atoms: C_4  and  C_5
REMARK    3  A    between atoms: C_5  and  O_6
REMARK    4  A    between atoms: C_9  and  N_10
REMARK    5  A    between atoms: C_11  and  C_13
REMARK    6  A    between atoms: C_13  and  C_14
REMARK    7  A    between atoms: C_14  and  C_15
REMARK    8  A    between atoms: C_25  and  O_26
REMARK                            x       y       z     vdW  Elec       q    Type
REMARK                         _______ _______ _______ _____ _____    ______ ____
ROOT
ATOM      1  C   UNL     1       0.747   9.826  19.901  0.00  0.00    +0.000 C 
ATOM      2  C   UNL     1       1.485   8.827  20.811  0.00  0.00    +0.000 C 
ATOM      3  C   UNL     1       1.767   7.496  20.112  0.00  0.00    +0.000 C 
ATOM      4  C   UNL     1       2.501   7.662  18.771  0.00  0.00    +0.000 C 
ATOM      5  C   UNL     1       1.858   8.738  17.877  0.00  0.00    +0.000 C 
ATOM      6  C   UNL     1       1.562  10.046  18.613  0.00  0.00    +0.000 C 
ENDROOT
BRANCH   1  10
ATOM      7  C   UNL     1       1.809  14.735  20.573  0.00  0.00    +0.000 C 
ATOM      8  C   UNL     1       1.037  13.508  20.954  0.00  0.00    +0.000 A 
ATOM      9  C   UNL     1       1.276  12.289  20.308  0.00  0.00    +0.000 A 
ATOM     10  C   UNL     1       0.529  11.154  20.640  0.00  0.00    +0.000 A 
ATOM     11  N   UNL     1      -0.427  11.189  21.607  0.00  0.00    +0.000 NA
ATOM     12  C   UNL     1      -0.642  12.377  22.224  0.00  0.00    +0.000 A 
ATOM     13  C   UNL     1       0.049  13.545  21.930  0.00  0.00    +0.000 A 
BRANCH  13  14
ATOM     14  O   UNL     1      -0.217  14.725  22.561  0.00  0.00    +0.000 OA
ATOM     15  H   UNL     1      -0.216  15.443  21.908  0.00  0.00    +0.000 HD
ENDBRANCH  13  14
ENDBRANCH   1  10
BRANCH   4  16
ATOM     16  N   UNL     1       2.546   6.400  18.032  0.00  0.00    +0.000 N 
ATOM     17  C   UNL     1       3.692   5.650  17.909  0.00  0.00    +0.000 C 
ATOM     18  O   UNL     1       4.768   5.968  18.408  0.00  0.00    +0.000 OA
ATOM     19  H   UNL     1       1.756   6.156  17.446  0.00  0.00    +0.000 HD
BRANCH  17  20
ATOM     20  C   UNL     1       3.517   4.400  17.074  0.00  0.00    +0.000 C 
BRANCH  20  21
ATOM     21  C   UNL     1       3.859   3.160  17.900  0.00  0.00    +0.000 C 
BRANCH  21  22
ATOM     22  C   UNL     1       2.940   3.008  19.085  0.00  0.00    +0.000 A 
ATOM     23  C   UNL     1       1.551   3.082  18.916  0.00  0.00    +0.000 A 
ATOM     24  C   UNL     1       0.700   3.015  20.019  0.00  0.00    +0.000 A 
ATOM     25  C   UNL     1       1.229   2.870  21.300  0.00  0.00    +0.000 A 
ATOM     26  C   UNL     1       2.608   2.765  21.477  0.00  0.00    +0.000 A 
ATOM     27  C   UNL     1       3.461   2.834  20.374  0.00  0.00    +0.000 A 
ENDBRANCH  21  22
ENDBRANCH  20  21
ENDBRANCH  17  20
ENDBRANCH   4  16
BRANCH   1  28
ATOM     28  O   UNL     1      -0.529   9.269  19.540  0.00  0.00    +0.000 OA
ATOM     29  H   UNL     1      -1.233   9.881  19.801  0.00  0.00    +0.000 HD
ENDBRANCH   1  28
TORSDOF 7
ENDMDL
MODEL 5
REMARK VINA RESULT:      -7.2      3.098      9.588
REMARK  Name = 
REMARK  8 active torsions:
REMARK  status: ('A' for Active; 'I' for Inactive)
REMARK    1  A    between atoms: C_1  and  C_2
REMARK    2  A    between atoms: C_4  and  C_5
REMARK    3  A    between atoms: C_5  and  O_6
REMARK    4  A    between atoms: C_9  and  N_10
REMARK    5  A    between atoms: C_11  and  C_13
REMARK    6  A    between atoms: C_13  and  C_14
REMARK    7  A    between atoms: C_14  and  C_15
REMARK    8  A    between atoms: C_25  and  O_26
REMARK                            x       y       z     vdW  Elec       q    Type
REMARK                         _______ _______ _______ _____ _____    ______ ____
ROOT
ATOM      1  C   UNL     1       0.170  11.014  21.252  0.00  0.00    +0.000 C 
ATOM      2  C   UNL     1      -0.090  10.477  19.833  0.00  0.00    +0.000 C 
ATOM      3  C   UNL     1       0.947   9.440  19.400  0.00  0.00    +0.000 C 
ATOM      4  C   UNL     1       1.102   8.285  20.405  0.00  0.00    +0.000 C 
ATOM      5  C   UNL     1       1.250   8.781  21.854  0.00  0.00    +0.000 C 
ATOM      6  C   UNL     1       0.217   9.839  22.246  0.00  0.00    +0.000 C 
ENDROOT
BRANCH   1  10
ATOM      7  C   UNL     1      -1.598  14.640  24.318  0.00  0.00    +0.000 C 
ATOM      8  C   UNL     1      -1.763  13.760  23.116  0.00  0.00    +0.000 A 
ATOM      9  C   UNL     1      -0.785  12.813  22.790  0.00  0.00    +0.000 A 
ATOM     10  C   UNL     1      -0.922  12.018  21.647  0.00  0.00    +0.000 A 
ATOM     11  N   UNL     1      -2.011  12.119  20.837  0.00  0.00    +0.000 NA
ATOM     12  C   UNL     1      -2.950  13.039  21.172  0.00  0.00    +0.000 A 
ATOM     13  C   UNL     1      -2.866  13.873  22.278  0.00  0.00    +0.000 A 
BRANCH  13  14
ATOM     14  O   UNL     1      -3.825  14.800  22.564  0.00  0.00    +0.000 OA
ATOM     15  H   UNL     1      -3.721  15.092  23.484  0.00  0.00    +0.000 HD
ENDBRANCH  13  14
ENDBRANCH   1  10
BRANCH   4  16
ATOM     16  N   UNL     1       2.253   7.446  20.073  0.00  0.00    +0.000 N 
ATOM     17  C   UNL     1       2.241   6.077  20.209  0.00  0.00    +0.000 C 
ATOM     18  O   UNL     1       1.269   5.445  20.614  0.00  0.00    +0.000 OA
ATOM     19  H   UNL     1       3.145   7.896  19.904  0.00  0.00    +0.000 HD
BRANCH  17  20
ATOM     20  C   UNL     1       3.551   5.415  19.842  0.00  0.00    +0.000 C 
BRANCH  20  21
ATOM     21  C   UNL     1       3.341   4.436  18.686  0.00  0.00    +0.000 C 
BRANCH  21  22
ATOM     22  C   UNL     1       4.095   4.860  17.452  0.00  0.00    +0.000 A 
ATOM     23  C   UNL     1       4.595   3.900  16.563  0.00  0.00    +0.000 A 
ATOM     24  C   UNL     1       5.356   4.284  15.460  0.00  0.00    +0.000 A 
ATOM     25  C   UNL     1       5.622   5.634  15.232  0.00  0.00    +0.000 A 
ATOM     26  C   UNL     1       5.105   6.600  16.094  0.00  0.00    +0.000 A 
ATOM     27  C   UNL     1       4.344   6.216  17.199  0.00  0.00    +0.000 A 
ENDBRANCH  21  22
ENDBRANCH  20  21
ENDBRANCH  17  20
ENDBRANCH   4  16
BRANCH   1  28
ATOM     28  O   UNL     1       1.449  11.674  21.271  0.00  0.00    +0.000 OA
ATOM     29  H   UNL     1       1.558  12.189  20.457  0.00  0.00    +0.000 HD
ENDBRANCH   1  28
TORSDOF 7
ENDMDL
MODEL 6
REMARK VINA RESULT:      -7.2      1.880      9.377
REMARK  Name = 
REMARK  8 active torsions:
REMARK  status: ('A' for Active; 'I' for Inactive)
REMARK    1  A    between atoms: C_1  and  C_2
REMARK    2  A    between atoms: C_4  and  C_5
REMARK    3  A    between atoms: C_5  and  O_6
REMARK    4  A    between atoms: C_9  and  N_10
REMARK    5  A    between atoms: C_11  and  C_13
REMARK    6  A    between atoms: C_13  and  C_14
REMARK    7  A    between atoms: C_14  and  C_15
REMARK    8  A    between atoms: C_25  and  O_26
REMARK                            x       y       z     vdW  Elec       q    Type
REMARK                         _______ _______ _______ _____ _____    ______ ____
ROOT
ATOM      1  C   UNL     1       0.295  10.291  19.855  0.00  0.00    +0.000 C 
ATOM      2  C   UNL     1       0.614   9.717  18.463  0.00  0.00    +0.000 C 
ATOM      3  C   UNL     1       1.854   8.821  18.469  0.00  0.00    +0.000 C 
ATOM      4  C   UNL     1       1.783   7.701  19.521  0.00  0.00    +0.000 C 
ATOM      5  C   UNL     1       1.353   8.220  20.905  0.00  0.00    +0.000 C 
ATOM      6  C   UNL     1       0.130   9.137  20.861  0.00  0.00    +0.000 C 
ENDROOT
BRANCH   1  10
ATOM      7  C   UNL     1      -4.095  11.532  17.648  0.00  0.00    +0.000 C 
ATOM      8  C   UNL     1      -3.085  11.734  18.737  0.00  0.00    +0.000 A 
ATOM      9  C   UNL     1      -1.904  10.983  18.758  0.00  0.00    +0.000 A 
ATOM     10  C   UNL     1      -0.979  11.147  19.795  0.00  0.00    +0.000 A 
ATOM     11  N   UNL     1      -1.182  12.048  20.793  0.00  0.00    +0.000 NA
ATOM     12  C   UNL     1      -2.330  12.769  20.754  0.00  0.00    +0.000 A 
ATOM     13  C   UNL     1      -3.298  12.642  19.767  0.00  0.00    +0.000 A 
BRANCH  13  14
ATOM     14  O   UNL     1      -4.450  13.373  19.780  0.00  0.00    +0.000 OA
ATOM     15  H   UNL     1      -4.994  13.096  20.535  0.00  0.00    +0.000 HD
ENDBRANCH  13  14
ENDBRANCH   1  10
BRANCH   4  16
ATOM     16  N   UNL     1       3.069   7.017  19.653  0.00  0.00    +0.000 N 
ATOM     17  C   UNL     1       3.266   5.717  19.244  0.00  0.00    +0.000 C 
ATOM     18  O   UNL     1       2.389   5.027  18.734  0.00  0.00    +0.000 OA
ATOM     19  H   UNL     1       3.790   7.448  20.219  0.00  0.00    +0.000 HD
BRANCH  17  20
ATOM     20  C   UNL     1       4.663   5.200  19.507  0.00  0.00    +0.000 C 
BRANCH  20  21
ATOM     21  C   UNL     1       4.940   3.966  18.648  0.00  0.00    +0.000 C 
BRANCH  21  22
ATOM     22  C   UNL     1       5.538   4.337  17.315  0.00  0.00    +0.000 A 
ATOM     23  C   UNL     1       4.864   4.027  16.127  0.00  0.00    +0.000 A 
ATOM     24  C   UNL     1       5.447   4.302  14.890  0.00  0.00    +0.000 A 
ATOM     25  C   UNL     1       6.709   4.892  14.830  0.00  0.00    +0.000 A 
ATOM     26  C   UNL     1       7.376   5.231  16.006  0.00  0.00    +0.000 A 
ATOM     27  C   UNL     1       6.794   4.955  17.244  0.00  0.00    +0.000 A 
ENDBRANCH  21  22
ENDBRANCH  20  21
ENDBRANCH  17  20
ENDBRANCH   4  16
BRANCH   1  28
ATOM     28  O   UNL     1       1.397  11.111  20.283  0.00  0.00    +0.000 OA
ATOM     29  H   UNL     1       2.060  11.152  19.578  0.00  0.00    +0.000 HD
ENDBRANCH   1  28
TORSDOF 7
ENDMDL
MODEL 7
REMARK VINA RESULT:      -7.2      2.057      3.133
REMARK  Name = 
REMARK  8 active torsions:
REMARK  status: ('A' for Active; 'I' for Inactive)
REMARK    1  A    between atoms: C_1  and  C_2
REMARK    2  A    between atoms: C_4  and  C_5
REMARK    3  A    between atoms: C_5  and  O_6
REMARK    4  A    between atoms: C_9  and  N_10
REMARK    5  A    between atoms: C_11  and  C_13
REMARK    6  A    between atoms: C_13  and  C_14
REMARK    7  A    between atoms: C_14  and  C_15
REMARK    8  A    between atoms: C_25  and  O_26
REMARK                            x       y       z     vdW  Elec       q    Type
REMARK                         _______ _______ _______ _____ _____    ______ ____
ROOT
ATOM      1  C   UNL     1       3.107   6.651  18.294  0.00  0.00    +0.000 C 
ATOM      2  C   UNL     1       3.072   8.020  17.593  0.00  0.00    +0.000 C 
ATOM      3  C   UNL     1       1.812   8.819  17.929  0.00  0.00    +0.000 C 
ATOM      4  C   UNL     1       1.579   8.970  19.442  0.00  0.00    +0.000 C 
ATOM      5  C   UNL     1       1.719   7.636  20.196  0.00  0.00    +0.000 C 
ATOM      6  C   UNL     1       2.975   6.848  19.815  0.00  0.00    +0.000 C 
ENDROOT
BRANCH   1  10
ATOM      7  C   UNL     1       6.364   4.781  14.892  0.00  0.00    +0.000 C 
ATOM      8  C   UNL     1       5.971   5.025  16.318  0.00  0.00    +0.000 A 
ATOM      9  C   UNL     1       4.758   5.654  16.622  0.00  0.00    +0.000 A 
ATOM     10  C   UNL     1       4.410   5.914  17.952  0.00  0.00    +0.000 A 
ATOM     11  N   UNL     1       5.218   5.546  18.983  0.00  0.00    +0.000 NA
ATOM     12  C   UNL     1       6.386   4.935  18.669  0.00  0.00    +0.000 A 
ATOM     13  C   UNL     1       6.801   4.666  17.372  0.00  0.00    +0.000 A 
BRANCH  13  14
ATOM     14  O   UNL     1       7.998   4.067  17.101  0.00  0.00    +0.000 OA
ATOM     15  H   UNL     1       8.574   4.141  17.879  0.00  0.00    +0.000 HD
ENDBRANCH  13  14
ENDBRANCH   1  10
BRANCH   4  16
ATOM     16  N   UNL     1       0.258   9.533  19.721  0.00  0.00    +0.000 N 
ATOM     17  C   UNL     1       0.069  10.846  20.086  0.00  0.00    +0.000 C 
ATOM     18  O   UNL     1       0.985  11.655  20.204  0.00  0.00    +0.000 OA
ATOM     19  H   UNL     1      -0.526   8.898  19.819  0.00  0.00    +0.000 HD
BRANCH  17  20
ATOM     20  C   UNL     1      -1.376  11.202  20.359  0.00  0.00    +0.000 C 
BRANCH  20  21
ATOM     21  C   UNL     1      -1.457  12.500  21.162  0.00  0.00    +0.000 C 
BRANCH  21  22
ATOM     22  C   UNL     1      -2.722  12.574  21.977  0.00  0.00    +0.000 A 
ATOM     23  C   UNL     1      -3.943  12.883  21.362  0.00  0.00    +0.000 A 
ATOM     24  C   UNL     1      -5.102  13.025  22.123  0.00  0.00    +0.000 A 
ATOM     25  C   UNL     1      -5.055  12.856  23.506  0.00  0.00    +0.000 A 
ATOM     26  C   UNL     1      -3.851  12.520  24.125  0.00  0.00    +0.000 A 
ATOM     27  C   UNL     1      -2.689  12.379  23.364  0.00  0.00    +0.000 A 
ENDBRANCH  21  22
ENDBRANCH  20  21
ENDBRANCH  17  20
ENDBRANCH   4  16
BRANCH   1  28
ATOM     28  O   UNL     1       1.988   5.869  17.839  0.00  0.00    +0.000 OA
ATOM     29  H   UNL     1       2.125   5.616  16.914  0.00  0.00    +0.000 HD
ENDBRANCH   1  28
TORSDOF 7
ENDMDL
MODEL 8
REMARK VINA RESULT:      -7.1      2.623      9.789
REMARK  Name = 
REMARK  8 active torsions:
REMARK  status: ('A' for Active; 'I' for Inactive)
REMARK    1  A    between atoms: C_1  and  C_2
REMARK    2  A    between atoms: C_4  and  C_5
REMARK    3  A    between atoms: C_5  and  O_6
REMARK    4  A    between atoms: C_9  and  N_10
REMARK    5  A    between atoms: C_11  and  C_13
REMARK    6  A    between atoms: C_13  and  C_14
REMARK    7  A    between atoms: C_14  and  C_15
REMARK    8  A    between atoms: C_25  and  O_26
REMARK                            x       y       z     vdW  Elec       q    Type
REMARK                         _______ _______ _______ _____ _____    ______ ____
ROOT
ATOM      1  C   UNL     1       0.076  10.508  20.891  0.00  0.00    +0.000 C 
ATOM      2  C   UNL     1       0.238  10.089  19.419  0.00  0.00    +0.000 C 
ATOM      3  C   UNL     1       1.432   9.158  19.203  0.00  0.00    +0.000 C 
ATOM      4  C   UNL     1       1.412   7.927  20.125  0.00  0.00    +0.000 C 
ATOM      5  C   UNL     1       1.137   8.296  21.593  0.00  0.00    +0.000 C 
ATOM      6  C   UNL     1      -0.044   9.251  21.773  0.00  0.00    +0.000 C 
ENDROOT
BRANCH   1  10
ATOM      7  C   UNL     1      -3.182  13.053  23.821  0.00  0.00    +0.000 C 
ATOM      8  C   UNL     1      -2.714  12.629  22.462  0.00  0.00    +0.000 A 
ATOM      9  C   UNL     1      -1.617  11.771  22.324  0.00  0.00    +0.000 A 
ATOM     10  C   UNL     1      -1.159  11.406  21.053  0.00  0.00    +0.000 A 
ATOM     11  N   UNL     1      -1.773  11.847  19.922  0.00  0.00    +0.000 NA
ATOM     12  C   UNL     1      -2.836  12.674  20.076  0.00  0.00    +0.000 A 
ATOM     13  C   UNL     1      -3.329  13.092  21.305  0.00  0.00    +0.000 A 
BRANCH  13  14
ATOM     14  O   UNL     1      -4.389  13.944  21.411  0.00  0.00    +0.000 OA
ATOM     15  H   UNL     1      -4.445  14.270  22.324  0.00  0.00    +0.000 HD
ENDBRANCH  13  14
ENDBRANCH   1  10
BRANCH   4  16
ATOM     16  N   UNL     1       2.673   7.190  20.052  0.00  0.00    +0.000 N 
ATOM     17  C   UNL     1       2.773   5.937  19.491  0.00  0.00    +0.000 C 
ATOM     18  O   UNL     1       1.820   5.336  19.003  0.00  0.00    +0.000 OA
ATOM     19  H   UNL     1       3.464   7.533  20.584  0.00  0.00    +0.000 HD
BRANCH  17  20
ATOM     20  C   UNL     1       4.165   5.349  19.554  0.00  0.00    +0.000 C 
BRANCH  20  21
ATOM     21  C   UNL     1       4.240   4.078  18.707  0.00  0.00    +0.000 C 
BRANCH  21  22
ATOM     22  C   UNL     1       5.189   4.237  17.546  0.00  0.00    +0.000 A 
ATOM     23  C   UNL     1       6.534   4.555  17.770  0.00  0.00    +0.000 A 
ATOM     24  C   UNL     1       7.398   4.775  16.698  0.00  0.00    +0.000 A 
ATOM     25  C   UNL     1       6.925   4.675  15.390  0.00  0.00    +0.000 A 
ATOM     26  C   UNL     1       5.595   4.330  15.155  0.00  0.00    +0.000 A 
ATOM     27  C   UNL     1       4.729   4.112  16.228  0.00  0.00    +0.000 A 
ENDBRANCH  21  22
ENDBRANCH  20  21
ENDBRANCH  17  20
ENDBRANCH   4  16
BRANCH   1  28
ATOM     28  O   UNL     1       1.248  11.236  21.298  0.00  0.00    +0.000 OA
ATOM     29  H   UNL     1       1.849  10.641  21.771  0.00  0.00    +0.000 HD
ENDBRANCH   1  28
TORSDOF 7
ENDMDL
MODEL 9
REMARK VINA RESULT:      -7.1      3.210      4.446
REMARK  Name = 
REMARK  8 active torsions:
REMARK  status: ('A' for Active; 'I' for Inactive)
REMARK    1  A    between atoms: C_1  and  C_2
REMARK    2  A    between atoms: C_4  and  C_5
REMARK    3  A    between atoms: C_5  and  O_6
REMARK    4  A    between atoms: C_9  and  N_10
REMARK    5  A    between atoms: C_11  and  C_13
REMARK    6  A    between atoms: C_13  and  C_14
REMARK    7  A    between atoms: C_14  and  C_15
REMARK    8  A    between atoms: C_25  and  O_26
REMARK                            x       y       z     vdW  Elec       q    Type
REMARK                         _______ _______ _______ _____ _____    ______ ____
ROOT
ATOM      1  C   UNL     1       5.244   5.574  16.687  0.00  0.00    +0.000 C 
ATOM      2  C   UNL     1       4.199   4.558  17.182  0.00  0.00    +0.000 C 
ATOM      3  C   UNL     1       3.528   4.996  18.486  0.00  0.00    +0.000 C 
ATOM      4  C   UNL     1       2.927   6.409  18.410  0.00  0.00    +0.000 C 
ATOM      5  C   UNL     1       3.906   7.434  17.811  0.00  0.00    +0.000 C 
ATOM      6  C   UNL     1       4.582   6.955  16.525  0.00  0.00    +0.000 C 
ENDROOT
BRANCH   1  10
ATOM      7  C   UNL     1       4.813   3.219  12.221  0.00  0.00    +0.000 C 
ATOM      8  C   UNL     1       5.638   3.978  13.216  0.00  0.00    +0.000 A 
ATOM      9  C   UNL     1       5.091   4.362  14.446  0.00  0.00    +0.000 A 
ATOM     10  C   UNL     1       5.851   5.103  15.358  0.00  0.00    +0.000 A 
ATOM     11  N   UNL     1       7.140   5.449  15.094  0.00  0.00    +0.000 NA
ATOM     12  C   UNL     1       7.654   5.064  13.900  0.00  0.00    +0.000 A 
ATOM     13  C   UNL     1       6.950   4.347  12.942  0.00  0.00    +0.000 A 
BRANCH  13  14
ATOM     14  O   UNL     1       7.500   4.001  11.743  0.00  0.00    +0.000 OA
ATOM     15  H   UNL     1       7.745   4.807  11.260  0.00  0.00    +0.000 HD
ENDBRANCH  13  14
ENDBRANCH   1  10
BRANCH   4  16
ATOM     16  N   UNL     1       2.505   6.876  19.731  0.00  0.00    +0.000 N 
ATOM     17  C   UNL     1       1.749   8.011  19.913  0.00  0.00    +0.000 C 
ATOM     18  O   UNL     1       1.361   8.723  18.990  0.00  0.00    +0.000 OA
ATOM     19  H   UNL     1       2.926   6.453  20.550  0.00  0.00    +0.000 HD
BRANCH  17  20
ATOM     20  C   UNL     1       1.457   8.324  21.364  0.00  0.00    +0.000 C 
BRANCH  20  21
ATOM     21  C   UNL     1      -0.030   8.625  21.551  0.00  0.00    +0.000 C 
BRANCH  21  22
ATOM     22  C   UNL     1      -0.272  10.081  21.855  0.00  0.00    +0.000 A 
ATOM     23  C   UNL     1      -1.021  10.455  22.977  0.00  0.00    +0.000 A 
ATOM     24  C   UNL     1      -1.309  11.797  23.221  0.00  0.00    +0.000 A 
ATOM     25  C   UNL     1      -0.847  12.780  22.347  0.00  0.00    +0.000 A 
ATOM     26  C   UNL     1      -0.075  12.422  21.243  0.00  0.00    +0.000 A 
ATOM     27  C   UNL     1       0.212  11.078  20.997  0.00  0.00    +0.000 A 
ENDBRANCH  21  22
ENDBRANCH  20  21
ENDBRANCH  17  20
ENDBRANCH   4  16
BRANCH   1  28
ATOM     28  O   UNL     1       6.287   5.684  17.672  0.00  0.00    +0.000 OA
ATOM     29  H   UNL     1       5.959   5.364  18.526  0.00  0.00    +0.000 HD
ENDBRANCH   1  28
TORSDOF 7
ENDMDL
