MODEL 1
REMARK VINA RESULT:      -8.4      0.000      0.000
REMARK  Name = 
REMARK  10 active torsions:
REMARK  status: ('A' for Active; 'I' for Inactive)
REMARK    1  A    between atoms: C_1  and  O_2
REMARK    2  A    between atoms: O_2  and  C_3
REMARK    3  A    between atoms: C_8  and  O_9
REMARK    4  A    between atoms: O_9  and  C_10
REMARK    5  A    between atoms: C_11  and  C_12
REMARK    6  A    between atoms: C_12  and  C_13
REMARK    7  A    between atoms: N_21  and  C_22
REMARK    8  A    between atoms: C_22  and  C_23
REMARK    9  A    between atoms: N_25  and  C_26
REMARK   10  A    between atoms: C_26  and  C_27
REMARK                            x       y       z     vdW  Elec       q    Type
REMARK                         _______ _______ _______ _____ _____    ______ ____
ROOT
ATOM      1  C   UNL     1       1.474   3.946  19.983  0.00  0.00    +0.000 A 
ATOM      2  C   UNL     1       1.663   5.157  20.656  0.00  0.00    +0.000 A 
ATOM      3  C   UNL     1       2.001   6.311  19.951  0.00  0.00    +0.000 A 
ATOM      4  C   UNL     1       2.209   6.268  18.564  0.00  0.00    +0.000 A 
ATOM      5  C   UNL     1       1.992   5.057  17.885  0.00  0.00    +0.000 A 
ATOM      6  C   UNL     1       1.601   3.897  18.582  0.00  0.00    +0.000 A 
ATOM      7  C   UNL     1       2.618   7.568  17.853  0.00  0.00    +0.000 C 
ATOM      8  N   UNL     1       1.721   8.684  18.285  0.00  0.00    +0.000 NA
ATOM      9  C   UNL     1       1.325   8.654  19.714  0.00  0.00    +0.000 C 
ATOM     10  C   UNL     1       2.061   7.653  20.614  0.00  0.00    +0.000 C 
ENDROOT
BRANCH   1  12
ATOM     11  C   UNL     1       2.016   2.530  21.816  0.00  0.00    +0.000 C 
ATOM     12  O   UNL     1       1.087   2.923  20.813  0.00  0.00    +0.000 OA
ENDBRANCH   1  12
BRANCH   6  13
ATOM     13  O   UNL     1       1.294   2.709  17.976  0.00  0.00    +0.000 OA
ATOM     14  C   UNL     1       2.335   1.786  17.706  0.00  0.00    +0.000 C 
ENDBRANCH   6  13
BRANCH   7  15
ATOM     15  C   UNL     1       4.155   7.837  17.983  0.00  0.00    +0.000 C 
BRANCH  15  16
ATOM     16  C   UNL     1       5.041   6.837  17.261  0.00  0.00    +0.000 A 
ATOM     17  C   UNL     1       4.893   6.620  15.880  0.00  0.00    +0.000 A 
ATOM     18  C   UNL     1       5.678   5.665  15.224  0.00  0.00    +0.000 A 
ATOM     19  C   UNL     1       6.618   4.934  15.943  0.00  0.00    +0.000 A 
ATOM     20  F   UNL     1       7.347   4.001  15.313  0.00  0.00    +0.000 F 
ATOM     21  C   UNL     1       6.797   5.167  17.300  0.00  0.00    +0.000 A 
ATOM     22  F   UNL     1       7.725   4.482  17.984  0.00  0.00    +0.000 F 
ATOM     23  C   UNL     1       6.018   6.112  17.962  0.00  0.00    +0.000 A 
ENDBRANCH  15  16
ENDBRANCH   7  15
BRANCH   8  24
ATOM     24  C   UNL     1       2.126  10.056  17.919  0.00  0.00    +0.000 C 
BRANCH  24  25
ATOM     25  C   UNL     1       1.276  11.149  18.556  0.00  0.00    +0.000 C 
ATOM     26  O   UNL     1       1.672  11.797  19.522  0.00  0.00    +0.000 OA
ATOM     27  N   UNL     1       0.016  11.278  18.032  0.00  0.00    +0.000 N 
ATOM     28  H   UNL     1      -0.169  10.819  17.145  0.00  0.00    +0.000 HD
BRANCH  27  29
ATOM     29  C   UNL     1      -0.927  12.231  18.562  0.00  0.00    +0.000 C 
BRANCH  29  30
ATOM     30  C   UNL     1      -2.335  11.755  18.350  0.00  0.00    +0.000 A 
ATOM     31  C   UNL     1      -2.630  10.866  17.309  0.00  0.00    +0.000 A 
ATOM     32  C   UNL     1      -3.945  10.454  17.086  0.00  0.00    +0.000 A 
ATOM     33  C   UNL     1      -4.976  10.931  17.890  0.00  0.00    +0.000 A 
ATOM     34  C   UNL     1      -4.690  11.823  18.928  0.00  0.00    +0.000 A 
ATOM     35  C   UNL     1      -3.377  12.235  19.155  0.00  0.00    +0.000 A 
ENDBRANCH  29  30
ENDBRANCH  27  29
ENDBRANCH  24  25
ENDBRANCH   8  24
TORSDOF 8
ENDMDL
MODEL 2
REMARK VINA RESULT:      -8.2      0.476      1.135
REMARK  Name = 
REMARK  10 active torsions:
REMARK  status: ('A' for Active; 'I' for Inactive)
REMARK    1  A    between atoms: C_1  and  O_2
REMARK    2  A    between atoms: O_2  and  C_3
REMARK    3  A    between atoms: C_8  and  O_9
REMARK    4  A    between atoms: O_9  and  C_10
REMARK    5  A    between atoms: C_11  and  C_12
REMARK    6  A    between atoms: C_12  and  C_13
REMARK    7  A    between atoms: N_21  and  C_22
REMARK    8  A    between atoms: C_22  and  C_23
REMARK    9  A    between atoms: N_25  and  C_26
REMARK   10  A    between atoms: C_26  and  C_27
REMARK                            x       y       z     vdW  Elec       q    Type
REMARK                         _______ _______ _______ _____ _____    ______ ____
ROOT
ATOM      1  C   UNL     1       1.498   4.001  20.082  0.00  0.00    +0.000 A 
ATOM      2  C   UNL     1       1.683   5.230  20.723  0.00  0.00    +0.000 A 
ATOM      3  C   UNL     1       1.988   6.372  19.985  0.00  0.00    +0.000 A 
ATOM      4  C   UNL     1       2.165   6.300  18.595  0.00  0.00    +0.000 A 
ATOM      5  C   UNL     1       1.952   5.071  17.949  0.00  0.00    +0.000 A 
ATOM      6  C   UNL     1       1.595   3.922  18.680  0.00  0.00    +0.000 A 
ATOM      7  C   UNL     1       2.539   7.590  17.845  0.00  0.00    +0.000 C 
ATOM      8  N   UNL     1       1.635   8.702  18.272  0.00  0.00    +0.000 NA
ATOM      9  C   UNL     1       1.271   8.699  19.711  0.00  0.00    +0.000 C 
ATOM     10  C   UNL     1       2.042   7.730  20.616  0.00  0.00    +0.000 C 
ENDROOT
BRANCH   1  12
ATOM     11  C   UNL     1       2.202   2.373  21.668  0.00  0.00    +0.000 C 
ATOM     12  O   UNL     1       1.145   2.992  20.944  0.00  0.00    +0.000 OA
ENDBRANCH   1  12
BRANCH   6  13
ATOM     13  O   UNL     1       1.292   2.716  18.109  0.00  0.00    +0.000 OA
ATOM     14  C   UNL     1       2.350   1.859  17.713  0.00  0.00    +0.000 C 
ENDBRANCH   6  13
BRANCH   7  15
ATOM     15  C   UNL     1       4.074   7.885  17.935  0.00  0.00    +0.000 C 
BRANCH  15  16
ATOM     16  C   UNL     1       4.968   6.769  17.426  0.00  0.00    +0.000 A 
ATOM     17  C   UNL     1       5.799   6.059  18.311  0.00  0.00    +0.000 A 
ATOM     18  C   UNL     1       6.657   5.062  17.834  0.00  0.00    +0.000 A 
ATOM     19  C   UNL     1       6.679   4.764  16.476  0.00  0.00    +0.000 A 
ATOM     20  F   UNL     1       7.523   3.826  16.022  0.00  0.00    +0.000 F 
ATOM     21  C   UNL     1       5.836   5.433  15.598  0.00  0.00    +0.000 A 
ATOM     22  F   UNL     1       5.838   5.122  14.294  0.00  0.00    +0.000 F 
ATOM     23  C   UNL     1       4.982   6.430  16.063  0.00  0.00    +0.000 A 
ENDBRANCH  15  16
ENDBRANCH   7  15
BRANCH   8  24
ATOM     24  C   UNL     1       2.010  10.070  17.866  0.00  0.00    +0.000 C 
BRANCH  24  25
ATOM     25  C   UNL     1       1.161  11.166  18.502  0.00  0.00    +0.000 C 
ATOM     26  O   UNL     1       1.575  11.843  19.441  0.00  0.00    +0.000 OA
ATOM     27  N   UNL     1      -0.115  11.263  18.012  0.00  0.00    +0.000 N 
ATOM     28  H   UNL     1      -0.318  10.781  17.141  0.00  0.00    +0.000 HD
BRANCH  27  29
ATOM     29  C   UNL     1      -1.057  12.215  18.546  0.00  0.00    +0.000 C 
BRANCH  29  30
ATOM     30  C   UNL     1      -2.463  11.817  18.202  0.00  0.00    +0.000 A 
ATOM     31  C   UNL     1      -2.752  11.264  16.947  0.00  0.00    +0.000 A 
ATOM     32  C   UNL     1      -4.065  10.931  16.610  0.00  0.00    +0.000 A 
ATOM     33  C   UNL     1      -5.100  11.154  17.514  0.00  0.00    +0.000 A 
ATOM     34  C   UNL     1      -4.820  11.711  18.765  0.00  0.00    +0.000 A 
ATOM     35  C   UNL     1      -3.509  12.042  19.106  0.00  0.00    +0.000 A 
ENDBRANCH  29  30
ENDBRANCH  27  29
ENDBRANCH  24  25
ENDBRANCH   8  24
TORSDOF 8
ENDMDL
MODEL 3
REMARK VINA RESULT:      -8.1      2.516      4.382
REMARK  Name = 
REMARK  10 active torsions:
REMARK  status: ('A' for Active; 'I' for Inactive)
REMARK    1  A    between atoms: C_1  and  O_2
REMARK    2  A    between atoms: O_2  and  C_3
REMARK    3  A    between atoms: C_8  and  O_9
REMARK    4  A    between atoms: O_9  and  C_10
REMARK    5  A    between atoms: C_11  and  C_12
REMARK    6  A    between atoms: C_12  and  C_13
REMARK    7  A    between atoms: N_21  and  C_22
REMARK    8  A    between atoms: C_22  and  C_23
REMARK    9  A    between atoms: N_25  and  C_26
REMARK   10  A    between atoms: C_26  and  C_27
REMARK                            x       y       z     vdW  Elec       q    Type
REMARK                         _______ _______ _______ _____ _____    ______ ____
ROOT
ATOM      1  C   UNL     1       5.727   6.185  16.790  0.00  0.00    +0.000 A 
ATOM      2  C   UNL     1       4.436   6.677  16.574  0.00  0.00    +0.000 A 
ATOM      3  C   UNL     1       3.544   6.809  17.636  0.00  0.00    +0.000 A 
ATOM      4  C   UNL     1       3.905   6.402  18.930  0.00  0.00    +0.000 A 
ATOM      5  C   UNL     1       5.211   5.934  19.152  0.00  0.00    +0.000 A 
ATOM      6  C   UNL     1       6.137   5.844  18.093  0.00  0.00    +0.000 A 
ATOM      7  C   UNL     1       2.861   6.538  20.050  0.00  0.00    +0.000 C 
ATOM      8  N   UNL     1       2.247   7.902  20.006  0.00  0.00    +0.000 NA
ATOM      9  C   UNL     1       2.024   8.445  18.643  0.00  0.00    +0.000 C 
ATOM     10  C   UNL     1       2.211   7.473  17.472  0.00  0.00    +0.000 C 
ENDROOT
BRANCH   1  12
ATOM     11  C   UNL     1       6.421   5.008  14.843  0.00  0.00    +0.000 C 
ATOM     12  O   UNL     1       6.497   6.175  15.653  0.00  0.00    +0.000 OA
ENDBRANCH   1  12
BRANCH   6  13
ATOM     13  O   UNL     1       7.445   5.476  18.251  0.00  0.00    +0.000 OA
ATOM     14  C   UNL     1       8.026   5.546  19.543  0.00  0.00    +0.000 C 
ENDBRANCH   6  13
BRANCH   7  15
ATOM     15  C   UNL     1       1.857   5.337  20.051  0.00  0.00    +0.000 C 
BRANCH  15  16
ATOM     16  C   UNL     1       2.423   4.033  19.519  0.00  0.00    +0.000 A 
ATOM     17  C   UNL     1       1.925   3.471  18.330  0.00  0.00    +0.000 A 
ATOM     18  C   UNL     1       2.416   2.245  17.865  0.00  0.00    +0.000 A 
ATOM     19  C   UNL     1       3.410   1.586  18.578  0.00  0.00    +0.000 A 
ATOM     20  F   UNL     1       3.855   0.399  18.141  0.00  0.00    +0.000 F 
ATOM     21  C   UNL     1       3.935   2.150  19.733  0.00  0.00    +0.000 A 
ATOM     22  F   UNL     1       4.915   1.525  20.402  0.00  0.00    +0.000 F 
ATOM     23  C   UNL     1       3.450   3.366  20.207  0.00  0.00    +0.000 A 
ENDBRANCH  15  16
ENDBRANCH   7  15
BRANCH   8  24
ATOM     24  C   UNL     1       1.040   8.125  20.825  0.00  0.00    +0.000 C 
BRANCH  24  25
ATOM     25  C   UNL     1       0.467   9.535  20.722  0.00  0.00    +0.000 C 
ATOM     26  O   UNL     1       0.837  10.440  21.465  0.00  0.00    +0.000 OA
ATOM     27  N   UNL     1      -0.549   9.678  19.812  0.00  0.00    +0.000 N 
ATOM     28  H   UNL     1      -0.679   8.930  19.138  0.00  0.00    +0.000 HD
BRANCH  27  29
ATOM     29  C   UNL     1      -1.230  10.936  19.635  0.00  0.00    +0.000 C 
BRANCH  29  30
ATOM     30  C   UNL     1      -2.102  10.897  18.414  0.00  0.00    +0.000 A 
ATOM     31  C   UNL     1      -3.305  11.615  18.384  0.00  0.00    +0.000 A 
ATOM     32  C   UNL     1      -4.138  11.548  17.265  0.00  0.00    +0.000 A 
ATOM     33  C   UNL     1      -3.784  10.761  16.174  0.00  0.00    +0.000 A 
ATOM     34  C   UNL     1      -2.588  10.037  16.198  0.00  0.00    +0.000 A 
ATOM     35  C   UNL     1      -1.753  10.103  17.314  0.00  0.00    +0.000 A 
ENDBRANCH  29  30
ENDBRANCH  27  29
ENDBRANCH  24  25
ENDBRANCH   8  24
TORSDOF 8
ENDMDL
MODEL 4
REMARK VINA RESULT:      -8.1      2.277      3.299
REMARK  Name = 
REMARK  10 active torsions:
REMARK  status: ('A' for Active; 'I' for Inactive)
REMARK    1  A    between atoms: C_1  and  O_2
REMARK    2  A    between atoms: O_2  and  C_3
REMARK    3  A    between atoms: C_8  and  O_9
REMARK    4  A    between atoms: O_9  and  C_10
REMARK    5  A    between atoms: C_11  and  C_12
REMARK    6  A    between atoms: C_12  and  C_13
REMARK    7  A    between atoms: N_21  and  C_22
REMARK    8  A    between atoms: C_22  and  C_23
REMARK    9  A    between atoms: N_25  and  C_26
REMARK   10  A    between atoms: C_26  and  C_27
REMARK                            x       y       z     vdW  Elec       q    Type
REMARK                         _______ _______ _______ _____ _____    ______ ____
ROOT
ATOM      1  C   UNL     1       1.429   3.989  20.118  0.00  0.00    +0.000 A 
ATOM      2  C   UNL     1       1.632   5.222  20.746  0.00  0.00    +0.000 A 
ATOM      3  C   UNL     1       1.976   6.346  19.997  0.00  0.00    +0.000 A 
ATOM      4  C   UNL     1       2.176   6.251  18.612  0.00  0.00    +0.000 A 
ATOM      5  C   UNL     1       1.946   5.019  17.978  0.00  0.00    +0.000 A 
ATOM      6  C   UNL     1       1.549   3.888  18.719  0.00  0.00    +0.000 A 
ATOM      7  C   UNL     1       2.592   7.521  17.851  0.00  0.00    +0.000 C 
ATOM      8  N   UNL     1       1.707   8.660  18.247  0.00  0.00    +0.000 NA
ATOM      9  C   UNL     1       1.318   8.685  19.678  0.00  0.00    +0.000 C 
ATOM     10  C   UNL     1       2.050   7.712  20.611  0.00  0.00    +0.000 C 
ENDROOT
BRANCH   1  12
ATOM     11  C   UNL     1       2.070   2.352  21.721  0.00  0.00    +0.000 C 
ATOM     12  O   UNL     1       1.039   3.000  20.987  0.00  0.00    +0.000 OA
ENDBRANCH   1  12
BRANCH   6  13
ATOM     13  O   UNL     1       1.229   2.681  18.159  0.00  0.00    +0.000 OA
ATOM     14  C   UNL     1       2.272   1.781  17.825  0.00  0.00    +0.000 C 
ENDBRANCH   6  13
BRANCH   7  15
ATOM     15  C   UNL     1       4.132   7.782  17.965  0.00  0.00    +0.000 C 
BRANCH  15  16
ATOM     16  C   UNL     1       5.005   6.768  17.246  0.00  0.00    +0.000 A 
ATOM     17  C   UNL     1       4.883   6.578  15.859  0.00  0.00    +0.000 A 
ATOM     18  C   UNL     1       5.655   5.611  15.205  0.00  0.00    +0.000 A 
ATOM     19  C   UNL     1       6.556   4.841  15.932  0.00  0.00    +0.000 A 
ATOM     20  F   UNL     1       7.272   3.898  15.303  0.00  0.00    +0.000 F 
ATOM     21  C   UNL     1       6.710   5.047  17.296  0.00  0.00    +0.000 A 
ATOM     22  F   UNL     1       7.601   4.323  17.989  0.00  0.00    +0.000 F 
ATOM     23  C   UNL     1       5.943   6.003  17.957  0.00  0.00    +0.000 A 
ENDBRANCH  15  16
ENDBRANCH   7  15
BRANCH   8  24
ATOM     24  C   UNL     1       2.121  10.013  17.829  0.00  0.00    +0.000 C 
BRANCH  24  25
ATOM     25  C   UNL     1       1.297  11.138  18.448  0.00  0.00    +0.000 C 
ATOM     26  O   UNL     1       0.069  11.102  18.473  0.00  0.00    +0.000 OA
ATOM     27  N   UNL     1       2.026  12.217  18.875  0.00  0.00    +0.000 N 
ATOM     28  H   UNL     1       3.030  12.097  18.962  0.00  0.00    +0.000 HD
BRANCH  27  29
ATOM     29  C   UNL     1       1.388  13.383  19.434  0.00  0.00    +0.000 C 
BRANCH  29  30
ATOM     30  C   UNL     1       1.849  14.627  18.730  0.00  0.00    +0.000 A 
ATOM     31  C   UNL     1       3.035  14.617  17.985  0.00  0.00    +0.000 A 
ATOM     32  C   UNL     1       3.486  15.782  17.363  0.00  0.00    +0.000 A 
ATOM     33  C   UNL     1       2.766  16.967  17.487  0.00  0.00    +0.000 A 
ATOM     34  C   UNL     1       1.584  16.986  18.234  0.00  0.00    +0.000 A 
ATOM     35  C   UNL     1       1.130  15.823  18.854  0.00  0.00    +0.000 A 
ENDBRANCH  29  30
ENDBRANCH  27  29
ENDBRANCH  24  25
ENDBRANCH   8  24
TORSDOF 8
ENDMDL
MODEL 5
REMARK VINA RESULT:      -8.0      2.469      4.523
REMARK  Name = 
REMARK  10 active torsions:
REMARK  status: ('A' for Active; 'I' for Inactive)
REMARK    1  A    between atoms: C_1  and  O_2
REMARK    2  A    between atoms: O_2  and  C_3
REMARK    3  A    between atoms: C_8  and  O_9
REMARK    4  A    between atoms: O_9  and  C_10
REMARK    5  A    between atoms: C_11  and  C_12
REMARK    6  A    between atoms: C_12  and  C_13
REMARK    7  A    between atoms: N_21  and  C_22
REMARK    8  A    between atoms: C_22  and  C_23
REMARK    9  A    between atoms: N_25  and  C_26
REMARK   10  A    between atoms: C_26  and  C_27
REMARK                            x       y       z     vdW  Elec       q    Type
REMARK                         _______ _______ _______ _____ _____    ______ ____
ROOT
ATOM      1  C   UNL     1       5.396   6.333  17.000  0.00  0.00    +0.000 A 
ATOM      2  C   UNL     1       4.145   6.924  16.795  0.00  0.00    +0.000 A 
ATOM      3  C   UNL     1       3.248   7.062  17.853  0.00  0.00    +0.000 A 
ATOM      4  C   UNL     1       3.561   6.565  19.127  0.00  0.00    +0.000 A 
ATOM      5  C   UNL     1       4.828   5.996  19.339  0.00  0.00    +0.000 A 
ATOM      6  C   UNL     1       5.761   5.897  18.288  0.00  0.00    +0.000 A 
ATOM      7  C   UNL     1       2.511   6.715  20.240  0.00  0.00    +0.000 C 
ATOM      8  N   UNL     1       1.993   8.118  20.261  0.00  0.00    +0.000 NA
ATOM      9  C   UNL     1       1.829   8.746  18.926  0.00  0.00    +0.000 C 
ATOM     10  C   UNL     1       1.967   7.825  17.707  0.00  0.00    +0.000 C 
ENDROOT
BRANCH   1  12
ATOM     11  C   UNL     1       6.147   5.149  15.079  0.00  0.00    +0.000 C 
ATOM     12  O   UNL     1       6.181   6.328  15.874  0.00  0.00    +0.000 OA
ENDBRANCH   1  12
BRANCH   6  13
ATOM     13  O   UNL     1       7.038   5.431  18.442  0.00  0.00    +0.000 OA
ATOM     14  C   UNL     1       8.035   6.311  18.936  0.00  0.00    +0.000 C 
ENDBRANCH   6  13
BRANCH   7  15
ATOM     15  C   UNL     1       1.426   5.587  20.166  0.00  0.00    +0.000 C 
BRANCH  15  16
ATOM     16  C   UNL     1       1.955   4.219  19.774  0.00  0.00    +0.000 A 
ATOM     17  C   UNL     1       2.565   3.389  20.731  0.00  0.00    +0.000 A 
ATOM     18  C   UNL     1       3.094   2.148  20.359  0.00  0.00    +0.000 A 
ATOM     19  C   UNL     1       3.005   1.729  19.036  0.00  0.00    +0.000 A 
ATOM     20  F   UNL     1       3.539   0.551  18.682  0.00  0.00    +0.000 F 
ATOM     21  C   UNL     1       2.372   2.525  18.091  0.00  0.00    +0.000 A 
ATOM     22  F   UNL     1       2.262   2.106  16.822  0.00  0.00    +0.000 F 
ATOM     23  C   UNL     1       1.847   3.764  18.450  0.00  0.00    +0.000 A 
ENDBRANCH  15  16
ENDBRANCH   7  15
BRANCH   8  24
ATOM     24  C   UNL     1       0.792   8.382  21.076  0.00  0.00    +0.000 C 
BRANCH  24  25
ATOM     25  C   UNL     1       0.216   9.784  20.906  0.00  0.00    +0.000 C 
ATOM     26  O   UNL     1       0.531  10.708  21.652  0.00  0.00    +0.000 OA
ATOM     27  N   UNL     1      -0.739   9.900  19.931  0.00  0.00    +0.000 N 
ATOM     28  H   UNL     1      -0.821   9.137  19.265  0.00  0.00    +0.000 HD
BRANCH  27  29
ATOM     29  C   UNL     1      -1.416  11.148  19.683  0.00  0.00    +0.000 C 
BRANCH  29  30
ATOM     30  C   UNL     1      -2.265  11.054  18.448  0.00  0.00    +0.000 A 
ATOM     31  C   UNL     1      -3.519  11.677  18.405  0.00  0.00    +0.000 A 
ATOM     32  C   UNL     1      -4.327  11.556  17.273  0.00  0.00    +0.000 A 
ATOM     33  C   UNL     1      -3.897  10.808  16.181  0.00  0.00    +0.000 A 
ATOM     34  C   UNL     1      -2.649  10.178  16.218  0.00  0.00    +0.000 A 
ATOM     35  C   UNL     1      -1.839  10.299  17.347  0.00  0.00    +0.000 A 
ENDBRANCH  29  30
ENDBRANCH  27  29
ENDBRANCH  24  25
ENDBRANCH   8  24
TORSDOF 8
ENDMDL
MODEL 6
REMARK VINA RESULT:      -7.9      2.919      4.734
REMARK  Name = 
REMARK  10 active torsions:
REMARK  status: ('A' for Active; 'I' for Inactive)
REMARK    1  A    between atoms: C_1  and  O_2
REMARK    2  A    between atoms: O_2  and  C_3
REMARK    3  A    between atoms: C_8  and  O_9
REMARK    4  A    between atoms: O_9  and  C_10
REMARK    5  A    between atoms: C_11  and  C_12
REMARK    6  A    between atoms: C_12  and  C_13
REMARK    7  A    between atoms: N_21  and  C_22
REMARK    8  A    between atoms: C_22  and  C_23
REMARK    9  A    between atoms: N_25  and  C_26
REMARK   10  A    between atoms: C_26  and  C_27
REMARK                            x       y       z     vdW  Elec       q    Type
REMARK                         _______ _______ _______ _____ _____    ______ ____
ROOT
ATOM      1  C   UNL     1       5.801   6.182  16.820  0.00  0.00    +0.000 A 
ATOM      2  C   UNL     1       4.518   6.682  16.575  0.00  0.00    +0.000 A 
ATOM      3  C   UNL     1       3.598   6.805  17.615  0.00  0.00    +0.000 A 
ATOM      4  C   UNL     1       3.923   6.382  18.913  0.00  0.00    +0.000 A 
ATOM      5  C   UNL     1       5.220   5.905  19.163  0.00  0.00    +0.000 A 
ATOM      6  C   UNL     1       6.174   5.824  18.129  0.00  0.00    +0.000 A 
ATOM      7  C   UNL     1       2.849   6.508  20.006  0.00  0.00    +0.000 C 
ATOM      8  N   UNL     1       2.242   7.875  19.961  0.00  0.00    +0.000 NA
ATOM      9  C   UNL     1       2.057   8.436  18.600  0.00  0.00    +0.000 C 
ATOM     10  C   UNL     1       2.272   7.477  17.422  0.00  0.00    +0.000 C 
ENDROOT
BRANCH   1  12
ATOM     11  C   UNL     1       6.578   5.007  14.903  0.00  0.00    +0.000 C 
ATOM     12  O   UNL     1       6.601   6.182  15.704  0.00  0.00    +0.000 OA
ENDBRANCH   1  12
BRANCH   6  13
ATOM     13  O   UNL     1       7.475   5.449  18.318  0.00  0.00    +0.000 OA
ATOM     14  C   UNL     1       8.105   5.750  19.553  0.00  0.00    +0.000 C 
ENDBRANCH   6  13
BRANCH   7  15
ATOM     15  C   UNL     1       1.841   5.311  19.965  0.00  0.00    +0.000 C 
BRANCH  15  16
ATOM     16  C   UNL     1       2.426   4.002  19.467  0.00  0.00    +0.000 A 
ATOM     17  C   UNL     1       1.984   3.437  18.257  0.00  0.00    +0.000 A 
ATOM     18  C   UNL     1       2.490   2.207  17.822  0.00  0.00    +0.000 A 
ATOM     19  C   UNL     1       3.445   1.546  18.586  0.00  0.00    +0.000 A 
ATOM     20  F   UNL     1       3.905   0.355  18.176  0.00  0.00    +0.000 F 
ATOM     21  C   UNL     1       3.915   2.112  19.763  0.00  0.00    +0.000 A 
ATOM     22  F   UNL     1       4.857   1.486  20.482  0.00  0.00    +0.000 F 
ATOM     23  C   UNL     1       3.414   3.334  20.207  0.00  0.00    +0.000 A 
ENDBRANCH  15  16
ENDBRANCH   7  15
BRANCH   8  24
ATOM     24  C   UNL     1       1.014   8.094  20.751  0.00  0.00    +0.000 C 
BRANCH  24  25
ATOM     25  C   UNL     1       0.993   9.409  21.522  0.00  0.00    +0.000 C 
ATOM     26  O   UNL     1       1.422   9.493  22.670  0.00  0.00    +0.000 OA
ATOM     27  N   UNL     1       0.375  10.446  20.874  0.00  0.00    +0.000 N 
ATOM     28  H   UNL     1       0.195  10.335  19.881  0.00  0.00    +0.000 HD
BRANCH  27  29
ATOM     29  C   UNL     1       0.227  11.740  21.493  0.00  0.00    +0.000 C 
BRANCH  29  30
ATOM     30  C   UNL     1      -1.218  12.026  21.782  0.00  0.00    +0.000 A 
ATOM     31  C   UNL     1      -2.056  12.515  20.771  0.00  0.00    +0.000 A 
ATOM     32  C   UNL     1      -3.390  12.820  21.047  0.00  0.00    +0.000 A 
ATOM     33  C   UNL     1      -3.896  12.650  22.333  0.00  0.00    +0.000 A 
ATOM     34  C   UNL     1      -3.065  12.168  23.348  0.00  0.00    +0.000 A 
ATOM     35  C   UNL     1      -1.732  11.860  23.074  0.00  0.00    +0.000 A 
ENDBRANCH  29  30
ENDBRANCH  27  29
ENDBRANCH  24  25
ENDBRANCH   8  24
TORSDOF 8
ENDMDL
MODEL 7
REMARK VINA RESULT:      -7.8      1.400      2.060
REMARK  Name = 
REMARK  10 active torsions:
REMARK  status: ('A' for Active; 'I' for Inactive)
REMARK    1  A    between atoms: C_1  and  O_2
REMARK    2  A    between atoms: O_2  and  C_3
REMARK    3  A    between atoms: C_8  and  O_9
REMARK    4  A    between atoms: O_9  and  C_10
REMARK    5  A    between atoms: C_11  and  C_12
REMARK    6  A    between atoms: C_12  and  C_13
REMARK    7  A    between atoms: N_21  and  C_22
REMARK    8  A    between atoms: C_22  and  C_23
REMARK    9  A    between atoms: N_25  and  C_26
REMARK   10  A    between atoms: C_26  and  C_27
REMARK                            x       y       z     vdW  Elec       q    Type
REMARK                         _______ _______ _______ _____ _____    ______ ____
ROOT
ATOM      1  C   UNL     1       1.441   3.996  20.074  0.00  0.00    +0.000 A 
ATOM      2  C   UNL     1       1.653   5.221  20.716  0.00  0.00    +0.000 A 
ATOM      3  C   UNL     1       2.017   6.348  19.982  0.00  0.00    +0.000 A 
ATOM      4  C   UNL     1       2.230   6.264  18.598  0.00  0.00    +0.000 A 
ATOM      5  C   UNL     1       1.991   5.041  17.950  0.00  0.00    +0.000 A 
ATOM      6  C   UNL     1       1.573   3.908  18.675  0.00  0.00    +0.000 A 
ATOM      7  C   UNL     1       2.669   7.537  17.854  0.00  0.00    +0.000 C 
ATOM      8  N   UNL     1       1.793   8.682  18.252  0.00  0.00    +0.000 NA
ATOM      9  C   UNL     1       1.391   8.698  19.680  0.00  0.00    +0.000 C 
ATOM     10  C   UNL     1       2.102   7.706  20.610  0.00  0.00    +0.000 C 
ENDROOT
BRANCH   1  12
ATOM     11  C   UNL     1       2.030   2.417  21.752  0.00  0.00    +0.000 C 
ATOM     12  O   UNL     1       1.030   3.004  20.929  0.00  0.00    +0.000 OA
ENDBRANCH   1  12
BRANCH   6  13
ATOM     13  O   UNL     1       1.244   2.711  18.100  0.00  0.00    +0.000 OA
ATOM     14  C   UNL     1       2.275   1.783  17.808  0.00  0.00    +0.000 C 
ENDBRANCH   6  13
BRANCH   7  15
ATOM     15  C   UNL     1       4.211   7.778  17.985  0.00  0.00    +0.000 C 
BRANCH  15  16
ATOM     16  C   UNL     1       5.077   6.774  17.246  0.00  0.00    +0.000 A 
ATOM     17  C   UNL     1       4.907   6.564  15.866  0.00  0.00    +0.000 A 
ATOM     18  C   UNL     1       5.675   5.605  15.194  0.00  0.00    +0.000 A 
ATOM     19  C   UNL     1       6.619   4.865  15.895  0.00  0.00    +0.000 A 
ATOM     20  F   UNL     1       7.331   3.929  15.250  0.00  0.00    +0.000 F 
ATOM     21  C   UNL     1       6.821   5.090  17.250  0.00  0.00    +0.000 A 
ATOM     22  F   UNL     1       7.754   4.395  17.917  0.00  0.00    +0.000 F 
ATOM     23  C   UNL     1       6.059   6.038  17.928  0.00  0.00    +0.000 A 
ENDBRANCH  15  16
ENDBRANCH   7  15
BRANCH   8  24
ATOM     24  C   UNL     1       2.228  10.035  17.853  0.00  0.00    +0.000 C 
BRANCH  24  25
ATOM     25  C   UNL     1       1.292  11.151  18.303  0.00  0.00    +0.000 C 
ATOM     26  O   UNL     1       1.719  12.204  18.771  0.00  0.00    +0.000 OA
ATOM     27  N   UNL     1      -0.042  10.846  18.235  0.00  0.00    +0.000 N 
ATOM     28  H   UNL     1      -0.306  10.028  17.694  0.00  0.00    +0.000 HD
BRANCH  27  29
ATOM     29  C   UNL     1      -1.052  11.777  18.674  0.00  0.00    +0.000 C 
BRANCH  29  30
ATOM     30  C   UNL     1      -1.132  11.801  20.173  0.00  0.00    +0.000 A 
ATOM     31  C   UNL     1      -1.546  12.962  20.838  0.00  0.00    +0.000 A 
ATOM     32  C   UNL     1      -1.583  13.000  22.233  0.00  0.00    +0.000 A 
ATOM     33  C   UNL     1      -1.200  11.886  22.975  0.00  0.00    +0.000 A 
ATOM     34  C   UNL     1      -0.780  10.725  22.319  0.00  0.00    +0.000 A 
ATOM     35  C   UNL     1      -0.745  10.684  20.925  0.00  0.00    +0.000 A 
ENDBRANCH  29  30
ENDBRANCH  27  29
ENDBRANCH  24  25
ENDBRANCH   8  24
TORSDOF 8
ENDMDL
MODEL 8
REMARK VINA RESULT:      -7.8      2.262      3.507
REMARK  Name = 
REMARK  10 active torsions:
REMARK  status: ('A' for Active; 'I' for Inactive)
REMARK    1  A    between atoms: C_1  and  O_2
REMARK    2  A    between atoms: O_2  and  C_3
REMARK    3  A    between atoms: C_8  and  O_9
REMARK    4  A    between atoms: O_9  and  C_10
REMARK    5  A    between atoms: C_11  and  C_12
REMARK    6  A    between atoms: C_12  and  C_13
REMARK    7  A    between atoms: N_21  and  C_22
REMARK    8  A    between atoms: C_22  and  C_23
REMARK    9  A    between atoms: N_25  and  C_26
REMARK   10  A    between atoms: C_26  and  C_27
REMARK                            x       y       z     vdW  Elec       q    Type
REMARK                         _______ _______ _______ _____ _____    ______ ____
ROOT
ATOM      1  C   UNL     1       1.454   3.929  20.041  0.00  0.00    +0.000 A 
ATOM      2  C   UNL     1       1.655   5.144  20.703  0.00  0.00    +0.000 A 
ATOM      3  C   UNL     1       1.990   6.291  19.987  0.00  0.00    +0.000 A 
ATOM      4  C   UNL     1       2.184   6.238  18.598  0.00  0.00    +0.000 A 
ATOM      5  C   UNL     1       1.956   5.023  17.930  0.00  0.00    +0.000 A 
ATOM      6  C   UNL     1       1.568   3.869  18.639  0.00  0.00    +0.000 A 
ATOM      7  C   UNL     1       2.591   7.531  17.873  0.00  0.00    +0.000 C 
ATOM      8  N   UNL     1       1.703   8.654  18.306  0.00  0.00    +0.000 NA
ATOM      9  C   UNL     1       1.320   8.635  19.739  0.00  0.00    +0.000 C 
ATOM     10  C   UNL     1       2.061   7.638  20.640  0.00  0.00    +0.000 C 
ENDROOT
BRANCH   1  12
ATOM     11  C   UNL     1       1.953   2.610  21.956  0.00  0.00    +0.000 C 
ATOM     12  O   UNL     1       1.072   2.913  20.882  0.00  0.00    +0.000 OA
ENDBRANCH   1  12
BRANCH   6  13
ATOM     13  O   UNL     1       1.250   2.678  18.045  0.00  0.00    +0.000 OA
ATOM     14  C   UNL     1       2.283   1.740  17.793  0.00  0.00    +0.000 C 
ENDBRANCH   6  13
BRANCH   7  15
ATOM     15  C   UNL     1       4.131   7.796  17.987  0.00  0.00    +0.000 C 
BRANCH  15  16
ATOM     16  C   UNL     1       5.010   6.695  17.421  0.00  0.00    +0.000 A 
ATOM     17  C   UNL     1       5.889   5.983  18.256  0.00  0.00    +0.000 A 
ATOM     18  C   UNL     1       6.733   5.001  17.726  0.00  0.00    +0.000 A 
ATOM     19  C   UNL     1       6.692   4.720  16.365  0.00  0.00    +0.000 A 
ATOM     20  F   UNL     1       7.522   3.796  15.859  0.00  0.00    +0.000 F 
ATOM     21  C   UNL     1       5.801   5.390  15.537  0.00  0.00    +0.000 A 
ATOM     22  F   UNL     1       5.743   5.096  14.231  0.00  0.00    +0.000 F 
ATOM     23  C   UNL     1       4.961   6.373  16.055  0.00  0.00    +0.000 A 
ENDBRANCH  15  16
ENDBRANCH   7  15
BRANCH   8  24
ATOM     24  C   UNL     1       2.109  10.021  17.926  0.00  0.00    +0.000 C 
BRANCH  24  25
ATOM     25  C   UNL     1       1.182  11.115  18.445  0.00  0.00    +0.000 C 
ATOM     26  O   UNL     1      -0.040  11.021  18.364  0.00  0.00    +0.000 OA
ATOM     27  N   UNL     1       1.819  12.236  18.910  0.00  0.00    +0.000 N 
ATOM     28  H   UNL     1       2.817  12.166  19.087  0.00  0.00    +0.000 HD
BRANCH  27  29
ATOM     29  C   UNL     1       1.081  13.380  19.385  0.00  0.00    +0.000 C 
BRANCH  29  30
ATOM     30  C   UNL     1       1.632  14.647  18.797  0.00  0.00    +0.000 A 
ATOM     31  C   UNL     1       0.888  15.833  18.855  0.00  0.00    +0.000 A 
ATOM     32  C   UNL     1       1.381  17.002  18.273  0.00  0.00    +0.000 A 
ATOM     33  C   UNL     1       2.611  16.997  17.623  0.00  0.00    +0.000 A 
ATOM     34  C   UNL     1       3.356  15.816  17.555  0.00  0.00    +0.000 A 
ATOM     35  C   UNL     1       2.868  14.647  18.138  0.00  0.00    +0.000 A 
ENDBRANCH  29  30
ENDBRANCH  27  29
ENDBRANCH  24  25
ENDBRANCH   8  24
TORSDOF 8
ENDMDL
MODEL 9
REMARK VINA RESULT:      -7.8      1.821      2.426
REMARK  Name = 
REMARK  10 active torsions:
REMARK  status: ('A' for Active; 'I' for Inactive)
REMARK    1  A    between atoms: C_1  and  O_2
REMARK    2  A    between atoms: O_2  and  C_3
REMARK    3  A    between atoms: C_8  and  O_9
REMARK    4  A    between atoms: O_9  and  C_10
REMARK    5  A    between atoms: C_11  and  C_12
REMARK    6  A    between atoms: C_12  and  C_13
REMARK    7  A    between atoms: N_21  and  C_22
REMARK    8  A    between atoms: C_22  and  C_23
REMARK    9  A    between atoms: N_25  and  C_26
REMARK   10  A    between atoms: C_26  and  C_27
REMARK                            x       y       z     vdW  Elec       q    Type
REMARK                         _______ _______ _______ _____ _____    ______ ____
ROOT
ATOM      1  C   UNL     1       1.745   3.798  20.015  0.00  0.00    +0.000 A 
ATOM      2  C   UNL     1       1.921   4.996  20.714  0.00  0.00    +0.000 A 
ATOM      3  C   UNL     1       2.086   6.197  20.027  0.00  0.00    +0.000 A 
ATOM      4  C   UNL     1       2.132   6.219  18.625  0.00  0.00    +0.000 A 
ATOM      5  C   UNL     1       1.928   5.020  17.922  0.00  0.00    +0.000 A 
ATOM      6  C   UNL     1       1.710   3.808  18.608  0.00  0.00    +0.000 A 
ATOM      7  C   UNL     1       2.355   7.572  17.929  0.00  0.00    +0.000 C 
ATOM      8  N   UNL     1       1.434   8.598  18.510  0.00  0.00    +0.000 NA
ATOM      9  C   UNL     1       1.212   8.485  19.972  0.00  0.00    +0.000 C 
ATOM     10  C   UNL     1       2.122   7.516  20.738  0.00  0.00    +0.000 C 
ENDROOT
BRANCH   1  12
ATOM     11  C   UNL     1       2.548   2.447  21.801  0.00  0.00    +0.000 C 
ATOM     12  O   UNL     1       1.537   2.719  20.838  0.00  0.00    +0.000 OA
ENDBRANCH   1  12
BRANCH   6  13
ATOM     13  O   UNL     1       1.424   2.622  17.990  0.00  0.00    +0.000 OA
ATOM     14  C   UNL     1       2.488   1.742  17.667  0.00  0.00    +0.000 C 
ENDBRANCH   6  13
BRANCH   7  15
ATOM     15  C   UNL     1       3.872   7.959  17.894  0.00  0.00    +0.000 C 
BRANCH  15  16
ATOM     16  C   UNL     1       4.802   6.851  17.431  0.00  0.00    +0.000 A 
ATOM     17  C   UNL     1       5.572   6.130  18.360  0.00  0.00    +0.000 A 
ATOM     18  C   UNL     1       6.463   5.141  17.928  0.00  0.00    +0.000 A 
ATOM     19  C   UNL     1       6.577   4.863  16.570  0.00  0.00    +0.000 A 
ATOM     20  F   UNL     1       7.453   3.933  16.161  0.00  0.00    +0.000 F 
ATOM     21  C   UNL     1       5.794   5.543  15.647  0.00  0.00    +0.000 A 
ATOM     22  F   UNL     1       5.885   5.252  14.342  0.00  0.00    +0.000 F 
ATOM     23  C   UNL     1       4.908   6.532  16.068  0.00  0.00    +0.000 A 
ENDBRANCH  15  16
ENDBRANCH   7  15
BRANCH   8  24
ATOM     24  C   UNL     1       1.689  10.009  18.161  0.00  0.00    +0.000 C 
BRANCH  24  25
ATOM     25  C   UNL     1       0.550  10.957  18.521  0.00  0.00    +0.000 C 
ATOM     26  O   UNL     1      -0.553  10.876  17.987  0.00  0.00    +0.000 OA
ATOM     27  N   UNL     1       0.887  11.951  19.403  0.00  0.00    +0.000 N 
ATOM     28  H   UNL     1       1.761  11.849  19.910  0.00  0.00    +0.000 HD
BRANCH  27  29
ATOM     29  C   UNL     1      -0.065  12.958  19.802  0.00  0.00    +0.000 C 
BRANCH  29  30
ATOM     30  C   UNL     1      -0.807  12.525  21.033  0.00  0.00    +0.000 A 
ATOM     31  C   UNL     1      -0.307  11.486  21.829  0.00  0.00    +0.000 A 
ATOM     32  C   UNL     1      -1.016  11.054  22.952  0.00  0.00    +0.000 A 
ATOM     33  C   UNL     1      -2.231  11.647  23.284  0.00  0.00    +0.000 A 
ATOM     34  C   UNL     1      -2.740  12.680  22.491  0.00  0.00    +0.000 A 
ATOM     35  C   UNL     1      -2.032  13.114  21.371  0.00  0.00    +0.000 A 
ENDBRANCH  29  30
ENDBRANCH  27  29
ENDBRANCH  24  25
ENDBRANCH   8  24
TORSDOF 8
ENDMDL
