MODEL 1
REMARK VINA RESULT:      -8.9      0.000      0.000
REMARK  Name = 
REMARK  5 active torsions:
REMARK  status: ('A' for Active; 'I' for Inactive)
REMARK    1  A    between atoms: C_2  and  O_3
REMARK    2  A    between atoms: C_2  and  C_4
REMARK    3  A    between atoms: C_6  and  N_7
REMARK    4  A    between atoms: N_7  and  C_8
REMARK    5  A    between atoms: C_8  and  C_9
REMARK                            x       y       z     vdW  Elec       q    Type
REMARK                         _______ _______ _______ _____ _____    ______ ____
ROOT
ATOM      1  C   UNL     1       3.446   5.551  18.005  0.00  0.00    +0.000 C 
ATOM      2  C   UNL     1       2.086   4.800  17.981  0.00  0.00    +0.000 C 
ATOM      3  O   UNL     1       1.240   4.745  17.101  0.00  0.00    +0.000 OA
ATOM      4  C   UNL     1       1.953   4.013  19.197  0.00  0.00    +0.000 A 
ATOM      5  C   UNL     1       0.896   3.189  19.538  0.00  0.00    +0.000 A 
ATOM      6  C   UNL     1       0.990   2.491  20.740  0.00  0.00    +0.000 A 
ATOM      7  C   UNL     1       2.127   2.628  21.560  0.00  0.00    +0.000 A 
ATOM      8  C   UNL     1       3.186   3.467  21.189  0.00  0.00    +0.000 A 
ATOM      9  C   UNL     1       3.073   4.152  19.993  0.00  0.00    +0.000 A 
ATOM     10  C   UNL     1       4.017   5.084  19.373  0.00  0.00    +0.000 C 
ATOM     11  O   UNL     1       5.043   5.458  19.921  0.00  0.00    +0.000 OA
ENDROOT
BRANCH   1  12
ATOM     12  C   UNL     1       4.382   5.130  16.866  0.00  0.00    +0.000 A 
ATOM     13  C   UNL     1       4.977   6.079  16.013  0.00  0.00    +0.000 A 
ATOM     14  C   UNL     1       5.809   5.681  14.960  0.00  0.00    +0.000 A 
ATOM     15  C   UNL     1       6.079   4.331  14.751  0.00  0.00    +0.000 A 
ATOM     16  C   UNL     1       5.535   3.379  15.603  0.00  0.00    +0.000 A 
ATOM     17  C   UNL     1       4.703   3.774  16.653  0.00  0.00    +0.000 A 
ENDBRANCH   1  12
BRANCH   1  18
ATOM     18  N   UNL     1       3.242   7.021  18.090  0.00  0.00    +0.000 N 
ATOM     19  H   UNL     1       3.903   7.574  17.550  0.00  0.00    +0.000 HD
BRANCH  18  22
ATOM     20  C   UNL     1       0.793   9.602  19.120  0.00  0.00    +0.000 A 
ATOM     21  C   UNL     1       1.657   8.802  18.340  0.00  0.00    +0.000 A 
ATOM     22  C   UNL     1       2.327   7.692  18.874  0.00  0.00    +0.000 A 
ATOM     23  C   UNL     1       2.090   7.390  20.214  0.00  0.00    +0.000 A 
ATOM     24  C   UNL     1       1.254   8.179  21.010  0.00  0.00    +0.000 A 
ATOM     25  C   UNL     1       0.611   9.291  20.470  0.00  0.00    +0.000 A 
ATOM     26 CL   UNL     1      -0.365  10.227  21.544  0.00  0.00    +0.000 Cl
BRANCH  20  28
ATOM     27  O   UNL     1       0.540  11.910  18.639  0.00  0.00    +0.000 OA
ATOM     28  C   UNL     1       0.174  10.764  18.430  0.00  0.00    +0.000 C 
BRANCH  28  29
ATOM     29  O   UNL     1      -0.744  10.464  17.490  0.00  0.00    +0.000 OA
ATOM     30  H   UNL     1      -1.213   9.616  17.621  0.00  0.00    +0.000 HD
ENDBRANCH  28  29
ENDBRANCH  20  28
ENDBRANCH  18  22
ENDBRANCH   1  18
TORSDOF 5
ENDMDL
MODEL 2
REMARK VINA RESULT:      -8.6      1.457      1.938
REMARK  Name = 
REMARK  5 active torsions:
REMARK  status: ('A' for Active; 'I' for Inactive)
REMARK    1  A    between atoms: C_2  and  O_3
REMARK    2  A    between atoms: C_2  and  C_4
REMARK    3  A    between atoms: C_6  and  N_7
REMARK    4  A    between atoms: N_7  and  C_8
REMARK    5  A    between atoms: C_8  and  C_9
REMARK                            x       y       z     vdW  Elec       q    Type
REMARK                         _______ _______ _______ _____ _____    ______ ____
ROOT
ATOM      1  C   UNL     1       3.656   5.677  18.164  0.00  0.00    +0.000 C 
ATOM      2  C   UNL     1       2.188   5.169  18.177  0.00  0.00    +0.000 C 
ATOM      3  O   UNL     1       1.298   5.332  17.356  0.00  0.00    +0.000 OA
ATOM      4  C   UNL     1       1.989   4.312  19.336  0.00  0.00    +0.000 A 
ATOM      5  C   UNL     1       0.826   3.650  19.686  0.00  0.00    +0.000 A 
ATOM      6  C   UNL     1       0.865   2.844  20.822  0.00  0.00    +0.000 A 
ATOM      7  C   UNL     1       2.053   2.718  21.569  0.00  0.00    +0.000 A 
ATOM      8  C   UNL     1       3.218   3.398  21.191  0.00  0.00    +0.000 A 
ATOM      9  C   UNL     1       3.159   4.192  20.061  0.00  0.00    +0.000 A 
ATOM     10  C   UNL     1       4.214   5.005  19.450  0.00  0.00    +0.000 C 
ATOM     11  O   UNL     1       5.317   5.153  19.952  0.00  0.00    +0.000 OA
ENDROOT
BRANCH   1  12
ATOM     12  C   UNL     1       4.442   5.207  16.934  0.00  0.00    +0.000 A 
ATOM     13  C   UNL     1       4.992   6.122  16.017  0.00  0.00    +0.000 A 
ATOM     14  C   UNL     1       5.684   5.680  14.884  0.00  0.00    +0.000 A 
ATOM     15  C   UNL     1       5.858   4.317  14.655  0.00  0.00    +0.000 A 
ATOM     16  C   UNL     1       5.357   3.396  15.566  0.00  0.00    +0.000 A 
ATOM     17  C   UNL     1       4.664   3.836  16.696  0.00  0.00    +0.000 A 
ENDBRANCH   1  12
BRANCH   1  18
ATOM     18  N   UNL     1       3.713   7.147  18.375  0.00  0.00    +0.000 N 
ATOM     19  H   UNL     1       4.653   7.537  18.407  0.00  0.00    +0.000 HD
BRANCH  18  22
ATOM     20  C   UNL     1       0.928   8.802  20.172  0.00  0.00    +0.000 A 
ATOM     21  C   UNL     1       2.083   8.039  19.891  0.00  0.00    +0.000 A 
ATOM     22  C   UNL     1       2.654   7.998  18.610  0.00  0.00    +0.000 A 
ATOM     23  C   UNL     1       2.045   8.765  17.617  0.00  0.00    +0.000 A 
ATOM     24  C   UNL     1       0.890   9.511  17.869  0.00  0.00    +0.000 A 
ATOM     25  C   UNL     1       0.323   9.526  19.141  0.00  0.00    +0.000 A 
ATOM     26 CL   UNL     1      -1.127  10.443  19.340  0.00  0.00    +0.000 Cl
BRANCH  20  28
ATOM     27  O   UNL     1      -0.573   8.074  21.856  0.00  0.00    +0.000 OA
ATOM     28  C   UNL     1       0.416   8.728  21.565  0.00  0.00    +0.000 C 
BRANCH  28  29
ATOM     29  O   UNL     1       1.170   9.344  22.497  0.00  0.00    +0.000 OA
ATOM     30  H   UNL     1       0.713  10.042  23.009  0.00  0.00    +0.000 HD
ENDBRANCH  28  29
ENDBRANCH  20  28
ENDBRANCH  18  22
ENDBRANCH   1  18
TORSDOF 5
ENDMDL
MODEL 3
REMARK VINA RESULT:      -8.1      3.485      6.218
REMARK  Name = 
REMARK  5 active torsions:
REMARK  status: ('A' for Active; 'I' for Inactive)
REMARK    1  A    between atoms: C_2  and  O_3
REMARK    2  A    between atoms: C_2  and  C_4
REMARK    3  A    between atoms: C_6  and  N_7
REMARK    4  A    between atoms: N_7  and  C_8
REMARK    5  A    between atoms: C_8  and  C_9
REMARK                            x       y       z     vdW  Elec       q    Type
REMARK                         _______ _______ _______ _____ _____    ______ ____
ROOT
ATOM      1  C   UNL     1       5.885   5.030  15.771  0.00  0.00    +0.000 C 
ATOM      2  C   UNL     1       7.011   4.867  16.829  0.00  0.00    +0.000 C 
ATOM      3  O   UNL     1       7.653   3.874  17.138  0.00  0.00    +0.000 OA
ATOM      4  C   UNL     1       7.321   6.167  17.403  0.00  0.00    +0.000 A 
ATOM      5  C   UNL     1       8.281   6.442  18.359  0.00  0.00    +0.000 A 
ATOM      6  C   UNL     1       8.441   7.772  18.743  0.00  0.00    +0.000 A 
ATOM      7  C   UNL     1       7.649   8.783  18.164  0.00  0.00    +0.000 A 
ATOM      8  C   UNL     1       6.685   8.478  17.194  0.00  0.00    +0.000 A 
ATOM      9  C   UNL     1       6.542   7.152  16.827  0.00  0.00    +0.000 A 
ATOM     10  C   UNL     1       5.622   6.560  15.853  0.00  0.00    +0.000 C 
ATOM     11  O   UNL     1       4.756   7.201  15.278  0.00  0.00    +0.000 OA
ENDROOT
BRANCH   1  12
ATOM     12  C   UNL     1       6.331   4.642  14.356  0.00  0.00    +0.000 A 
ATOM     13  C   UNL     1       7.454   5.234  13.749  0.00  0.00    +0.000 A 
ATOM     14  C   UNL     1       7.834   4.890  12.447  0.00  0.00    +0.000 A 
ATOM     15  C   UNL     1       7.114   3.936  11.734  0.00  0.00    +0.000 A 
ATOM     16  C   UNL     1       6.025   3.310  12.326  0.00  0.00    +0.000 A 
ATOM     17  C   UNL     1       5.643   3.653  13.625  0.00  0.00    +0.000 A 
ENDBRANCH   1  12
BRANCH   1  18
ATOM     18  N   UNL     1       4.641   4.345  16.207  0.00  0.00    +0.000 N 
ATOM     19  H   UNL     1       4.150   3.842  15.470  0.00  0.00    +0.000 HD
BRANCH  18  22
ATOM     20  C   UNL     1       3.765   3.348  19.666  0.00  0.00    +0.000 A 
ATOM     21  C   UNL     1       4.407   3.427  18.410  0.00  0.00    +0.000 A 
ATOM     22  C   UNL     1       4.055   4.392  17.455  0.00  0.00    +0.000 A 
ATOM     23  C   UNL     1       3.052   5.296  17.803  0.00  0.00    +0.000 A 
ATOM     24  C   UNL     1       2.391   5.224  19.033  0.00  0.00    +0.000 A 
ATOM     25  C   UNL     1       2.738   4.246  19.964  0.00  0.00    +0.000 A 
ATOM     26 CL   UNL     1       1.833   4.212  21.435  0.00  0.00    +0.000 Cl
BRANCH  20  28
ATOM     27  O   UNL     1       3.660   2.018  21.626  0.00  0.00    +0.000 OA
ATOM     28  C   UNL     1       4.220   2.257  20.567  0.00  0.00    +0.000 C 
BRANCH  28  29
ATOM     29  O   UNL     1       5.220   1.487  20.094  0.00  0.00    +0.000 OA
ATOM     30  H   UNL     1       5.508   1.693  19.182  0.00  0.00    +0.000 HD
ENDBRANCH  28  29
ENDBRANCH  20  28
ENDBRANCH  18  22
ENDBRANCH   1  18
TORSDOF 5
ENDMDL
MODEL 4
REMARK VINA RESULT:      -8.1      1.772      4.771
REMARK  Name = 
REMARK  5 active torsions:
REMARK  status: ('A' for Active; 'I' for Inactive)
REMARK    1  A    between atoms: C_2  and  O_3
REMARK    2  A    between atoms: C_2  and  C_4
REMARK    3  A    between atoms: C_6  and  N_7
REMARK    4  A    between atoms: N_7  and  C_8
REMARK    5  A    between atoms: C_8  and  C_9
REMARK                            x       y       z     vdW  Elec       q    Type
REMARK                         _______ _______ _______ _____ _____    ______ ____
ROOT
ATOM      1  C   UNL     1       3.065   4.884  18.402  0.00  0.00    +0.000 C 
ATOM      2  C   UNL     1       4.443   5.582  18.561  0.00  0.00    +0.000 C 
ATOM      3  O   UNL     1       4.851   6.313  19.451  0.00  0.00    +0.000 OA
ATOM      4  C   UNL     1       5.321   5.157  17.482  0.00  0.00    +0.000 A 
ATOM      5  C   UNL     1       6.637   5.537  17.286  0.00  0.00    +0.000 A 
ATOM      6  C   UNL     1       7.312   4.976  16.204  0.00  0.00    +0.000 A 
ATOM      7  C   UNL     1       6.664   4.056  15.356  0.00  0.00    +0.000 A 
ATOM      8  C   UNL     1       5.332   3.686  15.578  0.00  0.00    +0.000 A 
ATOM      9  C   UNL     1       4.679   4.253  16.658  0.00  0.00    +0.000 A 
ATOM     10  C   UNL     1       3.302   4.048  17.113  0.00  0.00    +0.000 C 
ATOM     11  O   UNL     1       2.490   3.374  16.499  0.00  0.00    +0.000 OA
ENDROOT
BRANCH   1  12
ATOM     12  C   UNL     1       2.721   3.962  19.578  0.00  0.00    +0.000 A 
ATOM     13  C   UNL     1       1.425   3.920  20.127  0.00  0.00    +0.000 A 
ATOM     14  C   UNL     1       1.131   3.094  21.218  0.00  0.00    +0.000 A 
ATOM     15  C   UNL     1       2.118   2.280  21.768  0.00  0.00    +0.000 A 
ATOM     16  C   UNL     1       3.393   2.275  21.219  0.00  0.00    +0.000 A 
ATOM     17  C   UNL     1       3.690   3.101  20.132  0.00  0.00    +0.000 A 
ENDBRANCH   1  12
BRANCH   1  18
ATOM     18  N   UNL     1       1.998   5.873  18.096  0.00  0.00    +0.000 N 
ATOM     19  H   UNL     1       1.279   5.540  17.457  0.00  0.00    +0.000 HD
BRANCH  18  22
ATOM     20  C   UNL     1       1.362   8.787  20.294  0.00  0.00    +0.000 A 
ATOM     21  C   UNL     1       1.557   7.466  19.833  0.00  0.00    +0.000 A 
ATOM     22  C   UNL     1       1.934   7.186  18.512  0.00  0.00    +0.000 A 
ATOM     23  C   UNL     1       2.132   8.275  17.663  0.00  0.00    +0.000 A 
ATOM     24  C   UNL     1       1.925   9.590  18.092  0.00  0.00    +0.000 A 
ATOM     25  C   UNL     1       1.531   9.850  19.403  0.00  0.00    +0.000 A 
ATOM     26 CL   UNL     1       1.259  11.502  19.824  0.00  0.00    +0.000 Cl
BRANCH  20  28
ATOM     27  O   UNL     1      -0.211   8.704  22.066  0.00  0.00    +0.000 OA
ATOM     28  C   UNL     1       0.935   8.932  21.710  0.00  0.00    +0.000 C 
BRANCH  28  29
ATOM     29  O   UNL     1       1.914   9.230  22.587  0.00  0.00    +0.000 OA
ATOM     30  H   UNL     1       2.146   8.513  23.211  0.00  0.00    +0.000 HD
ENDBRANCH  28  29
ENDBRANCH  20  28
ENDBRANCH  18  22
ENDBRANCH   1  18
TORSDOF 5
ENDMDL
MODEL 5
REMARK VINA RESULT:      -7.7      4.146      7.685
REMARK  Name = 
REMARK  5 active torsions:
REMARK  status: ('A' for Active; 'I' for Inactive)
REMARK    1  A    between atoms: C_2  and  O_3
REMARK    2  A    between atoms: C_2  and  C_4
REMARK    3  A    between atoms: C_6  and  N_7
REMARK    4  A    between atoms: N_7  and  C_8
REMARK    5  A    between atoms: C_8  and  C_9
REMARK                            x       y       z     vdW  Elec       q    Type
REMARK                         _______ _______ _______ _____ _____    ______ ____
ROOT
ATOM      1  C   UNL     1       4.957   5.041  17.477  0.00  0.00    +0.000 C 
ATOM      2  C   UNL     1       5.107   6.474  16.897  0.00  0.00    +0.000 C 
ATOM      3  O   UNL     1       4.354   7.104  16.169  0.00  0.00    +0.000 OA
ATOM      4  C   UNL     1       6.309   7.086  17.441  0.00  0.00    +0.000 A 
ATOM      5  C   UNL     1       6.776   8.363  17.186  0.00  0.00    +0.000 A 
ATOM      6  C   UNL     1       7.934   8.766  17.847  0.00  0.00    +0.000 A 
ATOM      7  C   UNL     1       8.587   7.895  18.740  0.00  0.00    +0.000 A 
ATOM      8  C   UNL     1       8.092   6.607  18.983  0.00  0.00    +0.000 A 
ATOM      9  C   UNL     1       6.941   6.226  18.317  0.00  0.00    +0.000 A 
ATOM     10  C   UNL     1       6.218   4.954  18.382  0.00  0.00    +0.000 C 
ATOM     11  O   UNL     1       6.624   3.986  19.006  0.00  0.00    +0.000 OA
ENDROOT
BRANCH   1  12
ATOM     12  C   UNL     1       3.686   4.864  18.317  0.00  0.00    +0.000 A 
ATOM     13  C   UNL     1       3.545   5.475  19.577  0.00  0.00    +0.000 A 
ATOM     14  C   UNL     1       2.391   5.284  20.345  0.00  0.00    +0.000 A 
ATOM     15  C   UNL     1       1.348   4.496  19.863  0.00  0.00    +0.000 A 
ATOM     16  C   UNL     1       1.449   3.915  18.606  0.00  0.00    +0.000 A 
ATOM     17  C   UNL     1       2.601   4.102  17.838  0.00  0.00    +0.000 A 
ENDBRANCH   1  12
BRANCH   1  18
ATOM     18  N   UNL     1       5.108   4.015  16.411  0.00  0.00    +0.000 N 
ATOM     19  H   UNL     1       4.816   3.077  16.678  0.00  0.00    +0.000 HD
BRANCH  18  22
ATOM     20  C   UNL     1       5.694   3.554  12.783  0.00  0.00    +0.000 A 
ATOM     21  C   UNL     1       5.106   3.514  14.066  0.00  0.00    +0.000 A 
ATOM     22  C   UNL     1       5.667   4.186  15.162  0.00  0.00    +0.000 A 
ATOM     23  C   UNL     1       6.829   4.922  14.931  0.00  0.00    +0.000 A 
ATOM     24  C   UNL     1       7.438   4.959  13.674  0.00  0.00    +0.000 A 
ATOM     25  C   UNL     1       6.880   4.270  12.599  0.00  0.00    +0.000 A 
ATOM     26 CL   UNL     1       7.731   4.342  11.098  0.00  0.00    +0.000 Cl
BRANCH  20  28
ATOM     27  O   UNL     1       4.039   3.209  11.121  0.00  0.00    +0.000 OA
ATOM     28  C   UNL     1       5.008   2.772  11.722  0.00  0.00    +0.000 C 
BRANCH  28  29
ATOM     29  O   UNL     1       5.583   1.597  11.399  0.00  0.00    +0.000 OA
ATOM     30  H   UNL     1       4.965   0.846  11.289  0.00  0.00    +0.000 HD
ENDBRANCH  28  29
ENDBRANCH  20  28
ENDBRANCH  18  22
ENDBRANCH   1  18
TORSDOF 5
ENDMDL
MODEL 6
REMARK VINA RESULT:      -7.7      3.241      5.609
REMARK  Name = 
REMARK  5 active torsions:
REMARK  status: ('A' for Active; 'I' for Inactive)
REMARK    1  A    between atoms: C_2  and  O_3
REMARK    2  A    between atoms: C_2  and  C_4
REMARK    3  A    between atoms: C_6  and  N_7
REMARK    4  A    between atoms: N_7  and  C_8
REMARK    5  A    between atoms: C_8  and  C_9
REMARK                            x       y       z     vdW  Elec       q    Type
REMARK                         _______ _______ _______ _____ _____    ______ ____
ROOT
ATOM      1  C   UNL     1       5.620   4.953  15.670  0.00  0.00    +0.000 C 
ATOM      2  C   UNL     1       6.630   4.605  16.797  0.00  0.00    +0.000 C 
ATOM      3  O   UNL     1       7.091   3.522  17.125  0.00  0.00    +0.000 OA
ATOM      4  C   UNL     1       7.092   5.835  17.421  0.00  0.00    +0.000 A 
ATOM      5  C   UNL     1       8.013   5.947  18.447  0.00  0.00    +0.000 A 
ATOM      6  C   UNL     1       8.345   7.231  18.873  0.00  0.00    +0.000 A 
ATOM      7  C   UNL     1       7.759   8.359  18.266  0.00  0.00    +0.000 A 
ATOM      8  C   UNL     1       6.830   8.218  17.226  0.00  0.00    +0.000 A 
ATOM      9  C   UNL     1       6.514   6.935  16.819  0.00  0.00    +0.000 A 
ATOM     10  C   UNL     1       5.586   6.504  15.770  0.00  0.00    +0.000 C 
ATOM     11  O   UNL     1       4.871   7.278  15.154  0.00  0.00    +0.000 OA
ENDROOT
BRANCH   1  12
ATOM     12  C   UNL     1       6.100   4.520  14.279  0.00  0.00    +0.000 A 
ATOM     13  C   UNL     1       7.291   5.023  13.722  0.00  0.00    +0.000 A 
ATOM     14  C   UNL     1       7.704   4.640  12.441  0.00  0.00    +0.000 A 
ATOM     15  C   UNL     1       6.948   3.735  11.700  0.00  0.00    +0.000 A 
ATOM     16  C   UNL     1       5.790   3.196  12.244  0.00  0.00    +0.000 A 
ATOM     17  C   UNL     1       5.374   3.578  13.522  0.00  0.00    +0.000 A 
ENDBRANCH   1  12
BRANCH   1  18
ATOM     18  N   UNL     1       4.258   4.460  16.004  0.00  0.00    +0.000 N 
ATOM     19  H   UNL     1       3.583   4.525  15.244  0.00  0.00    +0.000 HD
BRANCH  18  22
ATOM     20  C   UNL     1       2.781   4.563  19.400  0.00  0.00    +0.000 A 
ATOM     21  C   UNL     1       3.165   4.920  18.088  0.00  0.00    +0.000 A 
ATOM     22  C   UNL     1       3.808   4.017  17.230  0.00  0.00    +0.000 A 
ATOM     23  C   UNL     1       4.039   2.730  17.716  0.00  0.00    +0.000 A 
ATOM     24  C   UNL     1       3.685   2.362  19.018  0.00  0.00    +0.000 A 
ATOM     25  C   UNL     1       3.064   3.277  19.866  0.00  0.00    +0.000 A 
ATOM     26 CL   UNL     1       2.706   2.739  21.467  0.00  0.00    +0.000 Cl
BRANCH  20  28
ATOM     27  O   UNL     1       1.114   5.428  20.847  0.00  0.00    +0.000 OA
ATOM     28  C   UNL     1       2.134   5.630  20.208  0.00  0.00    +0.000 C 
BRANCH  28  29
ATOM     29  O   UNL     1       2.800   6.800  20.269  0.00  0.00    +0.000 OA
ATOM     30  H   UNL     1       3.766   6.738  20.128  0.00  0.00    +0.000 HD
ENDBRANCH  28  29
ENDBRANCH  20  28
ENDBRANCH  18  22
ENDBRANCH   1  18
TORSDOF 5
ENDMDL
MODEL 7
REMARK VINA RESULT:      -7.6      3.151      5.839
REMARK  Name = 
REMARK  5 active torsions:
REMARK  status: ('A' for Active; 'I' for Inactive)
REMARK    1  A    between atoms: C_2  and  O_3
REMARK    2  A    between atoms: C_2  and  C_4
REMARK    3  A    between atoms: C_6  and  N_7
REMARK    4  A    between atoms: N_7  and  C_8
REMARK    5  A    between atoms: C_8  and  C_9
REMARK                            x       y       z     vdW  Elec       q    Type
REMARK                         _______ _______ _______ _____ _____    ______ ____
ROOT
ATOM      1  C   UNL     1       5.781   5.094  15.750  0.00  0.00    +0.000 C 
ATOM      2  C   UNL     1       6.827   4.826  16.866  0.00  0.00    +0.000 C 
ATOM      3  O   UNL     1       7.342   3.774  17.217  0.00  0.00    +0.000 OA
ATOM      4  C   UNL     1       7.245   6.093  17.445  0.00  0.00    +0.000 A 
ATOM      5  C   UNL     1       8.180   6.277  18.448  0.00  0.00    +0.000 A 
ATOM      6  C   UNL     1       8.462   7.587  18.829  0.00  0.00    +0.000 A 
ATOM      7  C   UNL     1       7.815   8.669  18.201  0.00  0.00    +0.000 A 
ATOM      8  C   UNL     1       6.874   8.455  17.185  0.00  0.00    +0.000 A 
ATOM      9  C   UNL     1       6.608   7.148  16.822  0.00  0.00    +0.000 A 
ATOM     10  C   UNL     1       5.680   6.644  15.806  0.00  0.00    +0.000 C 
ATOM     11  O   UNL     1       4.919   7.367  15.181  0.00  0.00    +0.000 OA
ENDROOT
BRANCH   1  12
ATOM     12  C   UNL     1       6.253   4.641  14.363  0.00  0.00    +0.000 A 
ATOM     13  C   UNL     1       7.419   5.166  13.774  0.00  0.00    +0.000 A 
ATOM     14  C   UNL     1       7.825   4.764  12.497  0.00  0.00    +0.000 A 
ATOM     15  C   UNL     1       7.087   3.817  11.791  0.00  0.00    +0.000 A 
ATOM     16  C   UNL     1       5.955   3.257  12.367  0.00  0.00    +0.000 A 
ATOM     17  C   UNL     1       5.547   3.658  13.642  0.00  0.00    +0.000 A 
ENDBRANCH   1  12
BRANCH   1  18
ATOM     18  N   UNL     1       4.449   4.553  16.126  0.00  0.00    +0.000 N 
ATOM     19  H   UNL     1       3.972   4.042  15.386  0.00  0.00    +0.000 HD
BRANCH  18  22
ATOM     20  C   UNL     1       2.560   3.737  19.207  0.00  0.00    +0.000 A 
ATOM     21  C   UNL     1       3.349   3.619  18.041  0.00  0.00    +0.000 A 
ATOM     22  C   UNL     1       3.777   4.740  17.316  0.00  0.00    +0.000 A 
ATOM     23  C   UNL     1       3.410   5.993  17.805  0.00  0.00    +0.000 A 
ATOM     24  C   UNL     1       2.613   6.132  18.946  0.00  0.00    +0.000 A 
ATOM     25  C   UNL     1       2.179   5.008  19.644  0.00  0.00    +0.000 A 
ATOM     26 CL   UNL     1       1.164   5.283  21.014  0.00  0.00    +0.000 Cl
BRANCH  20  28
ATOM     27  O   UNL     1       2.211   2.308  21.067  0.00  0.00    +0.000 OA
ATOM     28  C   UNL     1       2.154   2.464  19.857  0.00  0.00    +0.000 C 
BRANCH  28  29
ATOM     29  O   UNL     1       1.626   1.533  19.037  0.00  0.00    +0.000 OA
ATOM     30  H   UNL     1       2.134   1.361  18.219  0.00  0.00    +0.000 HD
ENDBRANCH  28  29
ENDBRANCH  20  28
ENDBRANCH  18  22
ENDBRANCH   1  18
TORSDOF 5
ENDMDL
MODEL 8
REMARK VINA RESULT:      -7.5      4.259      7.099
REMARK  Name = 
REMARK  5 active torsions:
REMARK  status: ('A' for Active; 'I' for Inactive)
REMARK    1  A    between atoms: C_2  and  O_3
REMARK    2  A    between atoms: C_2  and  C_4
REMARK    3  A    between atoms: C_6  and  N_7
REMARK    4  A    between atoms: N_7  and  C_8
REMARK    5  A    between atoms: C_8  and  C_9
REMARK                            x       y       z     vdW  Elec       q    Type
REMARK                         _______ _______ _______ _____ _____    ______ ____
ROOT
ATOM      1  C   UNL     1       5.010   5.314  16.783  0.00  0.00    +0.000 C 
ATOM      2  C   UNL     1       4.870   3.774  16.926  0.00  0.00    +0.000 C 
ATOM      3  O   UNL     1       5.668   2.889  16.651  0.00  0.00    +0.000 OA
ATOM      4  C   UNL     1       3.605   3.466  17.574  0.00  0.00    +0.000 A 
ATOM      5  C   UNL     1       3.126   2.210  17.899  0.00  0.00    +0.000 A 
ATOM      6  C   UNL     1       1.900   2.142  18.557  0.00  0.00    +0.000 A 
ATOM      7  C   UNL     1       1.193   3.319  18.875  0.00  0.00    +0.000 A 
ATOM      8  C   UNL     1       1.703   4.579  18.536  0.00  0.00    +0.000 A 
ATOM      9  C   UNL     1       2.921   4.625  17.883  0.00  0.00    +0.000 A 
ATOM     10  C   UNL     1       3.674   5.792  17.418  0.00  0.00    +0.000 C 
ATOM     11  O   UNL     1       3.240   6.932  17.478  0.00  0.00    +0.000 OA
ENDROOT
BRANCH   1  12
ATOM     12  C   UNL     1       6.202   5.883  17.562  0.00  0.00    +0.000 A 
ATOM     13  C   UNL     1       6.775   5.187  18.643  0.00  0.00    +0.000 A 
ATOM     14  C   UNL     1       7.846   5.730  19.362  0.00  0.00    +0.000 A 
ATOM     15  C   UNL     1       8.377   6.966  19.005  0.00  0.00    +0.000 A 
ATOM     16  C   UNL     1       7.853   7.654  17.918  0.00  0.00    +0.000 A 
ATOM     17  C   UNL     1       6.783   7.115  17.200  0.00  0.00    +0.000 A 
ENDBRANCH   1  12
BRANCH   1  18
ATOM     18  N   UNL     1       4.989   5.721  15.354  0.00  0.00    +0.000 N 
ATOM     19  H   UNL     1       4.346   6.480  15.136  0.00  0.00    +0.000 HD
BRANCH  18  22
ATOM     20  C   UNL     1       5.632   3.579  12.401  0.00  0.00    +0.000 A 
ATOM     21  C   UNL     1       4.975   4.300  13.423  0.00  0.00    +0.000 A 
ATOM     22  C   UNL     1       5.671   5.135  14.309  0.00  0.00    +0.000 A 
ATOM     23  C   UNL     1       7.050   5.246  14.129  0.00  0.00    +0.000 A 
ATOM     24  C   UNL     1       7.722   4.526  13.136  0.00  0.00    +0.000 A 
ATOM     25  C   UNL     1       7.019   3.685  12.276  0.00  0.00    +0.000 A 
ATOM     26 CL   UNL     1       7.945   2.807  11.112  0.00  0.00    +0.000 Cl
BRANCH  20  28
ATOM     27  O   UNL     1       3.722   3.109  11.076  0.00  0.00    +0.000 OA
ATOM     28  C   UNL     1       4.772   2.710  11.555  0.00  0.00    +0.000 C 
BRANCH  28  29
ATOM     29  O   UNL     1       5.275   1.493  11.269  0.00  0.00    +0.000 OA
ATOM     30  H   UNL     1       4.609   0.797  11.097  0.00  0.00    +0.000 HD
ENDBRANCH  28  29
ENDBRANCH  20  28
ENDBRANCH  18  22
ENDBRANCH   1  18
TORSDOF 5
ENDMDL
MODEL 9
REMARK VINA RESULT:      -7.4      4.054      6.688
REMARK  Name = 
REMARK  5 active torsions:
REMARK  status: ('A' for Active; 'I' for Inactive)
REMARK    1  A    between atoms: C_2  and  O_3
REMARK    2  A    between atoms: C_2  and  C_4
REMARK    3  A    between atoms: C_6  and  N_7
REMARK    4  A    between atoms: N_7  and  C_8
REMARK    5  A    between atoms: C_8  and  C_9
REMARK                            x       y       z     vdW  Elec       q    Type
REMARK                         _______ _______ _______ _____ _____    ______ ____
ROOT
ATOM      1  C   UNL     1       4.973   4.310  18.003  0.00  0.00    +0.000 C 
ATOM      2  C   UNL     1       4.775   3.421  19.261  0.00  0.00    +0.000 C 
ATOM      3  O   UNL     1       5.581   2.723  19.858  0.00  0.00    +0.000 OA
ATOM      4  C   UNL     1       3.421   3.597  19.763  0.00  0.00    +0.000 A 
ATOM      5  C   UNL     1       2.867   2.997  20.879  0.00  0.00    +0.000 A 
ATOM      6  C   UNL     1       1.557   3.339  21.207  0.00  0.00    +0.000 A 
ATOM      7  C   UNL     1       0.842   4.265  20.423  0.00  0.00    +0.000 A 
ATOM      8  C   UNL     1       1.428   4.861  19.298  0.00  0.00    +0.000 A 
ATOM      9  C   UNL     1       2.729   4.509  18.990  0.00  0.00    +0.000 A 
ATOM     10  C   UNL     1       3.571   4.972  17.884  0.00  0.00    +0.000 C 
ATOM     11  O   UNL     1       3.164   5.705  16.997  0.00  0.00    +0.000 OA
ENDROOT
BRANCH   1  12
ATOM     12  C   UNL     1       6.053   5.382  18.190  0.00  0.00    +0.000 A 
ATOM     13  C   UNL     1       5.969   6.633  17.550  0.00  0.00    +0.000 A 
ATOM     14  C   UNL     1       6.975   7.593  17.708  0.00  0.00    +0.000 A 
ATOM     15  C   UNL     1       8.073   7.331  18.523  0.00  0.00    +0.000 A 
ATOM     16  C   UNL     1       8.159   6.119  19.195  0.00  0.00    +0.000 A 
ATOM     17  C   UNL     1       7.157   5.159  19.037  0.00  0.00    +0.000 A 
ENDBRANCH   1  12
BRANCH   1  18
ATOM     18  N   UNL     1       5.171   3.478  16.787  0.00  0.00    +0.000 N 
ATOM     19  H   UNL     1       4.940   2.493  16.902  0.00  0.00    +0.000 HD
BRANCH  18  22
ATOM     20  C   UNL     1       5.734   3.638  13.129  0.00  0.00    +0.000 A 
ATOM     21  C   UNL     1       5.166   3.359  14.392  0.00  0.00    +0.000 A 
ATOM     22  C   UNL     1       5.703   3.878  15.579  0.00  0.00    +0.000 A 
ATOM     23  C   UNL     1       6.818   4.708  15.465  0.00  0.00    +0.000 A 
ATOM     24  C   UNL     1       7.407   4.981  14.226  0.00  0.00    +0.000 A 
ATOM     25  C   UNL     1       6.874   4.442  13.058  0.00  0.00    +0.000 A 
ATOM     26 CL   UNL     1       7.699   4.803  11.584  0.00  0.00    +0.000 Cl
BRANCH  20  28
ATOM     27  O   UNL     1       4.140   3.519  11.377  0.00  0.00    +0.000 OA
ATOM     28  C   UNL     1       5.078   2.997  11.960  0.00  0.00    +0.000 C 
BRANCH  28  29
ATOM     29  O   UNL     1       5.648   1.856  11.524  0.00  0.00    +0.000 OA
ATOM     30  H   UNL     1       5.850   1.830  10.567  0.00  0.00    +0.000 HD
ENDBRANCH  28  29
ENDBRANCH  20  28
ENDBRANCH  18  22
ENDBRANCH   1  18
TORSDOF 5
ENDMDL
