MODEL 1
REMARK VINA RESULT:      -8.7      0.000      0.000
REMARK  Name = 
REMARK  6 active torsions:
REMARK  status: ('A' for Active; 'I' for Inactive)
REMARK    1  A    between atoms: C_1  and  C_2
REMARK    2  A    between atoms: C_5  and  N_6
REMARK    3  A    between atoms: C_9  and  C_10
REMARK    4  A    between atoms: N_12  and  C_13
REMARK    5  A    between atoms: C_13  and  C_14
REMARK    6  A    between atoms: C_14  and  C_15
REMARK                            x       y       z     vdW  Elec       q    Type
REMARK                         _______ _______ _______ _____ _____    ______ ____
ROOT
ATOM      1  C   UNL     1       7.174   5.579  18.656  0.00  0.00    +0.000 C 
ATOM      2  O   UNL     1       7.996   4.668  18.719  0.00  0.00    +0.000 OA
ATOM      3  N   UNL     1       5.828   5.381  18.933  0.00  0.00    +0.000 N 
ATOM      4  H   UNL     1       5.208   6.186  18.920  0.00  0.00    +0.000 HD
ENDROOT
BRANCH   1   8
ATOM      5  N   UNL     1       8.396   8.872  18.293  0.00  0.00    +0.000 N 
ATOM      6  N   UNL     1       7.560   8.935  17.224  0.00  0.00    +0.000 NA
ATOM      7  C   UNL     1       7.073   7.695  17.178  0.00  0.00    +0.000 A 
ATOM      8  C   UNL     1       7.563   6.931  18.258  0.00  0.00    +0.000 A 
ATOM      9  N   UNL     1       8.473   7.667  18.928  0.00  0.00    +0.000 NA
BRANCH   5  14
ATOM     10  C   UNL     1      11.460  13.382  20.030  0.00  0.00    +0.000 C 
ATOM     11  C   UNL     1      10.647  12.202  19.586  0.00  0.00    +0.000 A 
ATOM     12  C   UNL     1       9.985  11.392  20.518  0.00  0.00    +0.000 A 
ATOM     13  C   UNL     1       9.221  10.302  20.094  0.00  0.00    +0.000 A 
ATOM     14  C   UNL     1       9.142   9.998  18.729  0.00  0.00    +0.000 A 
ATOM     15  C   UNL     1       9.805  10.797  17.792  0.00  0.00    +0.000 A 
ATOM     16  C   UNL     1      10.540  11.904  18.221  0.00  0.00    +0.000 A 
ENDBRANCH   5  14
ENDBRANCH   1   8
BRANCH   3  17
ATOM     17  C   UNL     1       5.334   4.062  19.335  0.00  0.00    +0.000 C 
BRANCH  17  18
ATOM     18  C   UNL     1       3.791   3.939  19.339  0.00  0.00    +0.000 C 
ATOM     19  N   UNL     1       3.319   2.980  20.320  0.00  0.00    +0.000 N 
ATOM     20  C   UNL     1       2.508   3.550  21.270  0.00  0.00    +0.000 C 
ATOM     21  O   UNL     1       1.933   2.939  22.153  0.00  0.00    +0.000 OA
ATOM     22  N   UNL     1       2.448   4.877  21.039  0.00  0.00    +0.000 N 
ATOM     23  C   UNL     1       3.182   5.218  19.951  0.00  0.00    +0.000 C 
ATOM     24  O   UNL     1       3.312   6.363  19.521  0.00  0.00    +0.000 OA
ATOM     25  H   UNL     1       3.438   1.980  20.265  0.00  0.00    +0.000 HD
ATOM     26  H   UNL     1       1.898   5.522  21.596  0.00  0.00    +0.000 HD
BRANCH  18  27
ATOM     27  C   UNL     1       3.243   3.674  17.953  0.00  0.00    +0.000 C 
ATOM     28  C   UNL     1       1.784   3.841  17.596  0.00  0.00    +0.000 C 
ATOM     29  C   UNL     1       2.395   2.469  17.604  0.00  0.00    +0.000 C 
ENDBRANCH  18  27
ENDBRANCH  17  18
ENDBRANCH   3  17
TORSDOF 5
ENDMDL
MODEL 2
REMARK VINA RESULT:      -8.5      4.566      7.592
REMARK  Name = 
REMARK  6 active torsions:
REMARK  status: ('A' for Active; 'I' for Inactive)
REMARK    1  A    between atoms: C_1  and  C_2
REMARK    2  A    between atoms: C_5  and  N_6
REMARK    3  A    between atoms: C_9  and  C_10
REMARK    4  A    between atoms: N_12  and  C_13
REMARK    5  A    between atoms: C_13  and  C_14
REMARK    6  A    between atoms: C_14  and  C_15
REMARK                            x       y       z     vdW  Elec       q    Type
REMARK                         _______ _______ _______ _____ _____    ______ ____
ROOT
ATOM      1  C   UNL     1       3.148   6.474  18.408  0.00  0.00    +0.000 C 
ATOM      2  O   UNL     1       3.043   5.520  19.177  0.00  0.00    +0.000 OA
ATOM      3  N   UNL     1       3.961   6.431  17.283  0.00  0.00    +0.000 N 
ATOM      4  H   UNL     1       3.962   7.230  16.656  0.00  0.00    +0.000 HD
ENDROOT
BRANCH   1   8
ATOM      5  N   UNL     1       1.221   9.207  19.542  0.00  0.00    +0.000 N 
ATOM      6  N   UNL     1       1.381   9.687  18.282  0.00  0.00    +0.000 NA
ATOM      7  C   UNL     1       2.186   8.775  17.737  0.00  0.00    +0.000 A 
ATOM      8  C   UNL     1       2.437   7.728  18.649  0.00  0.00    +0.000 A 
ATOM      9  N   UNL     1       1.878   8.047  19.834  0.00  0.00    +0.000 NA
BRANCH   5  14
ATOM     10  C   UNL     1      -2.085  11.824  23.412  0.00  0.00    +0.000 C 
ATOM     11  C   UNL     1      -1.215  11.151  22.391  0.00  0.00    +0.000 A 
ATOM     12  C   UNL     1      -1.136  11.638  21.080  0.00  0.00    +0.000 A 
ATOM     13  C   UNL     1      -0.314  11.011  20.140  0.00  0.00    +0.000 A 
ATOM     14  C   UNL     1       0.411   9.869  20.501  0.00  0.00    +0.000 A 
ATOM     15  C   UNL     1       0.332   9.372  21.806  0.00  0.00    +0.000 A 
ATOM     16  C   UNL     1      -0.465  10.023  22.749  0.00  0.00    +0.000 A 
ENDBRANCH   5  14
ENDBRANCH   1   8
BRANCH   3  17
ATOM     17  C   UNL     1       4.721   5.222  16.957  0.00  0.00    +0.000 C 
BRANCH  17  18
ATOM     18  C   UNL     1       6.230   5.471  16.714  0.00  0.00    +0.000 C 
ATOM     19  N   UNL     1       6.517   6.865  16.435  0.00  0.00    +0.000 N 
ATOM     20  C   UNL     1       7.359   7.428  17.362  0.00  0.00    +0.000 C 
ATOM     21  O   UNL     1       7.804   8.560  17.304  0.00  0.00    +0.000 OA
ATOM     22  N   UNL     1       7.617   6.510  18.316  0.00  0.00    +0.000 N 
ATOM     23  C   UNL     1       6.987   5.339  18.052  0.00  0.00    +0.000 C 
ATOM     24  O   UNL     1       7.039   4.336  18.762  0.00  0.00    +0.000 OA
ATOM     25  H   UNL     1       6.260   7.359  15.594  0.00  0.00    +0.000 HD
ATOM     26  H   UNL     1       8.229   6.677  19.108  0.00  0.00    +0.000 HD
BRANCH  18  27
ATOM     27  C   UNL     1       6.793   4.537  15.665  0.00  0.00    +0.000 C 
ATOM     28  C   UNL     1       7.093   4.971  14.248  0.00  0.00    +0.000 C 
ATOM     29  C   UNL     1       5.984   3.992  14.507  0.00  0.00    +0.000 C 
ENDBRANCH  18  27
ENDBRANCH  17  18
ENDBRANCH   3  17
TORSDOF 5
ENDMDL
MODEL 3
REMARK VINA RESULT:      -8.4      5.294      7.146
REMARK  Name = 
REMARK  6 active torsions:
REMARK  status: ('A' for Active; 'I' for Inactive)
REMARK    1  A    between atoms: C_1  and  C_2
REMARK    2  A    between atoms: C_5  and  N_6
REMARK    3  A    between atoms: C_9  and  C_10
REMARK    4  A    between atoms: N_12  and  C_13
REMARK    5  A    between atoms: C_13  and  C_14
REMARK    6  A    between atoms: C_14  and  C_15
REMARK                            x       y       z     vdW  Elec       q    Type
REMARK                         _______ _______ _______ _____ _____    ______ ____
ROOT
ATOM      1  C   UNL     1       2.962   6.795  18.654  0.00  0.00    +0.000 C 
ATOM      2  O   UNL     1       3.144   6.319  17.535  0.00  0.00    +0.000 OA
ATOM      3  N   UNL     1       3.444   6.185  19.804  0.00  0.00    +0.000 N 
ATOM      4  H   UNL     1       3.311   6.656  20.694  0.00  0.00    +0.000 HD
ENDROOT
BRANCH   1   8
ATOM      5  N   UNL     1       0.930   9.495  19.679  0.00  0.00    +0.000 N 
ATOM      6  N   UNL     1       1.057   9.920  18.395  0.00  0.00    +0.000 NA
ATOM      7  C   UNL     1       1.896   9.019  17.885  0.00  0.00    +0.000 A 
ATOM      8  C   UNL     1       2.200   8.029  18.843  0.00  0.00    +0.000 A 
ATOM      9  N   UNL     1       1.639   8.380  20.018  0.00  0.00    +0.000 NA
BRANCH   5  14
ATOM     10  C   UNL     1      -2.374  12.261  23.445  0.00  0.00    +0.000 C 
ATOM     11  C   UNL     1      -1.511  11.522  22.464  0.00  0.00    +0.000 A 
ATOM     12  C   UNL     1      -0.791  10.385  22.853  0.00  0.00    +0.000 A 
ATOM     13  C   UNL     1       0.001   9.698  21.930  0.00  0.00    +0.000 A 
ATOM     14  C   UNL     1       0.101  10.167  20.614  0.00  0.00    +0.000 A 
ATOM     15  C   UNL     1      -0.609  11.306  20.220  0.00  0.00    +0.000 A 
ATOM     16  C   UNL     1      -1.424  11.969  21.139  0.00  0.00    +0.000 A 
ENDBRANCH   5  14
ENDBRANCH   1   8
BRANCH   3  17
ATOM     17  C   UNL     1       4.214   4.941  19.723  0.00  0.00    +0.000 C 
BRANCH  17  18
ATOM     18  C   UNL     1       3.348   3.658  19.766  0.00  0.00    +0.000 C 
ATOM     19  N   UNL     1       2.594   3.465  18.541  0.00  0.00    +0.000 N 
ATOM     20  C   UNL     1       2.922   2.298  17.897  0.00  0.00    +0.000 C 
ATOM     21  O   UNL     1       2.375   1.880  16.892  0.00  0.00    +0.000 OA
ATOM     22  N   UNL     1       3.920   1.701  18.578  0.00  0.00    +0.000 N 
ATOM     23  C   UNL     1       4.267   2.422  19.672  0.00  0.00    +0.000 C 
ATOM     24  O   UNL     1       5.156   2.116  20.465  0.00  0.00    +0.000 OA
ATOM     25  H   UNL     1       1.814   4.029  18.239  0.00  0.00    +0.000 HD
ATOM     26  H   UNL     1       4.331   0.812  18.312  0.00  0.00    +0.000 HD
BRANCH  18  27
ATOM     27  C   UNL     1       2.477   3.608  21.002  0.00  0.00    +0.000 C 
ATOM     28  C   UNL     1       1.677   2.389  21.401  0.00  0.00    +0.000 C 
ATOM     29  C   UNL     1       0.963   3.635  20.962  0.00  0.00    +0.000 C 
ENDBRANCH  18  27
ENDBRANCH  17  18
ENDBRANCH   3  17
TORSDOF 5
ENDMDL
MODEL 4
REMARK VINA RESULT:      -8.2      4.479      7.608
REMARK  Name = 
REMARK  6 active torsions:
REMARK  status: ('A' for Active; 'I' for Inactive)
REMARK    1  A    between atoms: C_1  and  C_2
REMARK    2  A    between atoms: C_5  and  N_6
REMARK    3  A    between atoms: C_9  and  C_10
REMARK    4  A    between atoms: N_12  and  C_13
REMARK    5  A    between atoms: C_13  and  C_14
REMARK    6  A    between atoms: C_14  and  C_15
REMARK                            x       y       z     vdW  Elec       q    Type
REMARK                         _______ _______ _______ _____ _____    ______ ____
ROOT
ATOM      1  C   UNL     1       3.121   6.513  18.419  0.00  0.00    +0.000 C 
ATOM      2  O   UNL     1       2.550   5.490  18.045  0.00  0.00    +0.000 OA
ATOM      3  N   UNL     1       4.489   6.553  18.655  0.00  0.00    +0.000 N 
ATOM      4  H   UNL     1       4.910   7.442  18.906  0.00  0.00    +0.000 HD
ENDROOT
BRANCH   1   8
ATOM      5  N   UNL     1       1.143   9.204  19.566  0.00  0.00    +0.000 N 
ATOM      6  N   UNL     1       1.273   9.681  18.301  0.00  0.00    +0.000 NA
ATOM      7  C   UNL     1       2.094   8.786  17.749  0.00  0.00    +0.000 A 
ATOM      8  C   UNL     1       2.383   7.751  18.663  0.00  0.00    +0.000 A 
ATOM      9  N   UNL     1       1.832   8.062  19.855  0.00  0.00    +0.000 NA
BRANCH   5  14
ATOM     10  C   UNL     1      -2.096  11.868  23.460  0.00  0.00    +0.000 C 
ATOM     11  C   UNL     1      -1.250  11.156  22.445  0.00  0.00    +0.000 A 
ATOM     12  C   UNL     1      -0.561   9.982  22.778  0.00  0.00    +0.000 A 
ATOM     13  C   UNL     1       0.214   9.321  21.823  0.00  0.00    +0.000 A 
ATOM     14  C   UNL     1       0.330   9.851  20.532  0.00  0.00    +0.000 A 
ATOM     15  C   UNL     1      -0.350  11.026  20.193  0.00  0.00    +0.000 A 
ATOM     16  C   UNL     1      -1.149  11.664  21.143  0.00  0.00    +0.000 A 
ENDBRANCH   5  14
ENDBRANCH   1   8
BRANCH   3  17
ATOM     17  C   UNL     1       5.318   5.363  18.446  0.00  0.00    +0.000 C 
BRANCH  17  18
ATOM     18  C   UNL     1       6.664   5.649  17.736  0.00  0.00    +0.000 C 
ATOM     19  N   UNL     1       6.693   6.964  17.124  0.00  0.00    +0.000 N 
ATOM     20  C   UNL     1       7.678   7.767  17.644  0.00  0.00    +0.000 C 
ATOM     21  O   UNL     1       7.948   8.886  17.244  0.00  0.00    +0.000 OA
ATOM     22  N   UNL     1       8.292   7.098  18.640  0.00  0.00    +0.000 N 
ATOM     23  C   UNL     1       7.762   5.860  18.798  0.00  0.00    +0.000 C 
ATOM     24  O   UNL     1       8.126   5.042  19.641  0.00  0.00    +0.000 OA
ATOM     25  H   UNL     1       6.161   7.244  16.314  0.00  0.00    +0.000 HD
ATOM     26  H   UNL     1       9.069   7.472  19.175  0.00  0.00    +0.000 HD
BRANCH  18  27
ATOM     27  C   UNL     1       7.035   4.546  16.768  0.00  0.00    +0.000 C 
ATOM     28  C   UNL     1       7.267   4.785  15.294  0.00  0.00    +0.000 C 
ATOM     29  C   UNL     1       6.081   3.979  15.738  0.00  0.00    +0.000 C 
ENDBRANCH  18  27
ENDBRANCH  17  18
ENDBRANCH   3  17
TORSDOF 5
ENDMDL
MODEL 5
REMARK VINA RESULT:      -8.2      4.733      7.646
REMARK  Name = 
REMARK  6 active torsions:
REMARK  status: ('A' for Active; 'I' for Inactive)
REMARK    1  A    between atoms: C_1  and  C_2
REMARK    2  A    between atoms: C_5  and  N_6
REMARK    3  A    between atoms: C_9  and  C_10
REMARK    4  A    between atoms: N_12  and  C_13
REMARK    5  A    between atoms: C_13  and  C_14
REMARK    6  A    between atoms: C_14  and  C_15
REMARK                            x       y       z     vdW  Elec       q    Type
REMARK                         _______ _______ _______ _____ _____    ______ ____
ROOT
ATOM      1  C   UNL     1       2.956   6.298  19.003  0.00  0.00    +0.000 C 
ATOM      2  O   UNL     1       3.269   5.620  19.980  0.00  0.00    +0.000 OA
ATOM      3  N   UNL     1       3.252   5.904  17.705  0.00  0.00    +0.000 N 
ATOM      4  H   UNL     1       2.916   6.478  16.937  0.00  0.00    +0.000 HD
ENDROOT
BRANCH   1   8
ATOM      5  N   UNL     1       1.064   9.134  19.925  0.00  0.00    +0.000 N 
ATOM      6  N   UNL     1       1.280   9.542  18.647  0.00  0.00    +0.000 NA
ATOM      7  C   UNL     1       2.080   8.584  18.179  0.00  0.00    +0.000 A 
ATOM      8  C   UNL     1       2.271   7.581  19.153  0.00  0.00    +0.000 A 
ATOM      9  N   UNL     1       1.680   7.975  20.299  0.00  0.00    +0.000 NA
BRANCH   5  14
ATOM     10  C   UNL     1      -2.220  12.137  23.521  0.00  0.00    +0.000 C 
ATOM     11  C   UNL     1      -1.363  11.337  22.585  0.00  0.00    +0.000 A 
ATOM     12  C   UNL     1      -0.718  10.171  23.019  0.00  0.00    +0.000 A 
ATOM     13  C   UNL     1       0.069   9.427  22.136  0.00  0.00    +0.000 A 
ATOM     14  C   UNL     1       0.240   9.865  20.817  0.00  0.00    +0.000 A 
ATOM     15  C   UNL     1      -0.396  11.032  20.378  0.00  0.00    +0.000 A 
ATOM     16  C   UNL     1      -1.207  11.753  21.257  0.00  0.00    +0.000 A 
ENDBRANCH   5  14
ENDBRANCH   1   8
BRANCH   3  17
ATOM     17  C   UNL     1       3.942   4.638  17.448  0.00  0.00    +0.000 C 
BRANCH  17  18
ATOM     18  C   UNL     1       5.386   4.804  16.912  0.00  0.00    +0.000 C 
ATOM     19  N   UNL     1       5.767   3.725  16.020  0.00  0.00    +0.000 N 
ATOM     20  C   UNL     1       6.068   4.166  14.755  0.00  0.00    +0.000 C 
ATOM     21  O   UNL     1       6.484   3.462  13.852  0.00  0.00    +0.000 OA
ATOM     22  N   UNL     1       5.848   5.495  14.703  0.00  0.00    +0.000 N 
ATOM     23  C   UNL     1       5.421   5.968  15.900  0.00  0.00    +0.000 C 
ATOM     24  O   UNL     1       5.134   7.141  16.132  0.00  0.00    +0.000 OA
ATOM     25  H   UNL     1       5.936   2.770  16.296  0.00  0.00    +0.000 HD
ATOM     26  H   UNL     1       6.012   6.062  13.878  0.00  0.00    +0.000 HD
BRANCH  18  27
ATOM     27  C   UNL     1       6.381   5.014  18.033  0.00  0.00    +0.000 C 
ATOM     28  C   UNL     1       7.475   6.056  17.981  0.00  0.00    +0.000 C 
ATOM     29  C   UNL     1       7.835   4.598  17.950  0.00  0.00    +0.000 C 
ENDBRANCH  18  27
ENDBRANCH  17  18
ENDBRANCH   3  17
TORSDOF 5
ENDMDL
MODEL 6
REMARK VINA RESULT:      -8.2      4.378      7.599
REMARK  Name = 
REMARK  6 active torsions:
REMARK  status: ('A' for Active; 'I' for Inactive)
REMARK    1  A    between atoms: C_1  and  C_2
REMARK    2  A    between atoms: C_5  and  N_6
REMARK    3  A    between atoms: C_9  and  C_10
REMARK    4  A    between atoms: N_12  and  C_13
REMARK    5  A    between atoms: C_13  and  C_14
REMARK    6  A    between atoms: C_14  and  C_15
REMARK                            x       y       z     vdW  Elec       q    Type
REMARK                         _______ _______ _______ _____ _____    ______ ____
ROOT
ATOM      1  C   UNL     1       3.271   7.370  17.710  0.00  0.00    +0.000 C 
ATOM      2  O   UNL     1       3.307   8.234  16.835  0.00  0.00    +0.000 OA
ATOM      3  N   UNL     1       3.992   6.188  17.612  0.00  0.00    +0.000 N 
ATOM      4  H   UNL     1       3.965   5.539  18.393  0.00  0.00    +0.000 HD
ENDROOT
BRANCH   1   8
ATOM      5  N   UNL     1       1.223   8.383  20.403  0.00  0.00    +0.000 N 
ATOM      6  N   UNL     1       1.562   7.188  20.952  0.00  0.00    +0.000 NA
ATOM      7  C   UNL     1       2.290   6.632  19.983  0.00  0.00    +0.000 A 
ATOM      8  C   UNL     1       2.439   7.527  18.902  0.00  0.00    +0.000 A 
ATOM      9  N   UNL     1       1.688   8.621  19.142  0.00  0.00    +0.000 NA
BRANCH   5  14
ATOM     10  C   UNL     1      -1.996  12.172  23.236  0.00  0.00    +0.000 C 
ATOM     11  C   UNL     1      -1.146  11.190  22.484  0.00  0.00    +0.000 A 
ATOM     12  C   UNL     1      -0.899  11.352  21.115  0.00  0.00    +0.000 A 
ATOM     13  C   UNL     1      -0.098  10.439  20.426  0.00  0.00    +0.000 A 
ATOM     14  C   UNL     1       0.437   9.334  21.102  0.00  0.00    +0.000 A 
ATOM     15  C   UNL     1       0.189   9.161  22.468  0.00  0.00    +0.000 A 
ATOM     16  C   UNL     1      -0.586  10.096  23.157  0.00  0.00    +0.000 A 
ENDBRANCH   5  14
ENDBRANCH   1   8
BRANCH   3  17
ATOM     17  C   UNL     1       4.851   5.930  16.453  0.00  0.00    +0.000 C 
BRANCH  17  18
ATOM     18  C   UNL     1       6.317   5.588  16.818  0.00  0.00    +0.000 C 
ATOM     19  N   UNL     1       7.137   6.776  16.965  0.00  0.00    +0.000 N 
ATOM     20  C   UNL     1       7.661   6.903  18.228  0.00  0.00    +0.000 C 
ATOM     21  O   UNL     1       8.438   7.774  18.575  0.00  0.00    +0.000 OA
ATOM     22  N   UNL     1       7.189   5.895  18.989  0.00  0.00    +0.000 N 
ATOM     23  C   UNL     1       6.372   5.082  18.274  0.00  0.00    +0.000 C 
ATOM     24  O   UNL     1       5.796   4.093  18.723  0.00  0.00    +0.000 OA
ATOM     25  H   UNL     1       7.423   7.386  16.215  0.00  0.00    +0.000 HD
ATOM     26  H   UNL     1       7.442   5.757  19.962  0.00  0.00    +0.000 HD
BRANCH  18  27
ATOM     27  C   UNL     1       6.915   4.581  15.859  0.00  0.00    +0.000 C 
ATOM     28  C   UNL     1       6.984   4.803  14.365  0.00  0.00    +0.000 C 
ATOM     29  C   UNL     1       6.091   3.729  14.917  0.00  0.00    +0.000 C 
ENDBRANCH  18  27
ENDBRANCH  17  18
ENDBRANCH   3  17
TORSDOF 5
ENDMDL
MODEL 7
REMARK VINA RESULT:      -8.1      4.591      7.612
REMARK  Name = 
REMARK  6 active torsions:
REMARK  status: ('A' for Active; 'I' for Inactive)
REMARK    1  A    between atoms: C_1  and  C_2
REMARK    2  A    between atoms: C_5  and  N_6
REMARK    3  A    between atoms: C_9  and  C_10
REMARK    4  A    between atoms: N_12  and  C_13
REMARK    5  A    between atoms: C_13  and  C_14
REMARK    6  A    between atoms: C_14  and  C_15
REMARK                            x       y       z     vdW  Elec       q    Type
REMARK                         _______ _______ _______ _____ _____    ______ ____
ROOT
ATOM      1  C   UNL     1       2.956   6.217  18.522  0.00  0.00    +0.000 C 
ATOM      2  O   UNL     1       2.270   5.197  18.485  0.00  0.00    +0.000 OA
ATOM      3  N   UNL     1       4.337   6.185  18.387  0.00  0.00    +0.000 N 
ATOM      4  H   UNL     1       4.842   7.066  18.369  0.00  0.00    +0.000 HD
ENDROOT
BRANCH   1   8
ATOM      5  N   UNL     1       1.237   9.115  19.578  0.00  0.00    +0.000 N 
ATOM      6  N   UNL     1       1.508   9.583  18.331  0.00  0.00    +0.000 NA
ATOM      7  C   UNL     1       2.252   8.601  17.821  0.00  0.00    +0.000 A 
ATOM      8  C   UNL     1       2.354   7.532  18.736  0.00  0.00    +0.000 A 
ATOM      9  N   UNL     1       1.766   7.898  19.893  0.00  0.00    +0.000 NA
BRANCH   5  14
ATOM     10  C   UNL     1      -2.003  12.014  23.298  0.00  0.00    +0.000 C 
ATOM     11  C   UNL     1      -1.151  11.267  22.315  0.00  0.00    +0.000 A 
ATOM     12  C   UNL     1      -1.076  11.669  20.975  0.00  0.00    +0.000 A 
ATOM     13  C   UNL     1      -0.271  10.974  20.071  0.00  0.00    +0.000 A 
ATOM     14  C   UNL     1       0.443   9.847  20.498  0.00  0.00    +0.000 A 
ATOM     15  C   UNL     1       0.369   9.435  21.833  0.00  0.00    +0.000 A 
ATOM     16  C   UNL     1      -0.413  10.154  22.739  0.00  0.00    +0.000 A 
ENDBRANCH   5  14
ENDBRANCH   1   8
BRANCH   3  17
ATOM     17  C   UNL     1       5.037   4.915  18.175  0.00  0.00    +0.000 C 
BRANCH  17  18
ATOM     18  C   UNL     1       6.242   5.013  17.207  0.00  0.00    +0.000 C 
ATOM     19  N   UNL     1       6.328   3.867  16.321  0.00  0.00    +0.000 N 
ATOM     20  C   UNL     1       6.221   4.213  14.997  0.00  0.00    +0.000 C 
ATOM     21  O   UNL     1       6.335   3.440  14.063  0.00  0.00    +0.000 OA
ATOM     22  N   UNL     1       5.993   5.540  14.920  0.00  0.00    +0.000 N 
ATOM     23  C   UNL     1       5.959   6.103  16.153  0.00  0.00    +0.000 C 
ATOM     24  O   UNL     1       5.757   7.296  16.376  0.00  0.00    +0.000 OA
ATOM     25  H   UNL     1       6.577   2.930  16.599  0.00  0.00    +0.000 HD
ATOM     26  H   UNL     1       5.891   6.045  14.046  0.00  0.00    +0.000 HD
BRANCH  18  27
ATOM     27  C   UNL     1       7.537   5.279  17.945  0.00  0.00    +0.000 C 
ATOM     28  C   UNL     1       7.599   5.568  19.427  0.00  0.00    +0.000 C 
ATOM     29  C   UNL     1       7.951   6.647  18.444  0.00  0.00    +0.000 C 
ENDBRANCH  18  27
ENDBRANCH  17  18
ENDBRANCH   3  17
TORSDOF 5
ENDMDL
MODEL 8
REMARK VINA RESULT:      -8.1      3.717      6.964
REMARK  Name = 
REMARK  6 active torsions:
REMARK  status: ('A' for Active; 'I' for Inactive)
REMARK    1  A    between atoms: C_1  and  C_2
REMARK    2  A    between atoms: C_5  and  N_6
REMARK    3  A    between atoms: C_9  and  C_10
REMARK    4  A    between atoms: N_12  and  C_13
REMARK    5  A    between atoms: C_13  and  C_14
REMARK    6  A    between atoms: C_14  and  C_15
REMARK                            x       y       z     vdW  Elec       q    Type
REMARK                         _______ _______ _______ _____ _____    ______ ____
ROOT
ATOM      1  C   UNL     1       4.267   4.509  18.846  0.00  0.00    +0.000 C 
ATOM      2  O   UNL     1       5.063   3.821  19.482  0.00  0.00    +0.000 OA
ATOM      3  N   UNL     1       4.337   4.635  17.465  0.00  0.00    +0.000 N 
ATOM      4  H   UNL     1       3.616   5.171  16.991  0.00  0.00    +0.000 HD
ENDROOT
BRANCH   1   8
ATOM      5  N   UNL     1       2.007   6.856  20.206  0.00  0.00    +0.000 N 
ATOM      6  N   UNL     1       1.587   5.822  20.980  0.00  0.00    +0.000 NA
ATOM      7  C   UNL     1       2.313   4.808  20.508  0.00  0.00    +0.000 A 
ATOM      8  C   UNL     1       3.206   5.261  19.514  0.00  0.00    +0.000 A 
ATOM      9  N   UNL     1       2.953   6.562  19.268  0.00  0.00    +0.000 NA
BRANCH   5  14
ATOM     10  C   UNL     1       0.007  12.181  20.837  0.00  0.00    +0.000 C 
ATOM     11  C   UNL     1       0.522  10.780  20.683  0.00  0.00    +0.000 A 
ATOM     12  C   UNL     1       0.650   9.933  21.792  0.00  0.00    +0.000 A 
ATOM     13  C   UNL     1       1.119   8.627  21.636  0.00  0.00    +0.000 A 
ATOM     14  C   UNL     1       1.496   8.170  20.367  0.00  0.00    +0.000 A 
ATOM     15  C   UNL     1       1.379   9.011  19.256  0.00  0.00    +0.000 A 
ATOM     16  C   UNL     1       0.878  10.305  19.414  0.00  0.00    +0.000 A 
ENDBRANCH   5  14
ENDBRANCH   1   8
BRANCH   3  17
ATOM     17  C   UNL     1       5.367   3.926  16.702  0.00  0.00    +0.000 C 
BRANCH  17  18
ATOM     18  C   UNL     1       6.525   4.832  16.213  0.00  0.00    +0.000 C 
ATOM     19  N   UNL     1       6.146   6.232  16.171  0.00  0.00    +0.000 N 
ATOM     20  C   UNL     1       6.911   7.012  17.003  0.00  0.00    +0.000 C 
ATOM     21  O   UNL     1       6.833   8.224  17.087  0.00  0.00    +0.000 OA
ATOM     22  N   UNL     1       7.760   6.211  17.677  0.00  0.00    +0.000 N 
ATOM     23  C   UNL     1       7.603   4.914  17.314  0.00  0.00    +0.000 C 
ATOM     24  O   UNL     1       8.241   3.971  17.779  0.00  0.00    +0.000 OA
ATOM     25  H   UNL     1       5.496   6.642  15.518  0.00  0.00    +0.000 HD
ATOM     26  H   UNL     1       8.445   6.550  18.345  0.00  0.00    +0.000 HD
BRANCH  18  27
ATOM     27  C   UNL     1       7.107   4.345  14.903  0.00  0.00    +0.000 C 
ATOM     28  C   UNL     1       7.152   5.194  13.654  0.00  0.00    +0.000 C 
ATOM     29  C   UNL     1       6.267   3.982  13.698  0.00  0.00    +0.000 C 
ENDBRANCH  18  27
ENDBRANCH  17  18
ENDBRANCH   3  17
TORSDOF 5
ENDMDL
MODEL 9
REMARK VINA RESULT:      -8.0      5.301      7.007
REMARK  Name = 
REMARK  6 active torsions:
REMARK  status: ('A' for Active; 'I' for Inactive)
REMARK    1  A    between atoms: C_1  and  C_2
REMARK    2  A    between atoms: C_5  and  N_6
REMARK    3  A    between atoms: C_9  and  C_10
REMARK    4  A    between atoms: N_12  and  C_13
REMARK    5  A    between atoms: C_13  and  C_14
REMARK    6  A    between atoms: C_14  and  C_15
REMARK                            x       y       z     vdW  Elec       q    Type
REMARK                         _______ _______ _______ _____ _____    ______ ____
ROOT
ATOM      1  C   UNL     1       2.981   6.974  18.744  0.00  0.00    +0.000 C 
ATOM      2  O   UNL     1       3.644   6.789  17.725  0.00  0.00    +0.000 OA
ATOM      3  N   UNL     1       2.998   6.082  19.809  0.00  0.00    +0.000 N 
ATOM      4  H   UNL     1       2.473   6.319  20.646  0.00  0.00    +0.000 HD
ENDROOT
BRANCH   1   8
ATOM      5  N   UNL     1       0.767   9.555  19.695  0.00  0.00    +0.000 N 
ATOM      6  N   UNL     1       0.734   9.850  18.369  0.00  0.00    +0.000 NA
ATOM      7  C   UNL     1       1.618   8.986  17.870  0.00  0.00    +0.000 A 
ATOM      8  C   UNL     1       2.110   8.139  18.886  0.00  0.00    +0.000 A 
ATOM      9  N   UNL     1       1.619   8.557  20.070  0.00  0.00    +0.000 NA
BRANCH   5  14
ATOM     10  C   UNL     1      -2.542  12.258  23.502  0.00  0.00    +0.000 C 
ATOM     11  C   UNL     1      -1.672  11.562  22.496  0.00  0.00    +0.000 A 
ATOM     12  C   UNL     1      -1.657  11.967  21.155  0.00  0.00    +0.000 A 
ATOM     13  C   UNL     1      -0.835  11.321  20.229  0.00  0.00    +0.000 A 
ATOM     14  C   UNL     1      -0.045  10.239  20.637  0.00  0.00    +0.000 A 
ATOM     15  C   UNL     1      -0.060   9.823  21.973  0.00  0.00    +0.000 A 
ATOM     16  C   UNL     1      -0.859  10.495  22.899  0.00  0.00    +0.000 A 
ENDBRANCH   5  14
ENDBRANCH   1   8
BRANCH   3  17
ATOM     17  C   UNL     1       3.833   4.880  19.763  0.00  0.00    +0.000 C 
BRANCH  17  18
ATOM     18  C   UNL     1       3.031   3.555  19.754  0.00  0.00    +0.000 C 
ATOM     19  N   UNL     1       2.869   3.003  21.086  0.00  0.00    +0.000 N 
ATOM     20  C   UNL     1       1.551   2.903  21.460  0.00  0.00    +0.000 C 
ATOM     21  O   UNL     1       1.158   2.404  22.499  0.00  0.00    +0.000 OA
ATOM     22  N   UNL     1       0.789   3.424  20.478  0.00  0.00    +0.000 N 
ATOM     23  C   UNL     1       1.551   3.859  19.444  0.00  0.00    +0.000 C 
ATOM     24  O   UNL     1       1.116   4.388  18.423  0.00  0.00    +0.000 OA
ATOM     25  H   UNL     1       3.604   2.601  21.647  0.00  0.00    +0.000 HD
ATOM     26  H   UNL     1      -0.225   3.454  20.507  0.00  0.00    +0.000 HD
BRANCH  18  27
ATOM     27  C   UNL     1       3.607   2.554  18.775  0.00  0.00    +0.000 C 
ATOM     28  C   UNL     1       4.028   2.922  17.370  0.00  0.00    +0.000 C 
ATOM     29  C   UNL     1       2.847   2.019  17.580  0.00  0.00    +0.000 C 
ENDBRANCH  18  27
ENDBRANCH  17  18
ENDBRANCH   3  17
TORSDOF 5
ENDMDL
