MODEL 1
REMARK VINA RESULT:      -7.1      0.000      0.000
REMARK  Name = 
REMARK  12 active torsions:
REMARK  status: ('A' for Active; 'I' for Inactive)
REMARK    1  A    between atoms: C_1  and  C_2
REMARK    2  A    between atoms: C_2  and  C_3
REMARK    3  A    between atoms: C_4  and  C_5
REMARK    4  A    between atoms: C_5  and  C_6
REMARK    5  A    between atoms: C_6  and  C_7
REMARK    6  A    between atoms: C_7  and  C_8
REMARK    7  A    between atoms: C_9  and  C_10
REMARK    8  A    between atoms: C_10  and  C_11
REMARK    9  A    between atoms: C_11  and  C_12
REMARK   10  A    between atoms: C_12  and  C_16
REMARK   11  A    between atoms: C_13  and  C_14
REMARK   12  A    between atoms: C_14  and  O_15
REMARK                            x       y       z     vdW  Elec       q    Type
REMARK                         _______ _______ _______ _____ _____    ______ ____
ROOT
ATOM      1  C   UNL     1       5.206   5.545  19.256  0.00  0.00    +0.000 C 
ENDROOT
BRANCH   1   2
ATOM      2  C   UNL     1       3.794   5.992  18.877  0.00  0.00    +0.000 C 
ATOM      3  C   UNL     1       3.521   7.157  18.243  0.00  0.00    +0.000 C 
BRANCH   2   4
ATOM      4  C   UNL     1       2.707   5.057  19.248  0.00  0.00    +0.000 A 
ATOM      5  C   UNL     1       2.387   4.837  20.596  0.00  0.00    +0.000 A 
ATOM      6  C   UNL     1       1.479   3.836  20.962  0.00  0.00    +0.000 A 
ATOM      7  C   UNL     1       0.833   3.091  19.979  0.00  0.00    +0.000 A 
ATOM      8  C   UNL     1       1.083   3.355  18.635  0.00  0.00    +0.000 A 
ATOM      9  C   UNL     1       2.027   4.324  18.269  0.00  0.00    +0.000 A 
ENDBRANCH   2   4
BRANCH   3  10
ATOM     10  C   UNL     1       2.184   7.728  17.881  0.00  0.00    +0.000 C 
BRANCH  10  11
ATOM     11  O   UNL     1       1.762   8.584  18.935  0.00  0.00    +0.000 OA
ATOM     12  H   UNL     1       1.079   9.166  18.562  0.00  0.00    +0.000 HD
ENDBRANCH  10  11
ENDBRANCH   3  10
ENDBRANCH   1   2
BRANCH   1  13
ATOM     13  C   UNL     1       5.725   4.361  18.435  0.00  0.00    +0.000 C 
BRANCH  13  16
ATOM     14  C   UNL     1       5.760   4.479  15.946  0.00  0.00    +0.000 C 
ATOM     15  C   UNL     1       4.362   3.895  15.931  0.00  0.00    +0.000 C 
ATOM     16  C   UNL     1       6.385   4.693  17.126  0.00  0.00    +0.000 C 
BRANCH  14  17
ATOM     17  C   UNL     1       6.470   4.822  14.648  0.00  0.00    +0.000 C 
BRANCH  17  18
ATOM     18  C   UNL     1       6.359   3.745  13.569  0.00  0.00    +0.000 C 
BRANCH  18  22
ATOM     19  C   UNL     1       3.667   3.188  10.832  0.00  0.00    +0.000 C 
ATOM     20  C   UNL     1       4.891   3.015  11.690  0.00  0.00    +0.000 C 
ATOM     21  C   UNL     1       5.788   1.839  11.387  0.00  0.00    +0.000 C 
ATOM     22  C   UNL     1       5.165   3.884  12.667  0.00  0.00    +0.000 C 
ENDBRANCH  18  22
ENDBRANCH  17  18
ENDBRANCH  14  17
ENDBRANCH  13  16
ENDBRANCH   1  13
TORSDOF 9
ENDMDL
MODEL 2
REMARK VINA RESULT:      -7.0      1.140      1.622
REMARK  Name = 
REMARK  12 active torsions:
REMARK  status: ('A' for Active; 'I' for Inactive)
REMARK    1  A    between atoms: C_1  and  C_2
REMARK    2  A    between atoms: C_2  and  C_3
REMARK    3  A    between atoms: C_4  and  C_5
REMARK    4  A    between atoms: C_5  and  C_6
REMARK    5  A    between atoms: C_6  and  C_7
REMARK    6  A    between atoms: C_7  and  C_8
REMARK    7  A    between atoms: C_9  and  C_10
REMARK    8  A    between atoms: C_10  and  C_11
REMARK    9  A    between atoms: C_11  and  C_12
REMARK   10  A    between atoms: C_12  and  C_16
REMARK   11  A    between atoms: C_13  and  C_14
REMARK   12  A    between atoms: C_14  and  O_15
REMARK                            x       y       z     vdW  Elec       q    Type
REMARK                         _______ _______ _______ _____ _____    ______ ____
ROOT
ATOM      1  C   UNL     1       5.850   5.064  19.052  0.00  0.00    +0.000 C 
ENDROOT
BRANCH   1   2
ATOM      2  C   UNL     1       4.346   5.329  19.022  0.00  0.00    +0.000 C 
ATOM      3  C   UNL     1       3.803   6.570  19.000  0.00  0.00    +0.000 C 
BRANCH   2   4
ATOM      4  C   UNL     1       3.484   4.124  19.016  0.00  0.00    +0.000 A 
ATOM      5  C   UNL     1       3.279   3.403  17.831  0.00  0.00    +0.000 A 
ATOM      6  C   UNL     1       2.340   2.365  17.779  0.00  0.00    +0.000 A 
ATOM      7  C   UNL     1       1.645   1.998  18.928  0.00  0.00    +0.000 A 
ATOM      8  C   UNL     1       1.899   2.655  20.129  0.00  0.00    +0.000 A 
ATOM      9  C   UNL     1       2.804   3.724  20.172  0.00  0.00    +0.000 A 
ENDBRANCH   2   4
BRANCH   3  10
ATOM     10  C   UNL     1       2.355   6.953  19.036  0.00  0.00    +0.000 C 
BRANCH  10  11
ATOM     11  O   UNL     1       2.148   8.015  18.114  0.00  0.00    +0.000 OA
ATOM     12  H   UNL     1       3.029   8.289  17.806  0.00  0.00    +0.000 HD
ENDBRANCH  10  11
ENDBRANCH   3  10
ENDBRANCH   1   2
BRANCH   1  13
ATOM     13  C   UNL     1       6.656   5.948  18.095  0.00  0.00    +0.000 C 
BRANCH  13  16
ATOM     14  C   UNL     1       6.437   5.490  15.655  0.00  0.00    +0.000 C 
ATOM     15  C   UNL     1       5.196   6.360  15.636  0.00  0.00    +0.000 C 
ATOM     16  C   UNL     1       7.111   5.307  16.814  0.00  0.00    +0.000 C 
BRANCH  14  17
ATOM     17  C   UNL     1       6.929   4.815  14.387  0.00  0.00    +0.000 C 
BRANCH  17  18
ATOM     18  C   UNL     1       6.113   3.590  13.972  0.00  0.00    +0.000 C 
BRANCH  18  22
ATOM     19  C   UNL     1       3.820   3.427  10.846  0.00  0.00    +0.000 C 
ATOM     20  C   UNL     1       4.912   3.124  11.837  0.00  0.00    +0.000 C 
ATOM     21  C   UNL     1       5.833   1.970  11.519  0.00  0.00    +0.000 C 
ATOM     22  C   UNL     1       5.056   3.864  12.939  0.00  0.00    +0.000 C 
ENDBRANCH  18  22
ENDBRANCH  17  18
ENDBRANCH  14  17
ENDBRANCH  13  16
ENDBRANCH   1  13
TORSDOF 9
ENDMDL
MODEL 3
REMARK VINA RESULT:      -7.0      0.762      1.324
REMARK  Name = 
REMARK  12 active torsions:
REMARK  status: ('A' for Active; 'I' for Inactive)
REMARK    1  A    between atoms: C_1  and  C_2
REMARK    2  A    between atoms: C_2  and  C_3
REMARK    3  A    between atoms: C_4  and  C_5
REMARK    4  A    between atoms: C_5  and  C_6
REMARK    5  A    between atoms: C_6  and  C_7
REMARK    6  A    between atoms: C_7  and  C_8
REMARK    7  A    between atoms: C_9  and  C_10
REMARK    8  A    between atoms: C_10  and  C_11
REMARK    9  A    between atoms: C_11  and  C_12
REMARK   10  A    between atoms: C_12  and  C_16
REMARK   11  A    between atoms: C_13  and  C_14
REMARK   12  A    between atoms: C_14  and  O_15
REMARK                            x       y       z     vdW  Elec       q    Type
REMARK                         _______ _______ _______ _____ _____    ______ ____
ROOT
ATOM      1  C   UNL     1       4.991   5.270  19.137  0.00  0.00    +0.000 C 
ENDROOT
BRANCH   1   2
ATOM      2  C   UNL     1       3.594   5.856  18.940  0.00  0.00    +0.000 C 
ATOM      3  C   UNL     1       3.364   7.131  18.543  0.00  0.00    +0.000 C 
BRANCH   2   4
ATOM      4  C   UNL     1       2.469   4.931  19.209  0.00  0.00    +0.000 A 
ATOM      5  C   UNL     1       2.046   4.691  20.524  0.00  0.00    +0.000 A 
ATOM      6  C   UNL     1       1.099   3.697  20.801  0.00  0.00    +0.000 A 
ATOM      7  C   UNL     1       0.518   2.981  19.758  0.00  0.00    +0.000 A 
ATOM      8  C   UNL     1       0.872   3.267  18.442  0.00  0.00    +0.000 A 
ATOM      9  C   UNL     1       1.854   4.228  18.167  0.00  0.00    +0.000 A 
ENDBRANCH   2   4
BRANCH   3  10
ATOM     10  C   UNL     1       2.050   7.832  18.380  0.00  0.00    +0.000 C 
BRANCH  10  11
ATOM     11  O   UNL     1       2.151   8.723  17.277  0.00  0.00    +0.000 OA
ATOM     12  H   UNL     1       2.949   8.464  16.784  0.00  0.00    +0.000 HD
ENDBRANCH  10  11
ENDBRANCH   3  10
ENDBRANCH   1   2
BRANCH   1  13
ATOM     13  C   UNL     1       5.315   4.105  18.198  0.00  0.00    +0.000 C 
BRANCH  13  16
ATOM     14  C   UNL     1       6.548   4.710  16.118  0.00  0.00    +0.000 C 
ATOM     15  C   UNL     1       7.835   4.707  16.918  0.00  0.00    +0.000 C 
ATOM     16  C   UNL     1       5.376   4.425  16.730  0.00  0.00    +0.000 C 
BRANCH  14  17
ATOM     17  C   UNL     1       6.559   5.035  14.635  0.00  0.00    +0.000 C 
BRANCH  17  18
ATOM     18  C   UNL     1       5.557   4.228  13.809  0.00  0.00    +0.000 C 
BRANCH  18  22
ATOM     19  C   UNL     1       6.271   1.635  11.012  0.00  0.00    +0.000 C 
ATOM     20  C   UNL     1       5.601   2.699  11.839  0.00  0.00    +0.000 C 
ATOM     21  C   UNL     1       4.265   3.211  11.356  0.00  0.00    +0.000 C 
ATOM     22  C   UNL     1       6.171   3.150  12.960  0.00  0.00    +0.000 C 
ENDBRANCH  18  22
ENDBRANCH  17  18
ENDBRANCH  14  17
ENDBRANCH  13  16
ENDBRANCH   1  13
TORSDOF 9
ENDMDL
MODEL 4
REMARK VINA RESULT:      -6.9      1.081      1.620
REMARK  Name = 
REMARK  12 active torsions:
REMARK  status: ('A' for Active; 'I' for Inactive)
REMARK    1  A    between atoms: C_1  and  C_2
REMARK    2  A    between atoms: C_2  and  C_3
REMARK    3  A    between atoms: C_4  and  C_5
REMARK    4  A    between atoms: C_5  and  C_6
REMARK    5  A    between atoms: C_6  and  C_7
REMARK    6  A    between atoms: C_7  and  C_8
REMARK    7  A    between atoms: C_9  and  C_10
REMARK    8  A    between atoms: C_10  and  C_11
REMARK    9  A    between atoms: C_11  and  C_12
REMARK   10  A    between atoms: C_12  and  C_16
REMARK   11  A    between atoms: C_13  and  C_14
REMARK   12  A    between atoms: C_14  and  O_15
REMARK                            x       y       z     vdW  Elec       q    Type
REMARK                         _______ _______ _______ _____ _____    ______ ____
ROOT
ATOM      1  C   UNL     1       4.849   6.726  18.256  0.00  0.00    +0.000 C 
ENDROOT
BRANCH   1   2
ATOM      2  C   UNL     1       3.348   7.015  18.259  0.00  0.00    +0.000 C 
ATOM      3  C   UNL     1       2.811   8.194  17.864  0.00  0.00    +0.000 C 
BRANCH   2   4
ATOM      4  C   UNL     1       2.485   5.907  18.729  0.00  0.00    +0.000 A 
ATOM      5  C   UNL     1       2.114   5.818  20.079  0.00  0.00    +0.000 A 
ATOM      6  C   UNL     1       1.440   4.690  20.563  0.00  0.00    +0.000 A 
ATOM      7  C   UNL     1       1.072   3.672  19.687  0.00  0.00    +0.000 A 
ATOM      8  C   UNL     1       1.364   3.787  18.330  0.00  0.00    +0.000 A 
ATOM      9  C   UNL     1       2.080   4.893  17.853  0.00  0.00    +0.000 A 
ENDBRANCH   2   4
BRANCH   3  10
ATOM     10  C   UNL     1       1.373   8.614  17.885  0.00  0.00    +0.000 C 
BRANCH  10  11
ATOM     11  O   UNL     1       1.133   9.331  19.090  0.00  0.00    +0.000 OA
ATOM     12  H   UNL     1       0.475   8.819  19.590  0.00  0.00    +0.000 HD
ENDBRANCH  10  11
ENDBRANCH   3  10
ENDBRANCH   1   2
BRANCH   1  13
ATOM     13  C   UNL     1       5.520   6.941  16.896  0.00  0.00    +0.000 C 
BRANCH  13  16
ATOM     14  C   UNL     1       5.960   4.804  15.693  0.00  0.00    +0.000 C 
ATOM     15  C   UNL     1       7.126   4.555  16.628  0.00  0.00    +0.000 C 
ATOM     16  C   UNL     1       5.217   5.925  15.831  0.00  0.00    +0.000 C 
BRANCH  14  17
ATOM     17  C   UNL     1       5.621   3.809  14.597  0.00  0.00    +0.000 C 
BRANCH  17  18
ATOM     18  C   UNL     1       6.272   4.117  13.248  0.00  0.00    +0.000 C 
BRANCH  18  22
ATOM     19  C   UNL     1       6.172   1.159  10.739  0.00  0.00    +0.000 C 
ATOM     20  C   UNL     1       5.768   2.360  11.552  0.00  0.00    +0.000 C 
ATOM     21  C   UNL     1       4.374   2.900  11.342  0.00  0.00    +0.000 C 
ATOM     22  C   UNL     1       6.616   2.904  12.429  0.00  0.00    +0.000 C 
ENDBRANCH  18  22
ENDBRANCH  17  18
ENDBRANCH  14  17
ENDBRANCH  13  16
ENDBRANCH   1  13
TORSDOF 9
ENDMDL
MODEL 5
REMARK VINA RESULT:      -6.9      0.941      1.205
REMARK  Name = 
REMARK  12 active torsions:
REMARK  status: ('A' for Active; 'I' for Inactive)
REMARK    1  A    between atoms: C_1  and  C_2
REMARK    2  A    between atoms: C_2  and  C_3
REMARK    3  A    between atoms: C_4  and  C_5
REMARK    4  A    between atoms: C_5  and  C_6
REMARK    5  A    between atoms: C_6  and  C_7
REMARK    6  A    between atoms: C_7  and  C_8
REMARK    7  A    between atoms: C_9  and  C_10
REMARK    8  A    between atoms: C_10  and  C_11
REMARK    9  A    between atoms: C_11  and  C_12
REMARK   10  A    between atoms: C_12  and  C_16
REMARK   11  A    between atoms: C_13  and  C_14
REMARK   12  A    between atoms: C_14  and  O_15
REMARK                            x       y       z     vdW  Elec       q    Type
REMARK                         _______ _______ _______ _____ _____    ______ ____
ROOT
ATOM      1  C   UNL     1       5.319   4.371  19.256  0.00  0.00    +0.000 C 
ENDROOT
BRANCH   1   2
ATOM      2  C   UNL     1       4.022   5.101  18.911  0.00  0.00    +0.000 C 
ATOM      3  C   UNL     1       3.980   6.353  18.396  0.00  0.00    +0.000 C 
BRANCH   2   4
ATOM      4  C   UNL     1       2.775   4.348  19.176  0.00  0.00    +0.000 A 
ATOM      5  C   UNL     1       2.209   4.337  20.460  0.00  0.00    +0.000 A 
ATOM      6  C   UNL     1       1.129   3.498  20.759  0.00  0.00    +0.000 A 
ATOM      7  C   UNL     1       0.563   2.711  19.760  0.00  0.00    +0.000 A 
ATOM      8  C   UNL     1       1.065   2.774  18.463  0.00  0.00    +0.000 A 
ATOM      9  C   UNL     1       2.176   3.577  18.173  0.00  0.00    +0.000 A 
ENDBRANCH   2   4
BRANCH   3  10
ATOM     10  C   UNL     1       2.777   7.190  18.082  0.00  0.00    +0.000 C 
BRANCH  10  11
ATOM     11  O   UNL     1       2.308   7.772  19.292  0.00  0.00    +0.000 OA
ATOM     12  H   UNL     1       2.679   8.670  19.329  0.00  0.00    +0.000 HD
ENDBRANCH  10  11
ENDBRANCH   3  10
ENDBRANCH   1   2
BRANCH   1  13
ATOM     13  C   UNL     1       6.549   4.908  18.517  0.00  0.00    +0.000 C 
BRANCH  13  16
ATOM     14  C   UNL     1       6.942   5.461  16.119  0.00  0.00    +0.000 C 
ATOM     15  C   UNL     1       7.121   6.912  16.517  0.00  0.00    +0.000 C 
ATOM     16  C   UNL     1       6.675   4.534  17.067  0.00  0.00    +0.000 C 
BRANCH  14  17
ATOM     17  C   UNL     1       7.052   5.038  14.665  0.00  0.00    +0.000 C 
BRANCH  17  18
ATOM     18  C   UNL     1       6.310   3.744  14.332  0.00  0.00    +0.000 C 
BRANCH  18  22
ATOM     19  C   UNL     1       4.075   3.404  11.178  0.00  0.00    +0.000 C 
ATOM     20  C   UNL     1       5.209   3.234  12.153  0.00  0.00    +0.000 C 
ATOM     21  C   UNL     1       6.330   2.304  11.754  0.00  0.00    +0.000 C 
ATOM     22  C   UNL     1       5.215   3.896  13.313  0.00  0.00    +0.000 C 
ENDBRANCH  18  22
ENDBRANCH  17  18
ENDBRANCH  14  17
ENDBRANCH  13  16
ENDBRANCH   1  13
TORSDOF 9
ENDMDL
MODEL 6
REMARK VINA RESULT:      -6.9      2.741      7.062
REMARK  Name = 
REMARK  12 active torsions:
REMARK  status: ('A' for Active; 'I' for Inactive)
REMARK    1  A    between atoms: C_1  and  C_2
REMARK    2  A    between atoms: C_2  and  C_3
REMARK    3  A    between atoms: C_4  and  C_5
REMARK    4  A    between atoms: C_5  and  C_6
REMARK    5  A    between atoms: C_6  and  C_7
REMARK    6  A    between atoms: C_7  and  C_8
REMARK    7  A    between atoms: C_9  and  C_10
REMARK    8  A    between atoms: C_10  and  C_11
REMARK    9  A    between atoms: C_11  and  C_12
REMARK   10  A    between atoms: C_12  and  C_16
REMARK   11  A    between atoms: C_13  and  C_14
REMARK   12  A    between atoms: C_14  and  O_15
REMARK                            x       y       z     vdW  Elec       q    Type
REMARK                         _______ _______ _______ _____ _____    ______ ____
ROOT
ATOM      1  C   UNL     1       4.357   3.429  17.512  0.00  0.00    +0.000 C 
ENDROOT
BRANCH   1   2
ATOM      2  C   UNL     1       5.345   4.064  16.535  0.00  0.00    +0.000 C 
ATOM      3  C   UNL     1       5.407   3.749  15.219  0.00  0.00    +0.000 C 
BRANCH   2   4
ATOM      4  C   UNL     1       6.260   5.072  17.117  0.00  0.00    +0.000 A 
ATOM      5  C   UNL     1       7.215   4.698  18.073  0.00  0.00    +0.000 A 
ATOM      6  C   UNL     1       7.969   5.666  18.749  0.00  0.00    +0.000 A 
ATOM      7  C   UNL     1       7.821   7.012  18.426  0.00  0.00    +0.000 A 
ATOM      8  C   UNL     1       6.933   7.389  17.421  0.00  0.00    +0.000 A 
ATOM      9  C   UNL     1       6.144   6.425  16.778  0.00  0.00    +0.000 A 
ENDBRANCH   2   4
BRANCH   3  10
ATOM     10  C   UNL     1       6.369   4.252  14.186  0.00  0.00    +0.000 C 
BRANCH  10  11
ATOM     11  O   UNL     1       6.426   3.304  13.128  0.00  0.00    +0.000 OA
ATOM     12  H   UNL     1       5.635   2.746  13.213  0.00  0.00    +0.000 HD
ENDBRANCH  10  11
ENDBRANCH   3  10
ENDBRANCH   1   2
BRANCH   1  13
ATOM     13  C   UNL     1       2.942   4.010  17.430  0.00  0.00    +0.000 C 
BRANCH  13  16
ATOM     14  C   UNL     1       1.846   4.808  19.522  0.00  0.00    +0.000 C 
ATOM     15  C   UNL     1       1.334   3.400  19.752  0.00  0.00    +0.000 C 
ATOM     16  C   UNL     1       2.598   5.078  18.430  0.00  0.00    +0.000 C 
BRANCH  14  17
ATOM     17  C   UNL     1       1.518   5.921  20.500  0.00  0.00    +0.000 C 
BRANCH  17  18
ATOM     18  C   UNL     1       2.285   7.220  20.252  0.00  0.00    +0.000 C 
BRANCH  18  22
ATOM     19  C   UNL     1       0.391  10.355  18.971  0.00  0.00    +0.000 C 
ATOM     20  C   UNL     1       1.289   9.148  19.023  0.00  0.00    +0.000 C 
ATOM     21  C   UNL     1       2.032   8.784  17.761  0.00  0.00    +0.000 C 
ATOM     22  C   UNL     1       1.422   8.447  20.152  0.00  0.00    +0.000 C 
ENDBRANCH  18  22
ENDBRANCH  17  18
ENDBRANCH  14  17
ENDBRANCH  13  16
ENDBRANCH   1  13
TORSDOF 9
ENDMDL
MODEL 7
REMARK VINA RESULT:      -6.9      2.702      6.740
REMARK  Name = 
REMARK  12 active torsions:
REMARK  status: ('A' for Active; 'I' for Inactive)
REMARK    1  A    between atoms: C_1  and  C_2
REMARK    2  A    between atoms: C_2  and  C_3
REMARK    3  A    between atoms: C_4  and  C_5
REMARK    4  A    between atoms: C_5  and  C_6
REMARK    5  A    between atoms: C_6  and  C_7
REMARK    6  A    between atoms: C_7  and  C_8
REMARK    7  A    between atoms: C_9  and  C_10
REMARK    8  A    between atoms: C_10  and  C_11
REMARK    9  A    between atoms: C_11  and  C_12
REMARK   10  A    between atoms: C_12  and  C_16
REMARK   11  A    between atoms: C_13  and  C_14
REMARK   12  A    between atoms: C_14  and  O_15
REMARK                            x       y       z     vdW  Elec       q    Type
REMARK                         _______ _______ _______ _____ _____    ______ ____
ROOT
ATOM      1  C   UNL     1       3.694   3.822  16.625  0.00  0.00    +0.000 C 
ENDROOT
BRANCH   1   2
ATOM      2  C   UNL     1       5.009   4.261  15.980  0.00  0.00    +0.000 C 
ATOM      3  C   UNL     1       5.380   3.915  14.724  0.00  0.00    +0.000 C 
BRANCH   2   4
ATOM      4  C   UNL     1       5.882   5.110  16.823  0.00  0.00    +0.000 A 
ATOM      5  C   UNL     1       5.835   6.507  16.712  0.00  0.00    +0.000 A 
ATOM      6  C   UNL     1       6.769   7.310  17.380  0.00  0.00    +0.000 A 
ATOM      7  C   UNL     1       7.715   6.725  18.217  0.00  0.00    +0.000 A 
ATOM      8  C   UNL     1       7.720   5.344  18.397  0.00  0.00    +0.000 A 
ATOM      9  C   UNL     1       6.817   4.536  17.692  0.00  0.00    +0.000 A 
ENDBRANCH   2   4
BRANCH   3  10
ATOM     10  C   UNL     1       6.662   4.227  14.014  0.00  0.00    +0.000 C 
BRANCH  10  11
ATOM     11  O   UNL     1       6.564   3.746  12.680  0.00  0.00    +0.000 OA
ATOM     12  H   UNL     1       6.602   2.776  12.732  0.00  0.00    +0.000 HD
ENDBRANCH  10  11
ENDBRANCH   3  10
ENDBRANCH   1   2
BRANCH   1  13
ATOM     13  C   UNL     1       3.805   2.537  17.450  0.00  0.00    +0.000 C 
BRANCH  13  16
ATOM     14  C   UNL     1       2.283   2.604  19.423  0.00  0.00    +0.000 C 
ATOM     15  C   UNL     1       1.111   2.403  18.484  0.00  0.00    +0.000 C 
ATOM     16  C   UNL     1       3.539   2.663  18.925  0.00  0.00    +0.000 C 
BRANCH  14  17
ATOM     17  C   UNL     1       2.063   2.744  20.919  0.00  0.00    +0.000 C 
BRANCH  17  18
ATOM     18  C   UNL     1       2.243   4.168  21.447  0.00  0.00    +0.000 C 
BRANCH  18  22
ATOM     19  C   UNL     1       2.070   7.010  18.811  0.00  0.00    +0.000 C 
ATOM     20  C   UNL     1       2.600   5.958  19.749  0.00  0.00    +0.000 C 
ATOM     21  C   UNL     1       4.097   5.762  19.792  0.00  0.00    +0.000 C 
ATOM     22  C   UNL     1       1.768   5.246  20.513  0.00  0.00    +0.000 C 
ENDBRANCH  18  22
ENDBRANCH  17  18
ENDBRANCH  14  17
ENDBRANCH  13  16
ENDBRANCH   1  13
TORSDOF 9
ENDMDL
MODEL 8
REMARK VINA RESULT:      -6.8      1.788      3.126
REMARK  Name = 
REMARK  12 active torsions:
REMARK  status: ('A' for Active; 'I' for Inactive)
REMARK    1  A    between atoms: C_1  and  C_2
REMARK    2  A    between atoms: C_2  and  C_3
REMARK    3  A    between atoms: C_4  and  C_5
REMARK    4  A    between atoms: C_5  and  C_6
REMARK    5  A    between atoms: C_6  and  C_7
REMARK    6  A    between atoms: C_7  and  C_8
REMARK    7  A    between atoms: C_9  and  C_10
REMARK    8  A    between atoms: C_10  and  C_11
REMARK    9  A    between atoms: C_11  and  C_12
REMARK   10  A    between atoms: C_12  and  C_16
REMARK   11  A    between atoms: C_13  and  C_14
REMARK   12  A    between atoms: C_14  and  O_15
REMARK                            x       y       z     vdW  Elec       q    Type
REMARK                         _______ _______ _______ _____ _____    ______ ____
ROOT
ATOM      1  C   UNL     1       4.969   5.042  19.435  0.00  0.00    +0.000 C 
ENDROOT
BRANCH   1   2
ATOM      2  C   UNL     1       3.523   5.137  18.950  0.00  0.00    +0.000 C 
ATOM      3  C   UNL     1       2.777   4.062  18.598  0.00  0.00    +0.000 C 
BRANCH   2   4
ATOM      4  C   UNL     1       2.960   6.505  18.883  0.00  0.00    +0.000 A 
ATOM      5  C   UNL     1       2.252   7.036  19.970  0.00  0.00    +0.000 A 
ATOM      6  C   UNL     1       1.576   8.258  19.857  0.00  0.00    +0.000 A 
ATOM      7  C   UNL     1       1.658   8.990  18.675  0.00  0.00    +0.000 A 
ATOM      8  C   UNL     1       2.425   8.510  17.616  0.00  0.00    +0.000 A 
ATOM      9  C   UNL     1       3.062   7.265  17.712  0.00  0.00    +0.000 A 
ENDBRANCH   2   4
BRANCH   3  10
ATOM     10  C   UNL     1       1.383   4.036  18.050  0.00  0.00    +0.000 C 
BRANCH  10  11
ATOM     11  O   UNL     1       0.849   2.733  18.245  0.00  0.00    +0.000 OA
ATOM     12  H   UNL     1       0.399   2.492  17.417  0.00  0.00    +0.000 HD
ENDBRANCH  10  11
ENDBRANCH   3  10
ENDBRANCH   1   2
BRANCH   1  13
ATOM     13  C   UNL     1       5.890   4.257  18.495  0.00  0.00    +0.000 C 
BRANCH  13  16
ATOM     14  C   UNL     1       6.221   5.520  16.371  0.00  0.00    +0.000 C 
ATOM     15  C   UNL     1       7.069   6.517  17.135  0.00  0.00    +0.000 C 
ATOM     16  C   UNL     1       5.677   4.466  17.021  0.00  0.00    +0.000 C 
BRANCH  14  17
ATOM     17  C   UNL     1       5.972   5.694  14.884  0.00  0.00    +0.000 C 
BRANCH  17  18
ATOM     18  C   UNL     1       5.344   4.475  14.207  0.00  0.00    +0.000 C 
BRANCH  18  22
ATOM     19  C   UNL     1       6.909   2.389  11.334  0.00  0.00    +0.000 C 
ATOM     20  C   UNL     1       5.918   3.149  12.175  0.00  0.00    +0.000 C 
ATOM     21  C   UNL     1       4.507   3.258  11.650  0.00  0.00    +0.000 C 
ATOM     22  C   UNL     1       6.286   3.686  13.341  0.00  0.00    +0.000 C 
ENDBRANCH  18  22
ENDBRANCH  17  18
ENDBRANCH  14  17
ENDBRANCH  13  16
ENDBRANCH   1  13
TORSDOF 9
ENDMDL
MODEL 9
REMARK VINA RESULT:      -6.7      3.720      6.085
REMARK  Name = 
REMARK  12 active torsions:
REMARK  status: ('A' for Active; 'I' for Inactive)
REMARK    1  A    between atoms: C_1  and  C_2
REMARK    2  A    between atoms: C_2  and  C_3
REMARK    3  A    between atoms: C_4  and  C_5
REMARK    4  A    between atoms: C_5  and  C_6
REMARK    5  A    between atoms: C_6  and  C_7
REMARK    6  A    between atoms: C_7  and  C_8
REMARK    7  A    between atoms: C_9  and  C_10
REMARK    8  A    between atoms: C_10  and  C_11
REMARK    9  A    between atoms: C_11  and  C_12
REMARK   10  A    between atoms: C_12  and  C_16
REMARK   11  A    between atoms: C_13  and  C_14
REMARK   12  A    between atoms: C_14  and  O_15
REMARK                            x       y       z     vdW  Elec       q    Type
REMARK                         _______ _______ _______ _____ _____    ______ ____
ROOT
ATOM      1  C   UNL     1       3.646   7.280  17.172  0.00  0.00    +0.000 C 
ENDROOT
BRANCH   1   2
ATOM      2  C   UNL     1       3.001   6.656  18.408  0.00  0.00    +0.000 C 
ATOM      3  C   UNL     1       2.427   7.377  19.400  0.00  0.00    +0.000 C 
BRANCH   2   4
ATOM      4  C   UNL     1       3.032   5.176  18.467  0.00  0.00    +0.000 A 
ATOM      5  C   UNL     1       2.063   4.417  17.796  0.00  0.00    +0.000 A 
ATOM      6  C   UNL     1       1.986   3.030  17.981  0.00  0.00    +0.000 A 
ATOM      7  C   UNL     1       2.919   2.384  18.786  0.00  0.00    +0.000 A 
ATOM      8  C   UNL     1       3.935   3.118  19.394  0.00  0.00    +0.000 A 
ATOM      9  C   UNL     1       3.984   4.511  19.248  0.00  0.00    +0.000 A 
ENDBRANCH   2   4
BRANCH   3  10
ATOM     10  C   UNL     1       1.827   6.885  20.681  0.00  0.00    +0.000 C 
BRANCH  10  11
ATOM     11  O   UNL     1       1.570   8.006  21.517  0.00  0.00    +0.000 OA
ATOM     12  H   UNL     1       0.619   8.194  21.442  0.00  0.00    +0.000 HD
ENDBRANCH  10  11
ENDBRANCH   3  10
ENDBRANCH   1   2
BRANCH   1  13
ATOM     13  C   UNL     1       5.013   6.686  16.817  0.00  0.00    +0.000 C 
BRANCH  13  16
ATOM     14  C   UNL     1       7.255   6.746  17.905  0.00  0.00    +0.000 C 
ATOM     15  C   UNL     1       7.215   5.234  17.997  0.00  0.00    +0.000 C 
ATOM     16  C   UNL     1       6.217   7.412  17.349  0.00  0.00    +0.000 C 
BRANCH  14  17
ATOM     17  C   UNL     1       8.446   7.523  18.437  0.00  0.00    +0.000 C 
BRANCH  17  18
ATOM     18  C   UNL     1       8.367   9.032  18.199  0.00  0.00    +0.000 C 
BRANCH  18  22
ATOM     19  C   UNL     1      10.261  11.698  20.287  0.00  0.00    +0.000 C 
ATOM     20  C   UNL     1       9.769  10.873  19.128  0.00  0.00    +0.000 C 
ATOM     21  C   UNL     1      10.301  11.218  17.758  0.00  0.00    +0.000 C 
ATOM     22  C   UNL     1       8.908   9.870  19.323  0.00  0.00    +0.000 C 
ENDBRANCH  18  22
ENDBRANCH  17  18
ENDBRANCH  14  17
ENDBRANCH  13  16
ENDBRANCH   1  13
TORSDOF 9
ENDMDL
