MODEL 1
REMARK VINA RESULT:      -9.0      0.000      0.000
REMARK  Name = 
REMARK  7 active torsions:
REMARK  status: ('A' for Active; 'I' for Inactive)
REMARK    1  A    between atoms: C_1  and  C_2
REMARK    2  A    between atoms: C_5  and  N_6
REMARK    3  A    between atoms: N_6  and  S_7
REMARK    4  A    between atoms: S_7  and  C_10
REMARK    5  A    between atoms: C_17  and  C_18
REMARK    6  A    between atoms: C_21  and  C_22
REMARK    7  A    between atoms: N_29  and  C_30
REMARK                            x       y       z     vdW  Elec       q    Type
REMARK                         _______ _______ _______ _____ _____    ______ ____
ROOT
ATOM      1  C   UNL     1       0.996   4.729  17.739  0.00  0.00    +0.000 C 
ATOM      2  C   UNL     1       2.440   4.780  18.168  0.00  0.00    +0.000 A 
ATOM      3  C   UNL     1       3.176   3.580  18.083  0.00  0.00    +0.000 A 
ATOM      4  C   UNL     1       4.515   3.520  18.466  0.00  0.00    +0.000 A 
ATOM      5  C   UNL     1       5.141   4.665  18.936  0.00  0.00    +0.000 A 
ATOM      6  C   UNL     1       4.429   5.861  19.029  0.00  0.00    +0.000 A 
ATOM      7  C   UNL     1       3.070   5.954  18.650  0.00  0.00    +0.000 A 
ENDROOT
BRANCH   7   8
ATOM      8  C   UNL     1       2.363   7.253  18.779  0.00  0.00    +0.000 A 
ATOM      9  C   UNL     1       2.023   8.185  17.814  0.00  0.00    +0.000 A 
ATOM     10  C   UNL     1       1.286   9.286  18.333  0.00  0.00    +0.000 A 
ATOM     11  C   UNL     1       1.144   9.240  19.705  0.00  0.00    +0.000 A 
ATOM     12  S   UNL     1       1.826   7.797  20.323  0.00  0.00    +0.000 S 
BRANCH  11  13
ATOM     13  C   UNL     1       0.537  10.251  20.591  0.00  0.00    +0.000 A 
ATOM     14  C   UNL     1      -0.310   9.902  21.673  0.00  0.00    +0.000 A 
ATOM     15  C   UNL     1      -0.882  10.880  22.499  0.00  0.00    +0.000 A 
ATOM     16  C   UNL     1      -0.596  12.199  22.214  0.00  0.00    +0.000 A 
ATOM     17  C   UNL     1       0.230  12.570  21.156  0.00  0.00    +0.000 A 
ATOM     18  C   UNL     1       0.807  11.612  20.345  0.00  0.00    +0.000 A 
ATOM     19  C   UNL     1       0.346  14.055  21.088  0.00  0.00    +0.000 C 
ATOM     20  N   UNL     1      -0.475  14.479  22.207  0.00  0.00    +0.000 N 
ATOM     21  C   UNL     1      -0.664  15.864  22.549  0.00  0.00    +0.000 C 
ATOM     22  C   UNL     1      -1.050  13.421  22.890  0.00  0.00    +0.000 C 
ATOM     23  O   UNL     1      -1.789  13.455  23.857  0.00  0.00    +0.000 OA
ENDBRANCH  11  13
ENDBRANCH   7   8
BRANCH   5  24
ATOM     24  N   UNL     1       6.507   4.640  19.324  0.00  0.00    +0.000 N 
ATOM     25  H   UNL     1       6.740   4.961  20.261  0.00  0.00    +0.000 HD
BRANCH  24  26
ATOM     26  S   UNL     1       7.693   5.102  18.202  0.00  0.00    +0.000 S 
ATOM     27  O   UNL     1       8.047   6.468  18.516  0.00  0.00    +0.000 OA
ATOM     28  O   UNL     1       8.706   4.068  18.159  0.00  0.00    +0.000 OA
BRANCH  26  29
ATOM     29  C   UNL     1       6.858   5.117  16.609  0.00  0.00    +0.000 A 
ATOM     30  C   UNL     1       6.036   6.179  16.256  0.00  0.00    +0.000 A 
ATOM     31  C   UNL     1       5.378   6.105  15.033  0.00  0.00    +0.000 A 
ATOM     32  C   UNL     1       5.551   4.980  14.228  0.00  0.00    +0.000 A 
ATOM     33  C   UNL     1       6.396   3.972  14.670  0.00  0.00    +0.000 A 
ATOM     34  N   UNL     1       7.075   4.012  15.838  0.00  0.00    +0.000 NA
ENDBRANCH  26  29
ENDBRANCH  24  26
ENDBRANCH   5  24
TORSDOF 5
ENDMDL
MODEL 2
REMARK VINA RESULT:      -9.0      1.102      1.297
REMARK  Name = 
REMARK  7 active torsions:
REMARK  status: ('A' for Active; 'I' for Inactive)
REMARK    1  A    between atoms: C_1  and  C_2
REMARK    2  A    between atoms: C_5  and  N_6
REMARK    3  A    between atoms: N_6  and  S_7
REMARK    4  A    between atoms: S_7  and  C_10
REMARK    5  A    between atoms: C_17  and  C_18
REMARK    6  A    between atoms: C_21  and  C_22
REMARK    7  A    between atoms: N_29  and  C_30
REMARK                            x       y       z     vdW  Elec       q    Type
REMARK                         _______ _______ _______ _____ _____    ______ ____
ROOT
ATOM      1  C   UNL     1       1.073   4.503  18.190  0.00  0.00    +0.000 C 
ATOM      2  C   UNL     1       2.534   4.656  18.527  0.00  0.00    +0.000 A 
ATOM      3  C   UNL     1       3.326   3.490  18.486  0.00  0.00    +0.000 A 
ATOM      4  C   UNL     1       4.686   3.524  18.791  0.00  0.00    +0.000 A 
ATOM      5  C   UNL     1       5.277   4.730  19.138  0.00  0.00    +0.000 A 
ATOM      6  C   UNL     1       4.510   5.894  19.186  0.00  0.00    +0.000 A 
ATOM      7  C   UNL     1       3.128   5.892  18.883  0.00  0.00    +0.000 A 
ENDROOT
BRANCH   7   8
ATOM      8  C   UNL     1       2.363   7.162  18.958  0.00  0.00    +0.000 A 
ATOM      9  C   UNL     1       2.151   8.136  17.999  0.00  0.00    +0.000 A 
ATOM     10  C   UNL     1       1.299   9.186  18.443  0.00  0.00    +0.000 A 
ATOM     11  C   UNL     1       0.937   9.060  19.770  0.00  0.00    +0.000 A 
ATOM     12  S   UNL     1       1.562   7.604  20.419  0.00  0.00    +0.000 S 
BRANCH  11  13
ATOM     13  C   UNL     1       0.157  10.003  20.593  0.00  0.00    +0.000 A 
ATOM     14  C   UNL     1       0.037   9.865  21.999  0.00  0.00    +0.000 A 
ATOM     15  C   UNL     1      -0.714  10.769  22.761  0.00  0.00    +0.000 A 
ATOM     16  C   UNL     1      -1.342  11.798  22.090  0.00  0.00    +0.000 A 
ATOM     17  C   UNL     1      -1.244  11.956  20.711  0.00  0.00    +0.000 A 
ATOM     18  C   UNL     1      -0.496  11.076  19.953  0.00  0.00    +0.000 A 
ATOM     19  C   UNL     1      -2.033  13.143  20.269  0.00  0.00    +0.000 C 
ATOM     20  N   UNL     1      -2.567  13.640  21.523  0.00  0.00    +0.000 N 
ATOM     21  C   UNL     1      -3.406  14.806  21.601  0.00  0.00    +0.000 C 
ATOM     22  C   UNL     1      -2.190  12.876  22.615  0.00  0.00    +0.000 C 
ATOM     23  O   UNL     1      -2.482  13.032  23.786  0.00  0.00    +0.000 OA
ENDBRANCH  11  13
ENDBRANCH   7   8
BRANCH   5  24
ATOM     24  N   UNL     1       6.662   4.800  19.443  0.00  0.00    +0.000 N 
ATOM     25  H   UNL     1       6.932   5.231  20.324  0.00  0.00    +0.000 HD
BRANCH  24  26
ATOM     26  S   UNL     1       7.762   5.180  18.209  0.00  0.00    +0.000 S 
ATOM     27  O   UNL     1       8.167   6.552  18.426  0.00  0.00    +0.000 OA
ATOM     28  O   UNL     1       8.748   4.122  18.136  0.00  0.00    +0.000 OA
BRANCH  26  29
ATOM     29  C   UNL     1       6.802   5.140  16.688  0.00  0.00    +0.000 A 
ATOM     30  C   UNL     1       6.814   4.012  15.879  0.00  0.00    +0.000 A 
ATOM     31  C   UNL     1       6.093   4.065  14.691  0.00  0.00    +0.000 A 
ATOM     32  C   UNL     1       5.410   5.232  14.355  0.00  0.00    +0.000 A 
ATOM     33  C   UNL     1       5.458   6.305  15.233  0.00  0.00    +0.000 A 
ATOM     34  N   UNL     1       6.125   6.292  16.409  0.00  0.00    +0.000 NA
ENDBRANCH  26  29
ENDBRANCH  24  26
ENDBRANCH   5  24
TORSDOF 5
ENDMDL
MODEL 3
REMARK VINA RESULT:      -8.9      1.825      2.468
REMARK  Name = 
REMARK  7 active torsions:
REMARK  status: ('A' for Active; 'I' for Inactive)
REMARK    1  A    between atoms: C_1  and  C_2
REMARK    2  A    between atoms: C_5  and  N_6
REMARK    3  A    between atoms: N_6  and  S_7
REMARK    4  A    between atoms: S_7  and  C_10
REMARK    5  A    between atoms: C_17  and  C_18
REMARK    6  A    between atoms: C_21  and  C_22
REMARK    7  A    between atoms: N_29  and  C_30
REMARK                            x       y       z     vdW  Elec       q    Type
REMARK                         _______ _______ _______ _____ _____    ______ ____
ROOT
ATOM      1  C   UNL     1       0.938   3.037  18.966  0.00  0.00    +0.000 C 
ATOM      2  C   UNL     1       2.320   3.437  18.515  0.00  0.00    +0.000 A 
ATOM      3  C   UNL     1       3.043   2.495  17.754  0.00  0.00    +0.000 A 
ATOM      4  C   UNL     1       4.332   2.765  17.298  0.00  0.00    +0.000 A 
ATOM      5  C   UNL     1       4.918   3.986  17.593  0.00  0.00    +0.000 A 
ATOM      6  C   UNL     1       4.220   4.931  18.347  0.00  0.00    +0.000 A 
ATOM      7  C   UNL     1       2.911   4.686  18.825  0.00  0.00    +0.000 A 
ENDROOT
BRANCH   7   8
ATOM      8  C   UNL     1       2.222   5.727  19.627  0.00  0.00    +0.000 A 
ATOM      9  C   UNL     1       1.517   5.621  20.813  0.00  0.00    +0.000 A 
ATOM     10  C   UNL     1       1.054   6.873  21.306  0.00  0.00    +0.000 A 
ATOM     11  C   UNL     1       1.325   7.922  20.449  0.00  0.00    +0.000 A 
ATOM     12  S   UNL     1       2.233   7.370  19.107  0.00  0.00    +0.000 S 
BRANCH  11  13
ATOM     13  C   UNL     1       0.909   9.331  20.576  0.00  0.00    +0.000 A 
ATOM     14  C   UNL     1       1.267  10.318  19.624  0.00  0.00    +0.000 A 
ATOM     15  C   UNL     1       0.866  11.652  19.768  0.00  0.00    +0.000 A 
ATOM     16  C   UNL     1       0.114  11.974  20.878  0.00  0.00    +0.000 A 
ATOM     17  C   UNL     1      -0.250  11.026  21.831  0.00  0.00    +0.000 A 
ATOM     18  C   UNL     1       0.132   9.706  21.690  0.00  0.00    +0.000 A 
ATOM     19  C   UNL     1      -1.047  11.666  22.918  0.00  0.00    +0.000 C 
ATOM     20  N   UNL     1      -1.108  13.048  22.481  0.00  0.00    +0.000 N 
ATOM     21  C   UNL     1      -1.798  14.067  23.227  0.00  0.00    +0.000 C 
ATOM     22  C   UNL     1      -0.434  13.272  21.292  0.00  0.00    +0.000 C 
ATOM     23  O   UNL     1      -0.300  14.317  20.683  0.00  0.00    +0.000 OA
ENDBRANCH  11  13
ENDBRANCH   7   8
BRANCH   5  24
ATOM     24  N   UNL     1       6.226   4.296  17.134  0.00  0.00    +0.000 N 
ATOM     25  H   UNL     1       6.996   4.193  17.791  0.00  0.00    +0.000 HD
BRANCH  24  26
ATOM     26  S   UNL     1       6.451   5.643  16.129  0.00  0.00    +0.000 S 
ATOM     27  O   UNL     1       5.216   6.395  16.164  0.00  0.00    +0.000 OA
ATOM     28  O   UNL     1       7.707   6.270  16.483  0.00  0.00    +0.000 OA
BRANCH  26  29
ATOM     29  C   UNL     1       6.623   4.973  14.468  0.00  0.00    +0.000 A 
ATOM     30  C   UNL     1       5.776   3.966  14.026  0.00  0.00    +0.000 A 
ATOM     31  C   UNL     1       5.996   3.454  12.752  0.00  0.00    +0.000 A 
ATOM     32  C   UNL     1       7.049   3.950  11.985  0.00  0.00    +0.000 A 
ATOM     33  C   UNL     1       7.838   4.959  12.517  0.00  0.00    +0.000 A 
ATOM     34  N   UNL     1       7.648   5.504  13.740  0.00  0.00    +0.000 NA
ENDBRANCH  26  29
ENDBRANCH  24  26
ENDBRANCH   5  24
TORSDOF 5
ENDMDL
MODEL 4
REMARK VINA RESULT:      -8.8      2.325      3.148
REMARK  Name = 
REMARK  7 active torsions:
REMARK  status: ('A' for Active; 'I' for Inactive)
REMARK    1  A    between atoms: C_1  and  C_2
REMARK    2  A    between atoms: C_5  and  N_6
REMARK    3  A    between atoms: N_6  and  S_7
REMARK    4  A    between atoms: S_7  and  C_10
REMARK    5  A    between atoms: C_17  and  C_18
REMARK    6  A    between atoms: C_21  and  C_22
REMARK    7  A    between atoms: N_29  and  C_30
REMARK                            x       y       z     vdW  Elec       q    Type
REMARK                         _______ _______ _______ _____ _____    ______ ____
ROOT
ATOM      1  C   UNL     1       0.578   3.431  19.550  0.00  0.00    +0.000 C 
ATOM      2  C   UNL     1       1.914   3.528  18.859  0.00  0.00    +0.000 A 
ATOM      3  C   UNL     1       2.415   2.350  18.265  0.00  0.00    +0.000 A 
ATOM      4  C   UNL     1       3.646   2.333  17.610  0.00  0.00    +0.000 A 
ATOM      5  C   UNL     1       4.394   3.499  17.535  0.00  0.00    +0.000 A 
ATOM      6  C   UNL     1       3.916   4.673  18.118  0.00  0.00    +0.000 A 
ATOM      7  C   UNL     1       2.672   4.722  18.790  0.00  0.00    +0.000 A 
ENDROOT
BRANCH   7   8
ATOM      8  C   UNL     1       2.221   6.000  19.395  0.00  0.00    +0.000 A 
ATOM      9  C   UNL     1       1.885   6.299  20.703  0.00  0.00    +0.000 A 
ATOM     10  C   UNL     1       1.558   7.670  20.900  0.00  0.00    +0.000 A 
ATOM     11  C   UNL     1       1.555   8.396  19.725  0.00  0.00    +0.000 A 
ATOM     12  S   UNL     1       2.053   7.409  18.418  0.00  0.00    +0.000 S 
BRANCH  11  13
ATOM     13  C   UNL     1       1.166   9.805  19.527  0.00  0.00    +0.000 A 
ATOM     14  C   UNL     1       1.747  10.620  18.523  0.00  0.00    +0.000 A 
ATOM     15  C   UNL     1       1.367  11.958  18.357  0.00  0.00    +0.000 A 
ATOM     16  C   UNL     1       0.409  12.458  19.215  0.00  0.00    +0.000 A 
ATOM     17  C   UNL     1      -0.176  11.682  20.211  0.00  0.00    +0.000 A 
ATOM     18  C   UNL     1       0.184  10.358  20.374  0.00  0.00    +0.000 A 
ATOM     19  C   UNL     1      -1.163  12.491  20.984  0.00  0.00    +0.000 C 
ATOM     20  N   UNL     1      -1.087  13.780  20.323  0.00  0.00    +0.000 N 
ATOM     21  C   UNL     1      -1.885  14.907  20.728  0.00  0.00    +0.000 C 
ATOM     22  C   UNL     1      -0.172  13.805  19.283  0.00  0.00    +0.000 C 
ATOM     23  O   UNL     1       0.120  14.734  18.553  0.00  0.00    +0.000 OA
ENDBRANCH  11  13
ENDBRANCH   7   8
BRANCH   5  24
ATOM     24  N   UNL     1       5.646   3.517  16.866  0.00  0.00    +0.000 N 
ATOM     25  H   UNL     1       6.451   3.132  17.355  0.00  0.00    +0.000 HD
BRANCH  24  26
ATOM     26  S   UNL     1       6.076   4.880  15.953  0.00  0.00    +0.000 S 
ATOM     27  O   UNL     1       6.988   4.420  14.929  0.00  0.00    +0.000 OA
ATOM     28  O   UNL     1       4.864   5.590  15.598  0.00  0.00    +0.000 OA
BRANCH  26  29
ATOM     29  C   UNL     1       7.014   5.926  17.076  0.00  0.00    +0.000 A 
ATOM     30  C   UNL     1       7.511   5.412  18.265  0.00  0.00    +0.000 A 
ATOM     31  C   UNL     1       8.182   6.286  19.114  0.00  0.00    +0.000 A 
ATOM     32  C   UNL     1       8.313   7.626  18.754  0.00  0.00    +0.000 A 
ATOM     33  C   UNL     1       7.782   8.042  17.542  0.00  0.00    +0.000 A 
ATOM     34  N   UNL     1       7.144   7.224  16.674  0.00  0.00    +0.000 NA
ENDBRANCH  26  29
ENDBRANCH  24  26
ENDBRANCH   5  24
TORSDOF 5
ENDMDL
MODEL 5
REMARK VINA RESULT:      -8.7      1.818      2.439
REMARK  Name = 
REMARK  7 active torsions:
REMARK  status: ('A' for Active; 'I' for Inactive)
REMARK    1  A    between atoms: C_1  and  C_2
REMARK    2  A    between atoms: C_5  and  N_6
REMARK    3  A    between atoms: N_6  and  S_7
REMARK    4  A    between atoms: S_7  and  C_10
REMARK    5  A    between atoms: C_17  and  C_18
REMARK    6  A    between atoms: C_21  and  C_22
REMARK    7  A    between atoms: N_29  and  C_30
REMARK                            x       y       z     vdW  Elec       q    Type
REMARK                         _______ _______ _______ _____ _____    ______ ____
ROOT
ATOM      1  C   UNL     1       1.928   5.123  20.788  0.00  0.00    +0.000 C 
ATOM      2  C   UNL     1       2.715   4.929  19.518  0.00  0.00    +0.000 A 
ATOM      3  C   UNL     1       3.315   3.667  19.322  0.00  0.00    +0.000 A 
ATOM      4  C   UNL     1       4.072   3.390  18.185  0.00  0.00    +0.000 A 
ATOM      5  C   UNL     1       4.238   4.373  17.221  0.00  0.00    +0.000 A 
ATOM      6  C   UNL     1       3.655   5.629  17.397  0.00  0.00    +0.000 A 
ATOM      7  C   UNL     1       2.883   5.940  18.540  0.00  0.00    +0.000 A 
ENDROOT
BRANCH   7   8
ATOM      8  C   UNL     1       2.293   7.296  18.674  0.00  0.00    +0.000 A 
ATOM      9  C   UNL     1       2.104   8.286  17.727  0.00  0.00    +0.000 A 
ATOM     10  C   UNL     1       1.441   9.436  18.240  0.00  0.00    +0.000 A 
ATOM     11  C   UNL     1       1.207   9.359  19.599  0.00  0.00    +0.000 A 
ATOM     12  S   UNL     1       1.711   7.839  20.203  0.00  0.00    +0.000 S 
BRANCH  11  13
ATOM     13  C   UNL     1       0.641  10.395  20.484  0.00  0.00    +0.000 A 
ATOM     14  C   UNL     1      -0.288  10.091  21.511  0.00  0.00    +0.000 A 
ATOM     15  C   UNL     1      -0.818  11.092  22.337  0.00  0.00    +0.000 A 
ATOM     16  C   UNL     1      -0.409  12.389  22.107  0.00  0.00    +0.000 A 
ATOM     17  C   UNL     1       0.500  12.716  21.104  0.00  0.00    +0.000 A 
ATOM     18  C   UNL     1       1.036  11.734  20.293  0.00  0.00    +0.000 A 
ATOM     19  C   UNL     1       0.742  14.188  21.086  0.00  0.00    +0.000 C 
ATOM     20  N   UNL     1      -0.098  14.650  22.175  0.00  0.00    +0.000 N 
ATOM     21  C   UNL     1      -0.188  16.037  22.550  0.00  0.00    +0.000 C 
ATOM     22  C   UNL     1      -0.794  13.627  22.796  0.00  0.00    +0.000 C 
ATOM     23  O   UNL     1      -1.576  13.698  23.726  0.00  0.00    +0.000 OA
ENDBRANCH  11  13
ENDBRANCH   7   8
BRANCH   5  24
ATOM     24  N   UNL     1       4.995   4.119  16.046  0.00  0.00    +0.000 N 
ATOM     25  H   UNL     1       5.418   3.198  15.945  0.00  0.00    +0.000 HD
BRANCH  24  26
ATOM     26  S   UNL     1       6.012   5.333  15.440  0.00  0.00    +0.000 S 
ATOM     27  O   UNL     1       6.942   4.682  14.543  0.00  0.00    +0.000 OA
ATOM     28  O   UNL     1       5.186   6.430  14.979  0.00  0.00    +0.000 OA
BRANCH  26  29
ATOM     29  C   UNL     1       6.954   5.915  16.858  0.00  0.00    +0.000 A 
ATOM     30  C   UNL     1       7.321   5.036  17.866  0.00  0.00    +0.000 A 
ATOM     31  C   UNL     1       8.001   5.559  18.961  0.00  0.00    +0.000 A 
ATOM     32  C   UNL     1       8.270   6.926  19.011  0.00  0.00    +0.000 A 
ATOM     33  C   UNL     1       7.862   7.722  17.951  0.00  0.00    +0.000 A 
ATOM     34  N   UNL     1       7.221   7.254  16.856  0.00  0.00    +0.000 NA
ENDBRANCH  26  29
ENDBRANCH  24  26
ENDBRANCH   5  24
TORSDOF 5
ENDMDL
MODEL 6
REMARK VINA RESULT:      -8.7      1.884      2.345
REMARK  Name = 
REMARK  7 active torsions:
REMARK  status: ('A' for Active; 'I' for Inactive)
REMARK    1  A    between atoms: C_1  and  C_2
REMARK    2  A    between atoms: C_5  and  N_6
REMARK    3  A    between atoms: N_6  and  S_7
REMARK    4  A    between atoms: S_7  and  C_10
REMARK    5  A    between atoms: C_17  and  C_18
REMARK    6  A    between atoms: C_21  and  C_22
REMARK    7  A    between atoms: N_29  and  C_30
REMARK                            x       y       z     vdW  Elec       q    Type
REMARK                         _______ _______ _______ _____ _____    ______ ____
ROOT
ATOM      1  C   UNL     1       0.849   4.344  20.064  0.00  0.00    +0.000 C 
ATOM      2  C   UNL     1       2.320   4.406  19.742  0.00  0.00    +0.000 A 
ATOM      3  C   UNL     1       3.024   3.184  19.728  0.00  0.00    +0.000 A 
ATOM      4  C   UNL     1       4.390   3.136  19.451  0.00  0.00    +0.000 A 
ATOM      5  C   UNL     1       5.073   4.312  19.181  0.00  0.00    +0.000 A 
ATOM      6  C   UNL     1       4.394   5.531  19.193  0.00  0.00    +0.000 A 
ATOM      7  C   UNL     1       3.010   5.613  19.471  0.00  0.00    +0.000 A 
ENDROOT
BRANCH   7   8
ATOM      8  C   UNL     1       2.345   6.940  19.476  0.00  0.00    +0.000 A 
ATOM      9  C   UNL     1       2.282   7.913  18.495  0.00  0.00    +0.000 A 
ATOM     10  C   UNL     1       1.486   9.033  18.863  0.00  0.00    +0.000 A 
ATOM     11  C   UNL     1       1.017   8.956  20.160  0.00  0.00    +0.000 A 
ATOM     12  S   UNL     1       1.474   7.467  20.868  0.00  0.00    +0.000 S 
BRANCH  11  13
ATOM     13  C   UNL     1       0.255   9.970  20.913  0.00  0.00    +0.000 A 
ATOM     14  C   UNL     1      -0.142   9.776  22.260  0.00  0.00    +0.000 A 
ATOM     15  C   UNL     1      -0.871  10.751  22.955  0.00  0.00    +0.000 A 
ATOM     16  C   UNL     1      -1.196  11.906  22.276  0.00  0.00    +0.000 A 
ATOM     17  C   UNL     1      -0.821  12.122  20.952  0.00  0.00    +0.000 A 
ATOM     18  C   UNL     1      -0.092  11.172  20.264  0.00  0.00    +0.000 A 
ATOM     19  C   UNL     1      -1.320  13.448  20.484  0.00  0.00    +0.000 C 
ATOM     20  N   UNL     1      -1.992  13.957  21.664  0.00  0.00    +0.000 N 
ATOM     21  C   UNL     1      -2.639  15.242  21.694  0.00  0.00    +0.000 C 
ATOM     22  C   UNL     1      -1.947  13.081  22.736  0.00  0.00    +0.000 C 
ATOM     23  O   UNL     1      -2.423  13.219  23.848  0.00  0.00    +0.000 OA
ENDBRANCH  11  13
ENDBRANCH   7   8
BRANCH   5  24
ATOM     24  N   UNL     1       6.462   4.295  18.886  0.00  0.00    +0.000 N 
ATOM     25  H   UNL     1       7.108   4.548  19.631  0.00  0.00    +0.000 HD
BRANCH  24  26
ATOM     26  S   UNL     1       6.995   4.878  17.385  0.00  0.00    +0.000 S 
ATOM     27  O   UNL     1       8.198   4.144  17.061  0.00  0.00    +0.000 OA
ATOM     28  O   UNL     1       5.868   4.889  16.475  0.00  0.00    +0.000 OA
BRANCH  26  29
ATOM     29  C   UNL     1       7.474   6.587  17.683  0.00  0.00    +0.000 A 
ATOM     30  C   UNL     1       8.390   6.896  18.679  0.00  0.00    +0.000 A 
ATOM     31  C   UNL     1       8.677   8.240  18.894  0.00  0.00    +0.000 A 
ATOM     32  C   UNL     1       8.034   9.210  18.126  0.00  0.00    +0.000 A 
ATOM     33  C   UNL     1       7.135   8.798  17.153  0.00  0.00    +0.000 A 
ATOM     34  N   UNL     1       6.843   7.503  16.893  0.00  0.00    +0.000 NA
ENDBRANCH  26  29
ENDBRANCH  24  26
ENDBRANCH   5  24
TORSDOF 5
ENDMDL
MODEL 7
REMARK VINA RESULT:      -8.6      2.046      2.396
REMARK  Name = 
REMARK  7 active torsions:
REMARK  status: ('A' for Active; 'I' for Inactive)
REMARK    1  A    between atoms: C_1  and  C_2
REMARK    2  A    between atoms: C_5  and  N_6
REMARK    3  A    between atoms: N_6  and  S_7
REMARK    4  A    between atoms: S_7  and  C_10
REMARK    5  A    between atoms: C_17  and  C_18
REMARK    6  A    between atoms: C_21  and  C_22
REMARK    7  A    between atoms: N_29  and  C_30
REMARK                            x       y       z     vdW  Elec       q    Type
REMARK                         _______ _______ _______ _____ _____    ______ ____
ROOT
ATOM      1  C   UNL     1       1.757   5.716  20.706  0.00  0.00    +0.000 C 
ATOM      2  C   UNL     1       2.778   5.822  19.603  0.00  0.00    +0.000 A 
ATOM      3  C   UNL     1       3.675   4.744  19.455  0.00  0.00    +0.000 A 
ATOM      4  C   UNL     1       4.663   4.750  18.471  0.00  0.00    +0.000 A 
ATOM      5  C   UNL     1       4.765   5.836  17.615  0.00  0.00    +0.000 A 
ATOM      6  C   UNL     1       3.888   6.913  17.746  0.00  0.00    +0.000 A 
ATOM      7  C   UNL     1       2.877   6.937  18.735  0.00  0.00    +0.000 A 
ENDROOT
BRANCH   7   8
ATOM      8  C   UNL     1       1.978   8.114  18.830  0.00  0.00    +0.000 A 
ATOM      9  C   UNL     1       1.560   9.001  17.854  0.00  0.00    +0.000 A 
ATOM     10  C   UNL     1       0.637   9.972  18.335  0.00  0.00    +0.000 A 
ATOM     11  C   UNL     1       0.422   9.882  19.696  0.00  0.00    +0.000 A 
ATOM     12  S   UNL     1       1.275   8.546  20.343  0.00  0.00    +0.000 S 
BRANCH  11  13
ATOM     13  C   UNL     1      -0.380  10.777  20.551  0.00  0.00    +0.000 A 
ATOM     14  C   UNL     1      -0.164  10.888  21.947  0.00  0.00    +0.000 A 
ATOM     15  C   UNL     1      -0.942  11.740  22.742  0.00  0.00    +0.000 A 
ATOM     16  C   UNL     1      -1.936  12.462  22.115  0.00  0.00    +0.000 A 
ATOM     17  C   UNL     1      -2.173  12.370  20.746  0.00  0.00    +0.000 A 
ATOM     18  C   UNL     1      -1.402  11.542  19.953  0.00  0.00    +0.000 A 
ATOM     19  C   UNL     1      -3.311  13.253  20.357  0.00  0.00    +0.000 C 
ATOM     20  N   UNL     1      -3.678  13.856  21.625  0.00  0.00    +0.000 N 
ATOM     21  C   UNL     1      -4.750  14.808  21.749  0.00  0.00    +0.000 C 
ATOM     22  C   UNL     1      -2.900  13.414  22.682  0.00  0.00    +0.000 C 
ATOM     23  O   UNL     1      -2.970  13.726  23.856  0.00  0.00    +0.000 OA
ENDBRANCH  11  13
ENDBRANCH   7   8
BRANCH   5  24
ATOM     24  N   UNL     1       5.754   5.867  16.596  0.00  0.00    +0.000 N 
ATOM     25  H   UNL     1       5.578   6.454  15.783  0.00  0.00    +0.000 HD
BRANCH  24  26
ATOM     26  S   UNL     1       6.535   4.427  16.157  0.00  0.00    +0.000 S 
ATOM     27  O   UNL     1       7.817   4.433  16.826  0.00  0.00    +0.000 OA
ATOM     28  O   UNL     1       5.608   3.331  16.347  0.00  0.00    +0.000 OA
BRANCH  26  29
ATOM     29  C   UNL     1       6.851   4.577  14.392  0.00  0.00    +0.000 A 
ATOM     30  C   UNL     1       6.180   3.766  13.487  0.00  0.00    +0.000 A 
ATOM     31  C   UNL     1       6.509   3.895  12.141  0.00  0.00    +0.000 A 
ATOM     32  C   UNL     1       7.493   4.806  11.760  0.00  0.00    +0.000 A 
ATOM     33  C   UNL     1       8.104   5.572  12.742  0.00  0.00    +0.000 A 
ATOM     34  N   UNL     1       7.801   5.499  14.058  0.00  0.00    +0.000 NA
ENDBRANCH  26  29
ENDBRANCH  24  26
ENDBRANCH   5  24
TORSDOF 5
ENDMDL
MODEL 8
REMARK VINA RESULT:      -8.6      1.758      2.028
REMARK  Name = 
REMARK  7 active torsions:
REMARK  status: ('A' for Active; 'I' for Inactive)
REMARK    1  A    between atoms: C_1  and  C_2
REMARK    2  A    between atoms: C_5  and  N_6
REMARK    3  A    between atoms: N_6  and  S_7
REMARK    4  A    between atoms: S_7  and  C_10
REMARK    5  A    between atoms: C_17  and  C_18
REMARK    6  A    between atoms: C_21  and  C_22
REMARK    7  A    between atoms: N_29  and  C_30
REMARK                            x       y       z     vdW  Elec       q    Type
REMARK                         _______ _______ _______ _____ _____    ______ ____
ROOT
ATOM      1  C   UNL     1       1.829   4.814  21.080  0.00  0.00    +0.000 C 
ATOM      2  C   UNL     1       2.895   4.758  20.016  0.00  0.00    +0.000 A 
ATOM      3  C   UNL     1       3.640   3.565  19.917  0.00  0.00    +0.000 A 
ATOM      4  C   UNL     1       4.655   3.417  18.972  0.00  0.00    +0.000 A 
ATOM      5  C   UNL     1       4.938   4.464  18.107  0.00  0.00    +0.000 A 
ATOM      6  C   UNL     1       4.214   5.654  18.191  0.00  0.00    +0.000 A 
ATOM      7  C   UNL     1       3.180   5.834  19.139  0.00  0.00    +0.000 A 
ENDROOT
BRANCH   7   8
ATOM      8  C   UNL     1       2.449   7.125  19.184  0.00  0.00    +0.000 A 
ATOM      9  C   UNL     1       2.335   8.122  18.232  0.00  0.00    +0.000 A 
ATOM     10  C   UNL     1       1.486   9.190  18.634  0.00  0.00    +0.000 A 
ATOM     11  C   UNL     1       1.026   9.052  19.929  0.00  0.00    +0.000 A 
ATOM     12  S   UNL     1       1.559   7.567  20.592  0.00  0.00    +0.000 S 
BRANCH  11  13
ATOM     13  C   UNL     1       0.217  10.005  20.713  0.00  0.00    +0.000 A 
ATOM     14  C   UNL     1       0.045   9.881  22.115  0.00  0.00    +0.000 A 
ATOM     15  C   UNL     1      -0.733  10.794  22.839  0.00  0.00    +0.000 A 
ATOM     16  C   UNL     1      -1.334  11.817  22.135  0.00  0.00    +0.000 A 
ATOM     17  C   UNL     1      -1.184  11.961  20.758  0.00  0.00    +0.000 A 
ATOM     18  C   UNL     1      -0.410  11.072  20.039  0.00  0.00    +0.000 A 
ATOM     19  C   UNL     1      -1.954  13.144  20.276  0.00  0.00    +0.000 C 
ATOM     20  N   UNL     1      -2.534  13.654  21.504  0.00  0.00    +0.000 N 
ATOM     21  C   UNL     1      -3.374  14.822  21.538  0.00  0.00    +0.000 C 
ATOM     22  C   UNL     1      -2.199  12.901  22.617  0.00  0.00    +0.000 C 
ATOM     23  O   UNL     1      -2.534  13.069  23.775  0.00  0.00    +0.000 OA
ENDBRANCH  11  13
ENDBRANCH   7   8
BRANCH   5  24
ATOM     24  N   UNL     1       5.958   4.341  17.127  0.00  0.00    +0.000 N 
ATOM     25  H   UNL     1       6.802   3.833  17.383  0.00  0.00    +0.000 HD
BRANCH  24  26
ATOM     26  S   UNL     1       6.316   5.670  16.136  0.00  0.00    +0.000 S 
ATOM     27  O   UNL     1       5.122   6.485  16.092  0.00  0.00    +0.000 OA
ATOM     28  O   UNL     1       7.578   6.233  16.568  0.00  0.00    +0.000 OA
BRANCH  26  29
ATOM     29  C   UNL     1       6.558   4.983  14.491  0.00  0.00    +0.000 A 
ATOM     30  C   UNL     1       5.712   3.992  14.012  0.00  0.00    +0.000 A 
ATOM     31  C   UNL     1       5.985   3.465  12.754  0.00  0.00    +0.000 A 
ATOM     32  C   UNL     1       7.087   3.933  12.039  0.00  0.00    +0.000 A 
ATOM     33  C   UNL     1       7.870   4.929  12.605  0.00  0.00    +0.000 A 
ATOM     34  N   UNL     1       7.630   5.487  13.813  0.00  0.00    +0.000 NA
ENDBRANCH  26  29
ENDBRANCH  24  26
ENDBRANCH   5  24
TORSDOF 5
ENDMDL
MODEL 9
REMARK VINA RESULT:      -8.6      2.086      2.675
REMARK  Name = 
REMARK  7 active torsions:
REMARK  status: ('A' for Active; 'I' for Inactive)
REMARK    1  A    between atoms: C_1  and  C_2
REMARK    2  A    between atoms: C_5  and  N_6
REMARK    3  A    between atoms: N_6  and  S_7
REMARK    4  A    between atoms: S_7  and  C_10
REMARK    5  A    between atoms: C_17  and  C_18
REMARK    6  A    between atoms: C_21  and  C_22
REMARK    7  A    between atoms: N_29  and  C_30
REMARK                            x       y       z     vdW  Elec       q    Type
REMARK                         _______ _______ _______ _____ _____    ______ ____
ROOT
ATOM      1  C   UNL     1       1.508   4.817  20.678  0.00  0.00    +0.000 C 
ATOM      2  C   UNL     1       2.388   5.246  19.533  0.00  0.00    +0.000 A 
ATOM      3  C   UNL     1       3.068   4.228  18.832  0.00  0.00    +0.000 A 
ATOM      4  C   UNL     1       3.914   4.522  17.763  0.00  0.00    +0.000 A 
ATOM      5  C   UNL     1       4.089   5.842  17.376  0.00  0.00    +0.000 A 
ATOM      6  C   UNL     1       3.427   6.863  18.058  0.00  0.00    +0.000 A 
ATOM      7  C   UNL     1       2.563   6.598  19.146  0.00  0.00    +0.000 A 
ENDROOT
BRANCH   7   8
ATOM      8  C   UNL     1       1.892   7.727  19.837  0.00  0.00    +0.000 A 
ATOM      9  C   UNL     1       1.421   7.828  21.133  0.00  0.00    +0.000 A 
ATOM     10  C   UNL     1       0.889   9.113  21.439  0.00  0.00    +0.000 A 
ATOM     11  C   UNL     1       0.871   9.961  20.349  0.00  0.00    +0.000 A 
ATOM     12  S   UNL     1       1.600   9.204  18.998  0.00  0.00    +0.000 S 
BRANCH  11  13
ATOM     13  C   UNL     1       0.303  11.319  20.264  0.00  0.00    +0.000 A 
ATOM     14  C   UNL     1       0.919  12.354  19.516  0.00  0.00    +0.000 A 
ATOM     15  C   UNL     1       0.365  13.640  19.453  0.00  0.00    +0.000 A 
ATOM     16  C   UNL     1      -0.801  13.864  20.154  0.00  0.00    +0.000 A 
ATOM     17  C   UNL     1      -1.427  12.867  20.898  0.00  0.00    +0.000 A 
ATOM     18  C   UNL     1      -0.893  11.594  20.956  0.00  0.00    +0.000 A 
ATOM     19  C   UNL     1      -2.655  13.404  21.552  0.00  0.00    +0.000 C 
ATOM     20  N   UNL     1      -2.669  14.781  21.096  0.00  0.00    +0.000 N 
ATOM     21  C   UNL     1      -3.699  15.713  21.473  0.00  0.00    +0.000 C 
ATOM     22  C   UNL     1      -1.595  15.094  20.279  0.00  0.00    +0.000 C 
ATOM     23  O   UNL     1      -1.328  16.158  19.753  0.00  0.00    +0.000 OA
ENDBRANCH  11  13
ENDBRANCH   7   8
BRANCH   5  24
ATOM     24  N   UNL     1       4.936   6.173  16.284  0.00  0.00    +0.000 N 
ATOM     25  H   UNL     1       4.518   6.219  15.357  0.00  0.00    +0.000 HD
BRANCH  24  26
ATOM     26  S   UNL     1       6.500   5.520  16.224  0.00  0.00    +0.000 S 
ATOM     27  O   UNL     1       7.416   6.625  16.403  0.00  0.00    +0.000 OA
ATOM     28  O   UNL     1       6.547   4.371  17.104  0.00  0.00    +0.000 OA
BRANCH  26  29
ATOM     29  C   UNL     1       6.701   4.926  14.537  0.00  0.00    +0.000 A 
ATOM     30  C   UNL     1       5.881   3.921  14.044  0.00  0.00    +0.000 A 
ATOM     31  C   UNL     1       6.122   3.470  12.750  0.00  0.00    +0.000 A 
ATOM     32  C   UNL     1       7.171   4.023  12.016  0.00  0.00    +0.000 A 
ATOM     33  C   UNL     1       7.933   5.025  12.599  0.00  0.00    +0.000 A 
ATOM     34  N   UNL     1       7.720   5.511  13.843  0.00  0.00    +0.000 NA
ENDBRANCH  26  29
ENDBRANCH  24  26
ENDBRANCH   5  24
TORSDOF 5
ENDMDL
