MODEL 1
REMARK VINA RESULT:      -8.9      0.000      0.000
REMARK  Name = 
REMARK  3 active torsions:
REMARK  status: ('A' for Active; 'I' for Inactive)
REMARK    1  A    between atoms: N_7  and  C_8
REMARK    2  A    between atoms: C_8  and  C_9
REMARK    3  A    between atoms: CB_16  and  CG_17
REMARK                            x       y       z     vdW  Elec       q    Type
REMARK                         _______ _______ _______ _____ _____    ______ ____
ROOT
ATOM      1  O   PHE A   2       5.085   3.501  19.688  0.00  0.00    +0.000 OA
ATOM      2  C   PHE A   2       5.579   4.365  18.975  0.00  0.00    +0.000 C 
ATOM      3  N   GLY A   1       6.680   5.036  19.424  0.00  0.00    +0.000 N 
ATOM      4  CA  GLY A   1       7.690   5.438  18.487  0.00  0.00    +0.000 C 
ATOM      5  C   GLY A   1       7.126   6.090  17.239  0.00  0.00    +0.000 C 
ATOM      6  O   GLY A   1       7.809   6.891  16.598  0.00  0.00    +0.000 OA
ATOM      7  N   PHE A   2       5.898   5.584  16.788  0.00  0.00    +0.000 N 
ATOM      8  CA  PHE A   2       5.070   4.785  17.605  0.00  0.00    +0.000 C 
ATOM      9  CB  PHE A   2       3.813   4.447  17.243  0.00  0.00    +0.000 C 
ATOM     10  H   GLY A   1       6.997   4.666  20.312  0.00  0.00    +0.000 HD
ENDROOT
BRANCH   9  11
ATOM     11  CG  PHE A   2       2.782   3.809  18.068  0.00  0.00    +0.000 A 
ATOM     12  CD1 PHE A   2       2.079   4.589  18.998  0.00  0.00    +0.000 A 
ATOM     13  CE1 PHE A   2       1.069   4.019  19.772  0.00  0.00    +0.000 A 
ATOM     14  CZ  PHE A   2       0.756   2.669  19.621  0.00  0.00    +0.000 A 
ATOM     15  CE2 PHE A   2       1.456   1.888  18.701  0.00  0.00    +0.000 A 
ATOM     16  CD2 PHE A   2       2.467   2.456  17.922  0.00  0.00    +0.000 A 
ENDBRANCH   9  11
BRANCH   7  17
ATOM     17  C   UNK A   0       5.497   5.985  15.433  0.00  0.00    +0.000 C 
BRANCH  17  18
ATOM     18  C   UNK A   0       5.961   5.076  14.313  0.00  0.00    +0.000 A 
ATOM     19  C   UNK A   0       5.142   4.062  13.793  0.00  0.00    +0.000 A 
ATOM     20  C   UNK A   0       5.555   3.305  12.699  0.00  0.00    +0.000 A 
ATOM     21  C   UNK A   0       6.783   3.556  12.097  0.00  0.00    +0.000 A 
ATOM     22  C   UNK A   0       7.609   4.559  12.597  0.00  0.00    +0.000 A 
ATOM     23  C   UNK A   0       7.200   5.318  13.698  0.00  0.00    +0.000 A 
ENDBRANCH  17  18
ENDBRANCH   7  17
TORSDOF 3
ENDMDL
MODEL 2
REMARK VINA RESULT:      -8.8      0.055      1.032
REMARK  Name = 
REMARK  3 active torsions:
REMARK  status: ('A' for Active; 'I' for Inactive)
REMARK    1  A    between atoms: N_7  and  C_8
REMARK    2  A    between atoms: C_8  and  C_9
REMARK    3  A    between atoms: CB_16  and  CG_17
REMARK                            x       y       z     vdW  Elec       q    Type
REMARK                         _______ _______ _______ _____ _____    ______ ____
ROOT
ATOM      1  O   PHE A   2       5.011   3.541  19.689  0.00  0.00    +0.000 OA
ATOM      2  C   PHE A   2       5.529   4.387  18.971  0.00  0.00    +0.000 C 
ATOM      3  N   GLY A   1       6.648   5.031  19.416  0.00  0.00    +0.000 N 
ATOM      4  CA  GLY A   1       7.668   5.399  18.477  0.00  0.00    +0.000 C 
ATOM      5  C   GLY A   1       7.122   6.059  17.224  0.00  0.00    +0.000 C 
ATOM      6  O   GLY A   1       7.828   6.837  16.580  0.00  0.00    +0.000 OA
ATOM      7  N   PHE A   2       5.882   5.584  16.776  0.00  0.00    +0.000 N 
ATOM      8  CA  PHE A   2       5.032   4.811  17.597  0.00  0.00    +0.000 C 
ATOM      9  CB  PHE A   2       3.767   4.505  17.238  0.00  0.00    +0.000 C 
ATOM     10  H   GLY A   1       6.954   4.657  20.306  0.00  0.00    +0.000 HD
ENDROOT
BRANCH   9  11
ATOM     11  CG  PHE A   2       2.718   3.901  18.065  0.00  0.00    +0.000 A 
ATOM     12  CD1 PHE A   2       2.426   2.540  17.903  0.00  0.00    +0.000 A 
ATOM     13  CE1 PHE A   2       1.457   1.929  18.698  0.00  0.00    +0.000 A 
ATOM     14  CZ  PHE A   2       0.777   2.674  19.660  0.00  0.00    +0.000 A 
ATOM     15  CE2 PHE A   2       1.060   4.031  19.822  0.00  0.00    +0.000 A 
ATOM     16  CD2 PHE A   2       2.031   4.646  19.027  0.00  0.00    +0.000 A 
ENDBRANCH   9  11
BRANCH   7  17
ATOM     17  C   UNK A   0       5.493   5.986  15.419  0.00  0.00    +0.000 C 
BRANCH  17  18
ATOM     18  C   UNK A   0       5.946   5.068  14.303  0.00  0.00    +0.000 A 
ATOM     19  C   UNK A   0       5.120   4.056  13.791  0.00  0.00    +0.000 A 
ATOM     20  C   UNK A   0       5.524   3.290  12.700  0.00  0.00    +0.000 A 
ATOM     21  C   UNK A   0       6.752   3.529  12.094  0.00  0.00    +0.000 A 
ATOM     22  C   UNK A   0       7.587   4.528  12.586  0.00  0.00    +0.000 A 
ATOM     23  C   UNK A   0       7.186   5.297  13.684  0.00  0.00    +0.000 A 
ENDBRANCH  17  18
ENDBRANCH   7  17
TORSDOF 3
ENDMDL
MODEL 3
REMARK VINA RESULT:      -8.4      0.114      1.034
REMARK  Name = 
REMARK  3 active torsions:
REMARK  status: ('A' for Active; 'I' for Inactive)
REMARK    1  A    between atoms: N_7  and  C_8
REMARK    2  A    between atoms: C_8  and  C_9
REMARK    3  A    between atoms: CB_16  and  CG_17
REMARK                            x       y       z     vdW  Elec       q    Type
REMARK                         _______ _______ _______ _____ _____    ______ ____
ROOT
ATOM      1  O   PHE A   2       5.070   3.336  19.587  0.00  0.00    +0.000 OA
ATOM      2  C   PHE A   2       5.568   4.221  18.902  0.00  0.00    +0.000 C 
ATOM      3  N   GLY A   1       6.698   4.842  19.352  0.00  0.00    +0.000 N 
ATOM      4  CA  GLY A   1       7.694   5.263  18.408  0.00  0.00    +0.000 C 
ATOM      5  C   GLY A   1       7.115   5.987  17.207  0.00  0.00    +0.000 C 
ATOM      6  O   GLY A   1       7.802   6.800  16.587  0.00  0.00    +0.000 OA
ATOM      7  N   PHE A   2       5.863   5.534  16.766  0.00  0.00    +0.000 N 
ATOM      8  CA  PHE A   2       5.036   4.717  17.567  0.00  0.00    +0.000 C 
ATOM      9  CB  PHE A   2       3.762   4.428  17.224  0.00  0.00    +0.000 C 
ATOM     10  H   GLY A   1       7.028   4.422  20.213  0.00  0.00    +0.000 HD
ENDROOT
BRANCH   9  11
ATOM     11  CG  PHE A   2       2.735   3.778  18.045  0.00  0.00    +0.000 A 
ATOM     12  CD1 PHE A   2       2.059   4.537  19.011  0.00  0.00    +0.000 A 
ATOM     13  CE1 PHE A   2       1.054   3.956  19.784  0.00  0.00    +0.000 A 
ATOM     14  CZ  PHE A   2       0.720   2.616  19.596  0.00  0.00    +0.000 A 
ATOM     15  CE2 PHE A   2       1.394   1.855  18.639  0.00  0.00    +0.000 A 
ATOM     16  CD2 PHE A   2       2.400   2.435  17.862  0.00  0.00    +0.000 A 
ENDBRANCH   9  11
BRANCH   7  17
ATOM     17  C   UNK A   0       5.439   6.008  15.444  0.00  0.00    +0.000 C 
BRANCH  17  18
ATOM     18  C   UNK A   0       5.904   5.178  14.265  0.00  0.00    +0.000 A 
ATOM     19  C   UNK A   0       7.185   5.327  13.711  0.00  0.00    +0.000 A 
ATOM     20  C   UNK A   0       7.622   4.485  12.691  0.00  0.00    +0.000 A 
ATOM     21  C   UNK A   0       6.796   3.473  12.217  0.00  0.00    +0.000 A 
ATOM     22  C   UNK A   0       5.522   3.307  12.753  0.00  0.00    +0.000 A 
ATOM     23  C   UNK A   0       5.078   4.154  13.774  0.00  0.00    +0.000 A 
ENDBRANCH  17  18
ENDBRANCH   7  17
TORSDOF 3
ENDMDL
MODEL 4
REMARK VINA RESULT:      -8.4      0.129      1.461
REMARK  Name = 
REMARK  3 active torsions:
REMARK  status: ('A' for Active; 'I' for Inactive)
REMARK    1  A    between atoms: N_7  and  C_8
REMARK    2  A    between atoms: C_8  and  C_9
REMARK    3  A    between atoms: CB_16  and  CG_17
REMARK                            x       y       z     vdW  Elec       q    Type
REMARK                         _______ _______ _______ _____ _____    ______ ____
ROOT
ATOM      1  O   PHE A   2       5.017   3.407  19.584  0.00  0.00    +0.000 OA
ATOM      2  C   PHE A   2       5.537   4.271  18.889  0.00  0.00    +0.000 C 
ATOM      3  N   GLY A   1       6.689   4.861  19.325  0.00  0.00    +0.000 N 
ATOM      4  CA  GLY A   1       7.690   5.243  18.371  0.00  0.00    +0.000 C 
ATOM      5  C   GLY A   1       7.124   5.976  17.169  0.00  0.00    +0.000 C 
ATOM      6  O   GLY A   1       7.832   6.763  16.537  0.00  0.00    +0.000 OA
ATOM      7  N   PHE A   2       5.857   5.558  16.740  0.00  0.00    +0.000 N 
ATOM      8  CA  PHE A   2       5.011   4.773  17.553  0.00  0.00    +0.000 C 
ATOM      9  CB  PHE A   2       3.726   4.520  17.221  0.00  0.00    +0.000 C 
ATOM     10  H   GLY A   1       7.011   4.438  20.187  0.00  0.00    +0.000 HD
ENDROOT
BRANCH   9  11
ATOM     11  CG  PHE A   2       2.686   3.908  18.055  0.00  0.00    +0.000 A 
ATOM     12  CD1 PHE A   2       2.372   2.555  17.863  0.00  0.00    +0.000 A 
ATOM     13  CE1 PHE A   2       1.411   1.937  18.663  0.00  0.00    +0.000 A 
ATOM     14  CZ  PHE A   2       0.761   2.666  19.657  0.00  0.00    +0.000 A 
ATOM     15  CE2 PHE A   2       1.066   4.014  19.848  0.00  0.00    +0.000 A 
ATOM     16  CD2 PHE A   2       2.029   4.636  19.049  0.00  0.00    +0.000 A 
ENDBRANCH   9  11
BRANCH   7  17
ATOM     17  C   UNK A   0       5.437   6.034  15.416  0.00  0.00    +0.000 C 
BRANCH  17  18
ATOM     18  C   UNK A   0       5.875   5.185  14.241  0.00  0.00    +0.000 A 
ATOM     19  C   UNK A   0       7.137   5.335  13.645  0.00  0.00    +0.000 A 
ATOM     20  C   UNK A   0       7.551   4.476  12.629  0.00  0.00    +0.000 A 
ATOM     21  C   UNK A   0       6.720   3.447  12.200  0.00  0.00    +0.000 A 
ATOM     22  C   UNK A   0       5.465   3.281  12.779  0.00  0.00    +0.000 A 
ATOM     23  C   UNK A   0       5.043   4.144  13.795  0.00  0.00    +0.000 A 
ENDBRANCH  17  18
ENDBRANCH   7  17
TORSDOF 3
ENDMDL
MODEL 5
REMARK VINA RESULT:      -7.5      1.085      6.032
REMARK  Name = 
REMARK  3 active torsions:
REMARK  status: ('A' for Active; 'I' for Inactive)
REMARK    1  A    between atoms: N_7  and  C_8
REMARK    2  A    between atoms: C_8  and  C_9
REMARK    3  A    between atoms: CB_16  and  CG_17
REMARK                            x       y       z     vdW  Elec       q    Type
REMARK                         _______ _______ _______ _____ _____    ______ ____
ROOT
ATOM      1  O   PHE A   2       8.071   4.702  15.831  0.00  0.00    +0.000 OA
ATOM      2  C   PHE A   2       7.244   4.711  16.733  0.00  0.00    +0.000 C 
ATOM      3  N   GLY A   1       7.654   4.421  18.003  0.00  0.00    +0.000 N 
ATOM      4  CA  GLY A   1       7.041   5.094  19.112  0.00  0.00    +0.000 C 
ATOM      5  C   GLY A   1       5.527   5.138  19.026  0.00  0.00    +0.000 C 
ATOM      6  O   GLY A   1       4.853   5.225  20.054  0.00  0.00    +0.000 OA
ATOM      7  N   PHE A   2       4.993   5.262  17.735  0.00  0.00    +0.000 N 
ATOM      8  CA  PHE A   2       5.761   5.013  16.578  0.00  0.00    +0.000 C 
ATOM      9  CB  PHE A   2       5.209   4.955  15.346  0.00  0.00    +0.000 C 
ATOM     10  H   GLY A   1       8.658   4.289  18.041  0.00  0.00    +0.000 HD
ENDROOT
BRANCH   9  11
ATOM     11  CG  PHE A   2       5.837   4.504  14.100  0.00  0.00    +0.000 A 
ATOM     12  CD1 PHE A   2       5.277   3.418  13.413  0.00  0.00    +0.000 A 
ATOM     13  CE1 PHE A   2       5.832   2.987  12.208  0.00  0.00    +0.000 A 
ATOM     14  CZ  PHE A   2       6.945   3.640  11.683  0.00  0.00    +0.000 A 
ATOM     15  CE2 PHE A   2       7.509   4.719  12.366  0.00  0.00    +0.000 A 
ATOM     16  CD2 PHE A   2       6.955   5.154  13.573  0.00  0.00    +0.000 A 
ENDBRANCH   9  11
BRANCH   7  17
ATOM     17  C   UNK A   0       3.569   5.612  17.661  0.00  0.00    +0.000 C 
BRANCH  17  18
ATOM     18  C   UNK A   0       2.601   4.536  18.110  0.00  0.00    +0.000 A 
ATOM     19  C   UNK A   0       2.619   3.245  17.561  0.00  0.00    +0.000 A 
ATOM     20  C   UNK A   0       1.784   2.248  18.061  0.00  0.00    +0.000 A 
ATOM     21  C   UNK A   0       0.929   2.517  19.123  0.00  0.00    +0.000 A 
ATOM     22  C   UNK A   0       0.897   3.792  19.682  0.00  0.00    +0.000 A 
ATOM     23  C   UNK A   0       1.730   4.797  19.181  0.00  0.00    +0.000 A 
ENDBRANCH  17  18
ENDBRANCH   7  17
TORSDOF 3
ENDMDL
MODEL 6
REMARK VINA RESULT:      -7.3      1.108      5.974
REMARK  Name = 
REMARK  3 active torsions:
REMARK  status: ('A' for Active; 'I' for Inactive)
REMARK    1  A    between atoms: N_7  and  C_8
REMARK    2  A    between atoms: C_8  and  C_9
REMARK    3  A    between atoms: CB_16  and  CG_17
REMARK                            x       y       z     vdW  Elec       q    Type
REMARK                         _______ _______ _______ _____ _____    ______ ____
ROOT
ATOM      1  O   PHE A   2       8.042   4.651  15.705  0.00  0.00    +0.000 OA
ATOM      2  C   PHE A   2       7.244   4.670  16.634  0.00  0.00    +0.000 C 
ATOM      3  N   GLY A   1       7.689   4.367  17.889  0.00  0.00    +0.000 N 
ATOM      4  CA  GLY A   1       7.125   5.046  19.020  0.00  0.00    +0.000 C 
ATOM      5  C   GLY A   1       5.610   5.118  18.983  0.00  0.00    +0.000 C 
ATOM      6  O   GLY A   1       4.971   5.213  20.032  0.00  0.00    +0.000 OA
ATOM      7  N   PHE A   2       5.037   5.259  17.711  0.00  0.00    +0.000 N 
ATOM      8  CA  PHE A   2       5.763   5.001  16.528  0.00  0.00    +0.000 C 
ATOM      9  CB  PHE A   2       5.171   4.959  15.314  0.00  0.00    +0.000 C 
ATOM     10  H   GLY A   1       8.691   4.217  17.894  0.00  0.00    +0.000 HD
ENDROOT
BRANCH   9  11
ATOM     11  CG  PHE A   2       5.750   4.503  14.047  0.00  0.00    +0.000 A 
ATOM     12  CD1 PHE A   2       6.865   5.177  13.529  0.00  0.00    +0.000 A 
ATOM     13  CE1 PHE A   2       7.458   4.746  12.343  0.00  0.00    +0.000 A 
ATOM     14  CZ  PHE A   2       6.941   3.641  11.669  0.00  0.00    +0.000 A 
ATOM     15  CE2 PHE A   2       5.829   2.970  12.178  0.00  0.00    +0.000 A 
ATOM     16  CD2 PHE A   2       5.233   3.398  13.367  0.00  0.00    +0.000 A 
ENDBRANCH   9  11
BRANCH   7  17
ATOM     17  C   UNK A   0       3.619   5.634  17.683  0.00  0.00    +0.000 C 
BRANCH  17  18
ATOM     18  C   UNK A   0       2.643   4.560  18.119  0.00  0.00    +0.000 A 
ATOM     19  C   UNK A   0       2.661   3.272  17.564  0.00  0.00    +0.000 A 
ATOM     20  C   UNK A   0       1.818   2.275  18.051  0.00  0.00    +0.000 A 
ATOM     21  C   UNK A   0       0.955   2.543  19.107  0.00  0.00    +0.000 A 
ATOM     22  C   UNK A   0       0.922   3.815  19.672  0.00  0.00    +0.000 A 
ATOM     23  C   UNK A   0       1.763   4.819  19.183  0.00  0.00    +0.000 A 
ENDBRANCH  17  18
ENDBRANCH   7  17
TORSDOF 3
ENDMDL
MODEL 7
REMARK VINA RESULT:      -7.2      1.080      6.056
REMARK  Name = 
REMARK  3 active torsions:
REMARK  status: ('A' for Active; 'I' for Inactive)
REMARK    1  A    between atoms: N_7  and  C_8
REMARK    2  A    between atoms: C_8  and  C_9
REMARK    3  A    between atoms: CB_16  and  CG_17
REMARK                            x       y       z     vdW  Elec       q    Type
REMARK                         _______ _______ _______ _____ _____    ______ ____
ROOT
ATOM      1  O   PHE A   2       8.089   4.740  15.795  0.00  0.00    +0.000 OA
ATOM      2  C   PHE A   2       7.274   4.726  16.709  0.00  0.00    +0.000 C 
ATOM      3  N   GLY A   1       7.710   4.447  17.973  0.00  0.00    +0.000 N 
ATOM      4  CA  GLY A   1       7.094   5.102  19.091  0.00  0.00    +0.000 C 
ATOM      5  C   GLY A   1       5.578   5.104  19.026  0.00  0.00    +0.000 C 
ATOM      6  O   GLY A   1       4.916   5.172  20.063  0.00  0.00    +0.000 OA
ATOM      7  N   PHE A   2       5.023   5.214  17.743  0.00  0.00    +0.000 N 
ATOM      8  CA  PHE A   2       5.782   4.987  16.575  0.00  0.00    +0.000 C 
ATOM      9  CB  PHE A   2       5.215   4.914  15.351  0.00  0.00    +0.000 C 
ATOM     10  H   GLY A   1       8.717   4.343  17.998  0.00  0.00    +0.000 HD
ENDROOT
BRANCH   9  11
ATOM     11  CG  PHE A   2       5.837   4.481  14.096  0.00  0.00    +0.000 A 
ATOM     12  CD1 PHE A   2       5.291   3.388  13.409  0.00  0.00    +0.000 A 
ATOM     13  CE1 PHE A   2       5.840   2.974  12.196  0.00  0.00    +0.000 A 
ATOM     14  CZ  PHE A   2       6.936   3.650  11.663  0.00  0.00    +0.000 A 
ATOM     15  CE2 PHE A   2       7.486   4.736  12.345  0.00  0.00    +0.000 A 
ATOM     16  CD2 PHE A   2       6.938   5.154  13.560  0.00  0.00    +0.000 A 
ENDBRANCH   9  11
BRANCH   7  17
ATOM     17  C   UNK A   0       3.589   5.524  17.688  0.00  0.00    +0.000 C 
BRANCH  17  18
ATOM     18  C   UNK A   0       2.664   4.463  18.248  0.00  0.00    +0.000 A 
ATOM     19  C   UNK A   0       1.745   4.745  19.272  0.00  0.00    +0.000 A 
ATOM     20  C   UNK A   0       0.839   3.777  19.701  0.00  0.00    +0.000 A 
ATOM     21  C   UNK A   0       0.825   2.520  19.108  0.00  0.00    +0.000 A 
ATOM     22  C   UNK A   0       1.728   2.221  18.091  0.00  0.00    +0.000 A 
ATOM     23  C   UNK A   0       2.642   3.188  17.661  0.00  0.00    +0.000 A 
ENDBRANCH  17  18
ENDBRANCH   7  17
TORSDOF 3
ENDMDL
MODEL 8
REMARK VINA RESULT:      -7.2      2.973      6.681
REMARK  Name = 
REMARK  3 active torsions:
REMARK  status: ('A' for Active; 'I' for Inactive)
REMARK    1  A    between atoms: N_7  and  C_8
REMARK    2  A    between atoms: C_8  and  C_9
REMARK    3  A    between atoms: CB_16  and  CG_17
REMARK                            x       y       z     vdW  Elec       q    Type
REMARK                         _______ _______ _______ _____ _____    ______ ____
ROOT
ATOM      1  O   PHE A   2       4.086   2.529  17.099  0.00  0.00    +0.000 OA
ATOM      2  C   PHE A   2       3.261   3.086  17.812  0.00  0.00    +0.000 C 
ATOM      3  N   GLY A   1       2.020   2.529  17.940  0.00  0.00    +0.000 N 
ATOM      4  CA  GLY A   1       1.333   2.622  19.196  0.00  0.00    +0.000 C 
ATOM      5  C   GLY A   1       1.370   4.013  19.799  0.00  0.00    +0.000 C 
ATOM      6  O   GLY A   1       0.476   4.376  20.567  0.00  0.00    +0.000 OA
ATOM      7  N   PHE A   2       2.545   4.744  19.577  0.00  0.00    +0.000 N 
ATOM      8  CA  PHE A   2       3.480   4.377  18.585  0.00  0.00    +0.000 C 
ATOM      9  CB  PHE A   2       4.518   5.173  18.245  0.00  0.00    +0.000 C 
ATOM     10  H   GLY A   1       1.965   1.645  17.448  0.00  0.00    +0.000 HD
ENDROOT
BRANCH   9  11
ATOM     11  CG  PHE A   2       5.432   5.022  17.108  0.00  0.00    +0.000 A 
ATOM     12  CD1 PHE A   2       4.991   5.395  15.831  0.00  0.00    +0.000 A 
ATOM     13  CE1 PHE A   2       5.849   5.295  14.735  0.00  0.00    +0.000 A 
ATOM     14  CZ  PHE A   2       7.148   4.823  14.911  0.00  0.00    +0.000 A 
ATOM     15  CE2 PHE A   2       7.589   4.446  16.180  0.00  0.00    +0.000 A 
ATOM     16  CD2 PHE A   2       6.734   4.546  17.279  0.00  0.00    +0.000 A 
ENDBRANCH   9  11
BRANCH   7  17
ATOM     17  C   UNK A   0       2.718   5.948  20.399  0.00  0.00    +0.000 C 
BRANCH  17  18
ATOM     18  C   UNK A   0       2.092   7.215  19.853  0.00  0.00    +0.000 A 
ATOM     19  C   UNK A   0       1.354   8.088  20.666  0.00  0.00    +0.000 A 
ATOM     20  C   UNK A   0       0.872   9.294  20.161  0.00  0.00    +0.000 A 
ATOM     21  C   UNK A   0       1.129   9.654  18.844  0.00  0.00    +0.000 A 
ATOM     22  C   UNK A   0       1.860   8.802  18.021  0.00  0.00    +0.000 A 
ATOM     23  C   UNK A   0       2.342   7.588  18.522  0.00  0.00    +0.000 A 
ENDBRANCH  17  18
ENDBRANCH   7  17
TORSDOF 3
ENDMDL
MODEL 9
REMARK VINA RESULT:      -7.2      2.996      6.687
REMARK  Name = 
REMARK  3 active torsions:
REMARK  status: ('A' for Active; 'I' for Inactive)
REMARK    1  A    between atoms: N_7  and  C_8
REMARK    2  A    between atoms: C_8  and  C_9
REMARK    3  A    between atoms: CB_16  and  CG_17
REMARK                            x       y       z     vdW  Elec       q    Type
REMARK                         _______ _______ _______ _____ _____    ______ ____
ROOT
ATOM      1  O   PHE A   2       4.097   2.609  17.125  0.00  0.00    +0.000 OA
ATOM      2  C   PHE A   2       3.268   3.163  17.836  0.00  0.00    +0.000 C 
ATOM      3  N   GLY A   1       2.037   2.588  17.978  0.00  0.00    +0.000 N 
ATOM      4  CA  GLY A   1       1.355   2.686  19.237  0.00  0.00    +0.000 C 
ATOM      5  C   GLY A   1       1.374   4.085  19.823  0.00  0.00    +0.000 C 
ATOM      6  O   GLY A   1       0.480   4.445  20.591  0.00  0.00    +0.000 OA
ATOM      7  N   PHE A   2       2.537   4.831  19.584  0.00  0.00    +0.000 N 
ATOM      8  CA  PHE A   2       3.472   4.466  18.592  0.00  0.00    +0.000 C 
ATOM      9  CB  PHE A   2       4.496   5.273  18.236  0.00  0.00    +0.000 C 
ATOM     10  H   GLY A   1       1.992   1.698  17.498  0.00  0.00    +0.000 HD
ENDROOT
BRANCH   9  11
ATOM     11  CG  PHE A   2       5.405   5.122  17.096  0.00  0.00    +0.000 A 
ATOM     12  CD1 PHE A   2       6.701   4.637  17.322  0.00  0.00    +0.000 A 
ATOM     13  CE1 PHE A   2       7.578   4.451  16.253  0.00  0.00    +0.000 A 
ATOM     14  CZ  PHE A   2       7.165   4.747  14.956  0.00  0.00    +0.000 A 
ATOM     15  CE2 PHE A   2       5.877   5.235  14.726  0.00  0.00    +0.000 A 
ATOM     16  CD2 PHE A   2       4.996   5.421  15.794  0.00  0.00    +0.000 A 
ENDBRANCH   9  11
BRANCH   7  17
ATOM     17  C   UNK A   0       2.696   6.048  20.390  0.00  0.00    +0.000 C 
BRANCH  17  18
ATOM     18  C   UNK A   0       2.067   7.303  19.821  0.00  0.00    +0.000 A 
ATOM     19  C   UNK A   0       1.348   8.202  20.623  0.00  0.00    +0.000 A 
ATOM     20  C   UNK A   0       0.863   9.396  20.094  0.00  0.00    +0.000 A 
ATOM     21  C   UNK A   0       1.099   9.719  18.763  0.00  0.00    +0.000 A 
ATOM     22  C   UNK A   0       1.811   8.841  17.952  0.00  0.00    +0.000 A 
ATOM     23  C   UNK A   0       2.295   7.639  18.477  0.00  0.00    +0.000 A 
ENDBRANCH  17  18
ENDBRANCH   7  17
TORSDOF 3
ENDMDL
