MODEL 1
REMARK VINA RESULT:      -8.3      0.000      0.000
REMARK  Name = 
REMARK  5 active torsions:
REMARK  status: ('A' for Active; 'I' for Inactive)
REMARK    1  A    between atoms: C_1  and  O_2
REMARK    2  A    between atoms: O_2  and  C_3
REMARK    3  A    between atoms: C_6  and  N_7
REMARK    4  A    between atoms: N_10  and  C_11
REMARK    5  A    between atoms: C_14  and  N_15
REMARK                            x       y       z     vdW  Elec       q    Type
REMARK                         _______ _______ _______ _____ _____    ______ ____
ROOT
ATOM      1  C   UNL     1       0.944   9.464  19.851  0.00  0.00    +0.000 A 
ATOM      2  C   UNL     1       1.003  10.499  18.915  0.00  0.00    +0.000 A 
ATOM      3  C   UNL     1       0.061  11.515  18.905  0.00  0.00    +0.000 A 
ATOM      4  C   UNL     1      -1.004  11.505  19.799  0.00  0.00    +0.000 A 
ATOM      5  C   UNL     1      -1.069  10.495  20.762  0.00  0.00    +0.000 A 
ATOM      6  C   UNL     1      -0.099   9.473  20.783  0.00  0.00    +0.000 A 
ENDROOT
BRANCH   4   7
ATOM      7  N   UNL     1      -2.129  12.231  19.422  0.00  0.00    +0.000 NA
ATOM      8  C   UNL     1      -3.078  11.673  18.743  0.00  0.00    +0.000 C 
ATOM      9  C   UNL     1      -3.118  10.482  17.781  0.00  0.00    +0.000 C 
ATOM     10  O   UNL     1      -2.249   9.666  17.574  0.00  0.00    +0.000 OA
ATOM     11  N   UNL     1      -4.383  10.555  17.218  0.00  0.00    +0.000 N 
ATOM     12  C   UNL     1      -5.208  11.386  17.977  0.00  0.00    +0.000 A 
ATOM     13  C   UNL     1      -6.583  11.432  18.020  0.00  0.00    +0.000 A 
ATOM     14  C   UNL     1      -7.168  12.185  19.055  0.00  0.00    +0.000 A 
ATOM     15  C   UNL     1      -6.377  12.903  19.978  0.00  0.00    +0.000 A 
ATOM     16 CL   UNL     1      -7.121  13.702  21.308  0.00  0.00    +0.000 Cl
ATOM     17  C   UNL     1      -4.993  12.904  19.884  0.00  0.00    +0.000 A 
ATOM     18  C   UNL     1      -4.456  12.117  18.880  0.00  0.00    +0.000 A 
ATOM     19  H   UNL     1      -4.654  10.029  16.399  0.00  0.00    +0.000 HD
ENDBRANCH   4   7
BRANCH   1  23
ATOM     20  N   UNL     1       3.194   6.734  18.934  0.00  0.00    +0.000 N 
ATOM     21  C   UNL     1       2.322   7.774  18.701  0.00  0.00    +0.000 C 
ATOM     22  O   UNL     1       1.956   8.100  17.574  0.00  0.00    +0.000 OA
ATOM     23  N   UNL     1       1.883   8.404  19.855  0.00  0.00    +0.000 N 
ATOM     24  H   UNL     1       3.173   6.305  19.839  0.00  0.00    +0.000 HD
ATOM     25  H   UNL     1       2.409   8.248  20.700  0.00  0.00    +0.000 HD
BRANCH  20  29
ATOM     26  C   UNL     1       5.230   4.476  15.987  0.00  0.00    +0.000 A 
ATOM     27  C   UNL     1       4.218   3.889  16.731  0.00  0.00    +0.000 A 
ATOM     28  C   UNL     1       3.493   4.641  17.650  0.00  0.00    +0.000 A 
ATOM     29  C   UNL     1       3.806   5.993  17.889  0.00  0.00    +0.000 A 
ATOM     30  C   UNL     1       4.797   6.589  17.121  0.00  0.00    +0.000 A 
ATOM     31  C   UNL     1       5.505   5.835  16.162  0.00  0.00    +0.000 A 
BRANCH  26  33
ATOM     32  C   UNL     1       6.309   4.135  13.917  0.00  0.00    +0.000 C 
ATOM     33  O   UNL     1       5.899   3.614  15.170  0.00  0.00    +0.000 OA
ENDBRANCH  26  33
ENDBRANCH  20  29
ENDBRANCH   1  23
TORSDOF 4
ENDMDL
MODEL 2
REMARK VINA RESULT:      -8.2      0.944      1.250
REMARK  Name = 
REMARK  5 active torsions:
REMARK  status: ('A' for Active; 'I' for Inactive)
REMARK    1  A    between atoms: C_1  and  O_2
REMARK    2  A    between atoms: O_2  and  C_3
REMARK    3  A    between atoms: C_6  and  N_7
REMARK    4  A    between atoms: N_10  and  C_11
REMARK    5  A    between atoms: C_14  and  N_15
REMARK                            x       y       z     vdW  Elec       q    Type
REMARK                         _______ _______ _______ _____ _____    ______ ____
ROOT
ATOM      1  C   UNL     1       1.108   8.862  20.619  0.00  0.00    +0.000 A 
ATOM      2  C   UNL     1       1.389   9.942  19.780  0.00  0.00    +0.000 A 
ATOM      3  C   UNL     1       0.547  11.039  19.711  0.00  0.00    +0.000 A 
ATOM      4  C   UNL     1      -0.636  11.074  20.441  0.00  0.00    +0.000 A 
ATOM      5  C   UNL     1      -0.925  10.018  21.309  0.00  0.00    +0.000 A 
ATOM      6  C   UNL     1      -0.057   8.911  21.393  0.00  0.00    +0.000 A 
ENDROOT
BRANCH   4   7
ATOM      7  N   UNL     1      -1.628  11.922  19.963  0.00  0.00    +0.000 NA
ATOM      8  C   UNL     1      -2.405  11.551  18.997  0.00  0.00    +0.000 C 
ATOM      9  C   UNL     1      -2.243  10.553  17.846  0.00  0.00    +0.000 C 
ATOM     10  O   UNL     1      -1.365   9.735  17.693  0.00  0.00    +0.000 OA
ATOM     11  N   UNL     1      -3.341  10.801  17.037  0.00  0.00    +0.000 N 
ATOM     12  C   UNL     1      -4.304  11.535  17.732  0.00  0.00    +0.000 A 
ATOM     13  C   UNL     1      -5.650  11.656  17.473  0.00  0.00    +0.000 A 
ATOM     14  C   UNL     1      -6.445  12.249  18.472  0.00  0.00    +0.000 A 
ATOM     15  C   UNL     1      -5.877  12.744  19.665  0.00  0.00    +0.000 A 
ATOM     16 CL   UNL     1      -6.894  13.340  20.919  0.00  0.00    +0.000 Cl
ATOM     17  C   UNL     1      -4.508  12.677  19.886  0.00  0.00    +0.000 A 
ATOM     18  C   UNL     1      -3.768  12.048  18.900  0.00  0.00    +0.000 A 
ATOM     19  H   UNL     1      -3.425  10.447  16.095  0.00  0.00    +0.000 HD
ENDBRANCH   4   7
BRANCH   1  23
ATOM     20  N   UNL     1       3.230   5.993  19.833  0.00  0.00    +0.000 N 
ATOM     21  C   UNL     1       2.490   7.120  19.556  0.00  0.00    +0.000 C 
ATOM     22  O   UNL     1       2.316   7.542  18.414  0.00  0.00    +0.000 OA
ATOM     23  N   UNL     1       1.945   7.722  20.679  0.00  0.00    +0.000 N 
ATOM     24  H   UNL     1       3.045   5.517  20.695  0.00  0.00    +0.000 HD
ATOM     25  H   UNL     1       2.330   7.471  21.576  0.00  0.00    +0.000 HD
BRANCH  20  29
ATOM     26  C   UNL     1       5.188   3.977  16.666  0.00  0.00    +0.000 A 
ATOM     27  C   UNL     1       5.888   4.885  17.446  0.00  0.00    +0.000 A 
ATOM     28  C   UNL     1       5.275   5.498  18.534  0.00  0.00    +0.000 A 
ATOM     29  C   UNL     1       3.921   5.259  18.834  0.00  0.00    +0.000 A 
ATOM     30  C   UNL     1       3.229   4.325  18.073  0.00  0.00    +0.000 A 
ATOM     31  C   UNL     1       3.864   3.676  16.993  0.00  0.00    +0.000 A 
BRANCH  26  33
ATOM     32  C   UNL     1       5.818   4.274  14.412  0.00  0.00    +0.000 C 
ATOM     33  O   UNL     1       5.887   3.499  15.597  0.00  0.00    +0.000 OA
ENDBRANCH  26  33
ENDBRANCH  20  29
ENDBRANCH   1  23
TORSDOF 4
ENDMDL
MODEL 3
REMARK VINA RESULT:      -8.1      2.477      3.278
REMARK  Name = 
REMARK  5 active torsions:
REMARK  status: ('A' for Active; 'I' for Inactive)
REMARK    1  A    between atoms: C_1  and  O_2
REMARK    2  A    between atoms: O_2  and  C_3
REMARK    3  A    between atoms: C_6  and  N_7
REMARK    4  A    between atoms: N_10  and  C_11
REMARK    5  A    between atoms: C_14  and  N_15
REMARK                            x       y       z     vdW  Elec       q    Type
REMARK                         _______ _______ _______ _____ _____    ______ ____
ROOT
ATOM      1  C   UNL     1       1.008   8.601  21.025  0.00  0.00    +0.000 A 
ATOM      2  C   UNL     1       0.156   8.910  22.088  0.00  0.00    +0.000 A 
ATOM      3  C   UNL     1      -0.548  10.102  22.122  0.00  0.00    +0.000 A 
ATOM      4  C   UNL     1      -0.386  11.052  21.119  0.00  0.00    +0.000 A 
ATOM      5  C   UNL     1       0.440  10.753  20.032  0.00  0.00    +0.000 A 
ATOM      6  C   UNL     1       1.139   9.532  19.989  0.00  0.00    +0.000 A 
ENDROOT
BRANCH   4   7
ATOM      7  N   UNL     1      -0.708  12.362  21.456  0.00  0.00    +0.000 NA
ATOM      8  C   UNL     1      -1.853  12.866  21.127  0.00  0.00    +0.000 C 
ATOM      9  C   UNL     1      -2.848  12.562  20.002  0.00  0.00    +0.000 C 
ATOM     10  O   UNL     1      -2.844  11.618  19.245  0.00  0.00    +0.000 OA
ATOM     11  N   UNL     1      -3.753  13.610  20.070  0.00  0.00    +0.000 N 
ATOM     12  C   UNL     1      -3.641  14.273  21.292  0.00  0.00    +0.000 A 
ATOM     13  C   UNL     1      -4.562  15.078  21.925  0.00  0.00    +0.000 A 
ATOM     14  C   UNL     1      -4.301  15.419  23.266  0.00  0.00    +0.000 A 
ATOM     15  C   UNL     1      -3.122  14.996  23.915  0.00  0.00    +0.000 A 
ATOM     16 CL   UNL     1      -2.900  15.319  25.591  0.00  0.00    +0.000 Cl
ATOM     17  C   UNL     1      -2.168  14.242  23.246  0.00  0.00    +0.000 A 
ATOM     18  C   UNL     1      -2.482  13.891  21.944  0.00  0.00    +0.000 A 
ATOM     19  H   UNL     1      -4.421  13.811  19.339  0.00  0.00    +0.000 HD
ENDBRANCH   4   7
BRANCH   1  23
ATOM     20  N   UNL     1       3.016   5.717  20.022  0.00  0.00    +0.000 N 
ATOM     21  C   UNL     1       2.392   6.932  19.852  0.00  0.00    +0.000 C 
ATOM     22  O   UNL     1       2.388   7.538  18.782  0.00  0.00    +0.000 OA
ATOM     23  N   UNL     1       1.755   7.398  20.991  0.00  0.00    +0.000 N 
ATOM     24  H   UNL     1       2.696   5.132  20.769  0.00  0.00    +0.000 HD
ATOM     25  H   UNL     1       2.010   6.980  21.872  0.00  0.00    +0.000 HD
BRANCH  20  29
ATOM     26  C   UNL     1       5.200   4.047  16.801  0.00  0.00    +0.000 A 
ATOM     27  C   UNL     1       5.853   4.808  17.759  0.00  0.00    +0.000 A 
ATOM     28  C   UNL     1       5.159   5.300  18.860  0.00  0.00    +0.000 A 
ATOM     29  C   UNL     1       3.774   5.090  18.999  0.00  0.00    +0.000 A 
ATOM     30  C   UNL     1       3.127   4.300  18.058  0.00  0.00    +0.000 A 
ATOM     31  C   UNL     1       3.840   3.770  16.962  0.00  0.00    +0.000 A 
BRANCH  26  33
ATOM     32  C   UNL     1       6.949   4.631  15.331  0.00  0.00    +0.000 C 
ATOM     33  O   UNL     1       5.981   3.681  15.746  0.00  0.00    +0.000 OA
ENDBRANCH  26  33
ENDBRANCH  20  29
ENDBRANCH   1  23
TORSDOF 4
ENDMDL
MODEL 4
REMARK VINA RESULT:      -8.0      1.911      2.685
REMARK  Name = 
REMARK  5 active torsions:
REMARK  status: ('A' for Active; 'I' for Inactive)
REMARK    1  A    between atoms: C_1  and  O_2
REMARK    2  A    between atoms: O_2  and  C_3
REMARK    3  A    between atoms: C_6  and  N_7
REMARK    4  A    between atoms: N_10  and  C_11
REMARK    5  A    between atoms: C_14  and  N_15
REMARK                            x       y       z     vdW  Elec       q    Type
REMARK                         _______ _______ _______ _____ _____    ______ ____
ROOT
ATOM      1  C   UNL     1       1.734   7.902  20.223  0.00  0.00    +0.000 A 
ATOM      2  C   UNL     1       0.787   7.875  21.250  0.00  0.00    +0.000 A 
ATOM      3  C   UNL     1      -0.131   8.899  21.410  0.00  0.00    +0.000 A 
ATOM      4  C   UNL     1      -0.103  10.015  20.580  0.00  0.00    +0.000 A 
ATOM      5  C   UNL     1       0.816  10.051  19.528  0.00  0.00    +0.000 A 
ATOM      6  C   UNL     1       1.736   8.999  19.355  0.00  0.00    +0.000 A 
ENDROOT
BRANCH   4   7
ATOM      7  N   UNL     1      -0.683  11.172  21.086  0.00  0.00    +0.000 NA
ATOM      8  C   UNL     1      -1.740  11.677  20.535  0.00  0.00    +0.000 C 
ATOM      9  C   UNL     1      -2.312  11.615  19.116  0.00  0.00    +0.000 C 
ATOM     10  O   UNL     1      -1.960  10.901  18.204  0.00  0.00    +0.000 OA
ATOM     11  N   UNL     1      -3.331  12.556  19.130  0.00  0.00    +0.000 N 
ATOM     12  C   UNL     1      -3.671  12.887  20.442  0.00  0.00    +0.000 A 
ATOM     13  C   UNL     1      -4.836  13.446  20.917  0.00  0.00    +0.000 A 
ATOM     14  C   UNL     1      -5.027  13.444  22.312  0.00  0.00    +0.000 A 
ATOM     15  C   UNL     1      -4.043  12.937  23.186  0.00  0.00    +0.000 A 
ATOM     16 CL   UNL     1      -4.366  12.828  24.873  0.00  0.00    +0.000 Cl
ATOM     17  C   UNL     1      -2.843  12.438  22.700  0.00  0.00    +0.000 A 
ATOM     18  C   UNL     1      -2.713  12.417  21.322  0.00  0.00    +0.000 A 
ATOM     19  H   UNL     1      -3.777  12.900  18.291  0.00  0.00    +0.000 HD
ENDBRANCH   4   7
BRANCH   1  23
ATOM     20  N   UNL     1       4.178   5.523  18.910  0.00  0.00    +0.000 N 
ATOM     21  C   UNL     1       3.316   6.596  18.857  0.00  0.00    +0.000 C 
ATOM     22  O   UNL     1       3.108   7.236  17.828  0.00  0.00    +0.000 OA
ATOM     23  N   UNL     1       2.695   6.875  20.064  0.00  0.00    +0.000 N 
ATOM     24  H   UNL     1       4.039   4.854  19.642  0.00  0.00    +0.000 HD
ATOM     25  H   UNL     1       3.097   6.477  20.898  0.00  0.00    +0.000 HD
BRANCH  20  29
ATOM     26  C   UNL     1       6.328   4.408  15.437  0.00  0.00    +0.000 A 
ATOM     27  C   UNL     1       6.756   5.484  16.200  0.00  0.00    +0.000 A 
ATOM     28  C   UNL     1       6.100   5.814  17.382  0.00  0.00    +0.000 A 
ATOM     29  C   UNL     1       4.958   5.106  17.801  0.00  0.00    +0.000 A 
ATOM     30  C   UNL     1       4.549   4.008  17.054  0.00  0.00    +0.000 A 
ATOM     31  C   UNL     1       5.238   3.652  15.876  0.00  0.00    +0.000 A 
BRANCH  26  33
ATOM     32  C   UNL     1       6.258   3.804  13.158  0.00  0.00    +0.000 C 
ATOM     33  O   UNL     1       7.019   4.234  14.275  0.00  0.00    +0.000 OA
ENDBRANCH  26  33
ENDBRANCH  20  29
ENDBRANCH   1  23
TORSDOF 4
ENDMDL
MODEL 5
REMARK VINA RESULT:      -7.9      2.567      3.217
REMARK  Name = 
REMARK  5 active torsions:
REMARK  status: ('A' for Active; 'I' for Inactive)
REMARK    1  A    between atoms: C_1  and  O_2
REMARK    2  A    between atoms: O_2  and  C_3
REMARK    3  A    between atoms: C_6  and  N_7
REMARK    4  A    between atoms: N_10  and  C_11
REMARK    5  A    between atoms: C_14  and  N_15
REMARK                            x       y       z     vdW  Elec       q    Type
REMARK                         _______ _______ _______ _____ _____    ______ ____
ROOT
ATOM      1  C   UNL     1       0.222  10.835  21.999  0.00  0.00    +0.000 A 
ATOM      2  C   UNL     1       0.391  12.000  21.247  0.00  0.00    +0.000 A 
ATOM      3  C   UNL     1      -0.517  13.043  21.320  0.00  0.00    +0.000 A 
ATOM      4  C   UNL     1      -1.657  12.938  22.110  0.00  0.00    +0.000 A 
ATOM      5  C   UNL     1      -1.834  11.794  22.893  0.00  0.00    +0.000 A 
ATOM      6  C   UNL     1      -0.898  10.743  22.832  0.00  0.00    +0.000 A 
ENDROOT
BRANCH   4   7
ATOM      7  N   UNL     1      -2.724  13.759  21.761  0.00  0.00    +0.000 NA
ATOM      8  C   UNL     1      -3.579  13.386  20.865  0.00  0.00    +0.000 C 
ATOM      9  C   UNL     1      -3.495  12.430  19.670  0.00  0.00    +0.000 C 
ATOM     10  O   UNL     1      -2.607  11.653  19.403  0.00  0.00    +0.000 OA
ATOM     11  N   UNL     1      -4.678  12.657  18.983  0.00  0.00    +0.000 N 
ATOM     12  C   UNL     1      -5.593  13.329  19.794  0.00  0.00    +0.000 A 
ATOM     13  C   UNL     1      -6.962  13.404  19.673  0.00  0.00    +0.000 A 
ATOM     14  C   UNL     1      -7.675  13.934  20.766  0.00  0.00    +0.000 A 
ATOM     15  C   UNL     1      -7.008  14.415  21.913  0.00  0.00    +0.000 A 
ATOM     16 CL   UNL     1      -7.916  14.932  23.280  0.00  0.00    +0.000 Cl
ATOM     17  C   UNL     1      -5.623  14.398  21.995  0.00  0.00    +0.000 A 
ATOM     18  C   UNL     1      -4.963  13.829  20.920  0.00  0.00    +0.000 A 
ATOM     19  H   UNL     1      -4.842  12.327  18.042  0.00  0.00    +0.000 HD
ENDBRANCH   4   7
BRANCH   1  23
ATOM     20  N   UNL     1       1.961   7.747  21.108  0.00  0.00    +0.000 N 
ATOM     21  C   UNL     1       1.006   8.731  20.982  0.00  0.00    +0.000 C 
ATOM     22  O   UNL     1       0.118   8.697  20.132  0.00  0.00    +0.000 OA
ATOM     23  N   UNL     1       1.128   9.751  21.913  0.00  0.00    +0.000 N 
ATOM     24  H   UNL     1       2.412   7.650  21.996  0.00  0.00    +0.000 HD
ATOM     25  H   UNL     1       2.006   9.834  22.401  0.00  0.00    +0.000 HD
BRANCH  20  29
ATOM     26  C   UNL     1       1.967   4.491  18.401  0.00  0.00    +0.000 A 
ATOM     27  C   UNL     1       2.447   5.728  17.997  0.00  0.00    +0.000 A 
ATOM     28  C   UNL     1       2.517   6.784  18.899  0.00  0.00    +0.000 A 
ATOM     29  C   UNL     1       2.052   6.644  20.220  0.00  0.00    +0.000 A 
ATOM     30  C   UNL     1       1.603   5.397  20.634  0.00  0.00    +0.000 A 
ATOM     31  C   UNL     1       1.567   4.316  19.728  0.00  0.00    +0.000 A 
BRANCH  26  33
ATOM     32  C   UNL     1       2.485   2.305  17.681  0.00  0.00    +0.000 C 
ATOM     33  O   UNL     1       1.893   3.564  17.405  0.00  0.00    +0.000 OA
ENDBRANCH  26  33
ENDBRANCH  20  29
ENDBRANCH   1  23
TORSDOF 4
ENDMDL
MODEL 6
REMARK VINA RESULT:      -7.9      2.735      3.291
REMARK  Name = 
REMARK  5 active torsions:
REMARK  status: ('A' for Active; 'I' for Inactive)
REMARK    1  A    between atoms: C_1  and  O_2
REMARK    2  A    between atoms: O_2  and  C_3
REMARK    3  A    between atoms: C_6  and  N_7
REMARK    4  A    between atoms: N_10  and  C_11
REMARK    5  A    between atoms: C_14  and  N_15
REMARK                            x       y       z     vdW  Elec       q    Type
REMARK                         _______ _______ _______ _____ _____    ______ ____
ROOT
ATOM      1  C   UNL     1       0.494  10.488  22.028  0.00  0.00    +0.000 A 
ATOM      2  C   UNL     1       0.602  11.773  21.490  0.00  0.00    +0.000 A 
ATOM      3  C   UNL     1      -0.324  12.758  21.790  0.00  0.00    +0.000 A 
ATOM      4  C   UNL     1      -1.421  12.481  22.598  0.00  0.00    +0.000 A 
ATOM      5  C   UNL     1      -1.535  11.211  23.170  0.00  0.00    +0.000 A 
ATOM      6  C   UNL     1      -0.582  10.215  22.880  0.00  0.00    +0.000 A 
ENDROOT
BRANCH   4   7
ATOM      7  N   UNL     1      -2.521  13.319  22.450  0.00  0.00    +0.000 NA
ATOM      8  C   UNL     1      -3.378  13.122  21.502  0.00  0.00    +0.000 C 
ATOM      9  C   UNL     1      -3.284  12.457  20.125  0.00  0.00    +0.000 C 
ATOM     10  O   UNL     1      -2.375  11.792  19.683  0.00  0.00    +0.000 OA
ATOM     11  N   UNL     1      -4.486  12.787  19.516  0.00  0.00    +0.000 N 
ATOM     12  C   UNL     1      -5.408  13.230  20.465  0.00  0.00    +0.000 A 
ATOM     13  C   UNL     1      -6.781  13.279  20.377  0.00  0.00    +0.000 A 
ATOM     14  C   UNL     1      -7.492  13.529  21.567  0.00  0.00    +0.000 A 
ATOM     15  C   UNL     1      -6.821  13.768  22.786  0.00  0.00    +0.000 A 
ATOM     16 CL   UNL     1      -7.722  13.937  24.242  0.00  0.00    +0.000 Cl
ATOM     17  C   UNL     1      -5.435  13.784  22.848  0.00  0.00    +0.000 A 
ATOM     18  C   UNL     1      -4.775  13.491  21.668  0.00  0.00    +0.000 A 
ATOM     19  H   UNL     1      -4.655  12.668  18.528  0.00  0.00    +0.000 HD
ENDBRANCH   4   7
BRANCH   1  23
ATOM     20  N   UNL     1       2.112   7.440  20.824  0.00  0.00    +0.000 N 
ATOM     21  C   UNL     1       1.078   8.337  20.974  0.00  0.00    +0.000 C 
ATOM     22  O   UNL     1      -0.045   8.147  20.512  0.00  0.00    +0.000 OA
ATOM     23  N   UNL     1       1.417   9.463  21.708  0.00  0.00    +0.000 N 
ATOM     24  H   UNL     1       2.857   7.475  21.492  0.00  0.00    +0.000 HD
ATOM     25  H   UNL     1       2.397   9.661  21.833  0.00  0.00    +0.000 HD
BRANCH  20  29
ATOM     26  C   UNL     1       2.026   3.840  18.596  0.00  0.00    +0.000 A 
ATOM     27  C   UNL     1       1.541   3.862  19.896  0.00  0.00    +0.000 A 
ATOM     28  C   UNL     1       1.497   5.054  20.611  0.00  0.00    +0.000 A 
ATOM     29  C   UNL     1       1.995   6.250  20.060  0.00  0.00    +0.000 A 
ATOM     30  C   UNL     1       2.449   6.236  18.747  0.00  0.00    +0.000 A 
ATOM     31  C   UNL     1       2.457   5.032  18.010  0.00  0.00    +0.000 A 
BRANCH  26  33
ATOM     32  C   UNL     1       3.165   1.782  18.419  0.00  0.00    +0.000 C 
ATOM     33  O   UNL     1       2.071   2.599  18.035  0.00  0.00    +0.000 OA
ENDBRANCH  26  33
ENDBRANCH  20  29
ENDBRANCH   1  23
TORSDOF 4
ENDMDL
MODEL 7
REMARK VINA RESULT:      -7.9      1.643      2.347
REMARK  Name = 
REMARK  5 active torsions:
REMARK  status: ('A' for Active; 'I' for Inactive)
REMARK    1  A    between atoms: C_1  and  O_2
REMARK    2  A    between atoms: O_2  and  C_3
REMARK    3  A    between atoms: C_6  and  N_7
REMARK    4  A    between atoms: N_10  and  C_11
REMARK    5  A    between atoms: C_14  and  N_15
REMARK                            x       y       z     vdW  Elec       q    Type
REMARK                         _______ _______ _______ _____ _____    ______ ____
ROOT
ATOM      1  C   UNL     1       1.082   8.715  20.364  0.00  0.00    +0.000 A 
ATOM      2  C   UNL     1       0.117   8.915  21.354  0.00  0.00    +0.000 A 
ATOM      3  C   UNL     1      -0.795   9.954  21.272  0.00  0.00    +0.000 A 
ATOM      4  C   UNL     1      -0.743  10.863  20.221  0.00  0.00    +0.000 A 
ATOM      5  C   UNL     1       0.194  10.668  19.204  0.00  0.00    +0.000 A 
ATOM      6  C   UNL     1       1.108   9.598  19.279  0.00  0.00    +0.000 A 
ENDROOT
BRANCH   4   7
ATOM      7  N   UNL     1      -1.323  12.105  20.454  0.00  0.00    +0.000 NA
ATOM      8  C   UNL     1      -2.535  12.350  20.073  0.00  0.00    +0.000 C 
ATOM      9  C   UNL     1      -3.420  11.778  18.961  0.00  0.00    +0.000 C 
ATOM     10  O   UNL     1      -3.212  10.802  18.276  0.00  0.00    +0.000 OA
ATOM     11  N   UNL     1      -4.513  12.631  18.937  0.00  0.00    +0.000 N 
ATOM     12  C   UNL     1      -4.566  13.388  20.108  0.00  0.00    +0.000 A 
ATOM     13  C   UNL     1      -5.643  14.040  20.666  0.00  0.00    +0.000 A 
ATOM     14  C   UNL     1      -5.491  14.520  21.981  0.00  0.00    +0.000 A 
ATOM     15  C   UNL     1      -4.271  14.382  22.676  0.00  0.00    +0.000 A 
ATOM     16 CL   UNL     1      -4.164  14.860  24.326  0.00  0.00    +0.000 Cl
ATOM     17  C   UNL     1      -3.171  13.784  22.078  0.00  0.00    +0.000 A 
ATOM     18  C   UNL     1      -3.374  13.288  20.802  0.00  0.00    +0.000 A 
ATOM     19  H   UNL     1      -5.186  12.645  18.184  0.00  0.00    +0.000 HD
ENDBRANCH   4   7
BRANCH   1  23
ATOM     20  N   UNL     1       3.456   6.032  19.644  0.00  0.00    +0.000 N 
ATOM     21  C   UNL     1       2.588   7.056  19.337  0.00  0.00    +0.000 C 
ATOM     22  O   UNL     1       2.315   7.378  18.182  0.00  0.00    +0.000 OA
ATOM     23  N   UNL     1       2.038   7.674  20.449  0.00  0.00    +0.000 N 
ATOM     24  H   UNL     1       3.364   5.601  20.543  0.00  0.00    +0.000 HD
ATOM     25  H   UNL     1       2.490   7.526  21.337  0.00  0.00    +0.000 HD
BRANCH  20  29
ATOM     26  C   UNL     1       5.468   4.021  16.507  0.00  0.00    +0.000 A 
ATOM     27  C   UNL     1       6.115   5.024  17.214  0.00  0.00    +0.000 A 
ATOM     28  C   UNL     1       5.490   5.640  18.293  0.00  0.00    +0.000 A 
ATOM     29  C   UNL     1       4.172   5.307  18.656  0.00  0.00    +0.000 A 
ATOM     30  C   UNL     1       3.536   4.280  17.970  0.00  0.00    +0.000 A 
ATOM     31  C   UNL     1       4.185   3.630  16.900  0.00  0.00    +0.000 A 
BRANCH  26  33
ATOM     32  C   UNL     1       6.620   4.520  14.510  0.00  0.00    +0.000 C 
ATOM     33  O   UNL     1       6.167   3.547  15.438  0.00  0.00    +0.000 OA
ENDBRANCH  26  33
ENDBRANCH  20  29
ENDBRANCH   1  23
TORSDOF 4
ENDMDL
MODEL 8
REMARK VINA RESULT:      -7.8      3.378      4.307
REMARK  Name = 
REMARK  5 active torsions:
REMARK  status: ('A' for Active; 'I' for Inactive)
REMARK    1  A    between atoms: C_1  and  O_2
REMARK    2  A    between atoms: O_2  and  C_3
REMARK    3  A    between atoms: C_6  and  N_7
REMARK    4  A    between atoms: N_10  and  C_11
REMARK    5  A    between atoms: C_14  and  N_15
REMARK                            x       y       z     vdW  Elec       q    Type
REMARK                         _______ _______ _______ _____ _____    ______ ____
ROOT
ATOM      1  C   UNL     1       0.394  10.036  20.575  0.00  0.00    +0.000 A 
ATOM      2  C   UNL     1      -0.480  11.050  20.176  0.00  0.00    +0.000 A 
ATOM      3  C   UNL     1      -1.256  11.734  21.096  0.00  0.00    +0.000 A 
ATOM      4  C   UNL     1      -1.225  11.395  22.445  0.00  0.00    +0.000 A 
ATOM      5  C   UNL     1      -0.338  10.404  22.872  0.00  0.00    +0.000 A 
ATOM      6  C   UNL     1       0.466   9.722  21.937  0.00  0.00    +0.000 A 
ENDROOT
BRANCH   4   7
ATOM      7  N   UNL     1      -2.341  11.752  23.194  0.00  0.00    +0.000 NA
ATOM      8  C   UNL     1      -2.549  12.986  23.522  0.00  0.00    +0.000 C 
ATOM      9  C   UNL     1      -1.620  14.188  23.721  0.00  0.00    +0.000 C 
ATOM     10  O   UNL     1      -0.448  14.276  23.432  0.00  0.00    +0.000 OA
ATOM     11  N   UNL     1      -2.441  15.148  24.294  0.00  0.00    +0.000 N 
ATOM     12  C   UNL     1      -3.783  14.809  24.118  0.00  0.00    +0.000 A 
ATOM     13  C   UNL     1      -4.892  15.624  24.166  0.00  0.00    +0.000 A 
ATOM     14  C   UNL     1      -6.107  15.082  23.703  0.00  0.00    +0.000 A 
ATOM     15  C   UNL     1      -6.192  13.746  23.258  0.00  0.00    +0.000 A 
ATOM     16 CL   UNL     1      -7.659  13.160  22.576  0.00  0.00    +0.000 Cl
ATOM     17  C   UNL     1      -5.082  12.913  23.278  0.00  0.00    +0.000 A 
ATOM     18  C   UNL     1      -3.899  13.496  23.698  0.00  0.00    +0.000 A 
ATOM     19  H   UNL     1      -2.088  15.988  24.729  0.00  0.00    +0.000 HD
ENDBRANCH   4   7
BRANCH   1  23
ATOM     20  N   UNL     1       2.400   7.512  18.854  0.00  0.00    +0.000 N 
ATOM     21  C   UNL     1       1.610   8.013  19.865  0.00  0.00    +0.000 C 
ATOM     22  O   UNL     1       1.333   7.372  20.878  0.00  0.00    +0.000 OA
ATOM     23  N   UNL     1       1.173   9.309  19.643  0.00  0.00    +0.000 N 
ATOM     24  H   UNL     1       2.864   8.170  18.260  0.00  0.00    +0.000 HD
ATOM     25  H   UNL     1       1.230   9.666  18.702  0.00  0.00    +0.000 HD
BRANCH  20  29
ATOM     26  C   UNL     1       3.853   3.544  19.128  0.00  0.00    +0.000 A 
ATOM     27  C   UNL     1       2.563   3.779  18.675  0.00  0.00    +0.000 A 
ATOM     28  C   UNL     1       2.101   5.081  18.512  0.00  0.00    +0.000 A 
ATOM     29  C   UNL     1       2.903   6.185  18.856  0.00  0.00    +0.000 A 
ATOM     30  C   UNL     1       4.206   5.951  19.277  0.00  0.00    +0.000 A 
ATOM     31  C   UNL     1       4.686   4.630  19.406  0.00  0.00    +0.000 A 
BRANCH  26  33
ATOM     32  C   UNL     1       3.594   1.330  18.356  0.00  0.00    +0.000 C 
ATOM     33  O   UNL     1       4.155   2.226  19.301  0.00  0.00    +0.000 OA
ENDBRANCH  26  33
ENDBRANCH  20  29
ENDBRANCH   1  23
TORSDOF 4
ENDMDL
MODEL 9
REMARK VINA RESULT:      -7.8      2.005      2.272
REMARK  Name = 
REMARK  5 active torsions:
REMARK  status: ('A' for Active; 'I' for Inactive)
REMARK    1  A    between atoms: C_1  and  O_2
REMARK    2  A    between atoms: O_2  and  C_3
REMARK    3  A    between atoms: C_6  and  N_7
REMARK    4  A    between atoms: N_10  and  C_11
REMARK    5  A    between atoms: C_14  and  N_15
REMARK                            x       y       z     vdW  Elec       q    Type
REMARK                         _______ _______ _______ _____ _____    ______ ____
ROOT
ATOM      1  C   UNL     1       1.057  10.247  18.945  0.00  0.00    +0.000 A 
ATOM      2  C   UNL     1       1.009  11.614  18.661  0.00  0.00    +0.000 A 
ATOM      3  C   UNL     1       0.160  12.462  19.352  0.00  0.00    +0.000 A 
ATOM      4  C   UNL     1      -0.710  11.966  20.317  0.00  0.00    +0.000 A 
ATOM      5  C   UNL     1      -0.660  10.608  20.637  0.00  0.00    +0.000 A 
ATOM      6  C   UNL     1       0.218   9.749  19.948  0.00  0.00    +0.000 A 
ENDROOT
BRANCH   4   7
ATOM      7  N   UNL     1      -1.830  12.743  20.592  0.00  0.00    +0.000 NA
ATOM      8  C   UNL     1      -2.950  12.527  19.979  0.00  0.00    +0.000 C 
ATOM      9  C   UNL     1      -3.299  11.915  18.619  0.00  0.00    +0.000 C 
ATOM     10  O   UNL     1      -2.566  11.319  17.864  0.00  0.00    +0.000 OA
ATOM     11  N   UNL     1      -4.650  12.193  18.469  0.00  0.00    +0.000 N 
ATOM     12  C   UNL     1      -5.213  12.550  19.695  0.00  0.00    +0.000 A 
ATOM     13  C   UNL     1      -6.535  12.521  20.078  0.00  0.00    +0.000 A 
ATOM     14  C   UNL     1      -6.810  12.689  21.448  0.00  0.00    +0.000 A 
ATOM     15  C   UNL     1      -5.777  12.928  22.380  0.00  0.00    +0.000 A 
ATOM     16 CL   UNL     1      -6.136  12.995  24.062  0.00  0.00    +0.000 Cl
ATOM     17  C   UNL     1      -4.454  13.023  21.972  0.00  0.00    +0.000 A 
ATOM     18  C   UNL     1      -4.222  12.808  20.625  0.00  0.00    +0.000 A 
ATOM     19  H   UNL     1      -5.139  12.096  17.591  0.00  0.00    +0.000 HD
ENDBRANCH   4   7
BRANCH   1  23
ATOM     20  N   UNL     1       3.107   7.424  17.857  0.00  0.00    +0.000 N 
ATOM     21  C   UNL     1       2.232   8.096  18.680  0.00  0.00    +0.000 C 
ATOM     22  O   UNL     1       1.799   7.619  19.728  0.00  0.00    +0.000 OA
ATOM     23  N   UNL     1       1.900   9.363  18.228  0.00  0.00    +0.000 N 
ATOM     24  H   UNL     1       3.677   7.970  17.241  0.00  0.00    +0.000 HD
ATOM     25  H   UNL     1       2.090   9.578  17.262  0.00  0.00    +0.000 HD
BRANCH  20  29
ATOM     26  C   UNL     1       4.285   3.481  18.857  0.00  0.00    +0.000 A 
ATOM     27  C   UNL     1       3.079   3.699  18.206  0.00  0.00    +0.000 A 
ATOM     28  C   UNL     1       2.717   4.982  17.808  0.00  0.00    +0.000 A 
ATOM     29  C   UNL     1       3.530   6.092  18.105  0.00  0.00    +0.000 A 
ATOM     30  C   UNL     1       4.752   5.869  18.727  0.00  0.00    +0.000 A 
ATOM     31  C   UNL     1       5.136   4.563  19.096  0.00  0.00    +0.000 A 
BRANCH  26  33
ATOM     32  C   UNL     1       3.690   1.214  18.596  0.00  0.00    +0.000 C 
ATOM     33  O   UNL     1       4.487   2.190  19.245  0.00  0.00    +0.000 OA
ENDBRANCH  26  33
ENDBRANCH  20  29
ENDBRANCH   1  23
TORSDOF 4
ENDMDL
