MODEL 1
REMARK VINA RESULT:      -7.2      0.000      0.000
REMARK  Name = 
REMARK  3 active torsions:
REMARK  status: ('A' for Active; 'I' for Inactive)
REMARK    1  A    between atoms: N_1  and  C_2
REMARK    2  A    between atoms: N_10  and  C_11
REMARK    3  A    between atoms: C_11  and  C_12
REMARK                            x       y       z     vdW  Elec       q    Type
REMARK                         _______ _______ _______ _____ _____    ______ ____
ROOT
ATOM      1  C   UNL     1       6.766   6.103  16.681  0.00  0.00    +0.000 A 
ATOM      2  N   UNL     1       6.265   5.663  15.488  0.00  0.00    +0.000 NA
ATOM      3  C   UNL     1       5.414   4.590  15.406  0.00  0.00    +0.000 A 
ATOM      4  C   UNL     1       5.027   3.890  16.567  0.00  0.00    +0.000 A 
ATOM      5  C   UNL     1       5.542   4.359  17.775  0.00  0.00    +0.000 A 
ATOM      6  C   UNL     1       6.377   5.426  17.835  0.00  0.00    +0.000 A 
ATOM      7  N   UNL     1       6.710   5.647  19.120  0.00  0.00    +0.000 NA
ATOM      8  N   UNL     1       6.077   4.712  19.827  0.00  0.00    +0.000 NA
ATOM      9  N   UNL     1       5.362   3.918  19.032  0.00  0.00    +0.000 N 
ENDROOT
BRANCH   1  10
ATOM     10  N   UNL     1       7.649   7.209  16.724  0.00  0.00    +0.000 N 
ATOM     11  H   UNL     1       7.282   8.158  16.884  0.00  0.00    +0.000 HD
ATOM     12  H   UNL     1       8.663   7.084  16.589  0.00  0.00    +0.000 HD
ENDBRANCH   1  10
BRANCH   9  13
ATOM     13  C   UNL     1       4.622   2.742  19.486  0.00  0.00    +0.000 C 
BRANCH  13  14
ATOM     14  C   UNL     1       3.139   3.000  19.588  0.00  0.00    +0.000 A 
ATOM     15  C   UNL     1       2.248   2.285  18.767  0.00  0.00    +0.000 A 
ATOM     16  C   UNL     1       0.869   2.486  18.873  0.00  0.00    +0.000 A 
ATOM     17  C   UNL     1       0.366   3.405  19.796  0.00  0.00    +0.000 A 
ATOM     18  C   UNL     1       1.242   4.126  20.613  0.00  0.00    +0.000 A 
ATOM     19  C   UNL     1       2.624   3.925  20.512  0.00  0.00    +0.000 A 
ENDBRANCH  13  14
ENDBRANCH   9  13
TORSDOF 3
ENDMDL
MODEL 2
REMARK VINA RESULT:      -7.1      1.627      1.997
REMARK  Name = 
REMARK  3 active torsions:
REMARK  status: ('A' for Active; 'I' for Inactive)
REMARK    1  A    between atoms: N_1  and  C_2
REMARK    2  A    between atoms: N_10  and  C_11
REMARK    3  A    between atoms: C_11  and  C_12
REMARK                            x       y       z     vdW  Elec       q    Type
REMARK                         _______ _______ _______ _____ _____    ______ ____
ROOT
ATOM      1  C   UNL     1       6.772   6.521  16.716  0.00  0.00    +0.000 A 
ATOM      2  N   UNL     1       7.479   5.593  16.004  0.00  0.00    +0.000 NA
ATOM      3  C   UNL     1       6.963   4.360  15.699  0.00  0.00    +0.000 A 
ATOM      4  C   UNL     1       5.667   3.999  16.123  0.00  0.00    +0.000 A 
ATOM      5  C   UNL     1       4.959   4.962  16.840  0.00  0.00    +0.000 A 
ATOM      6  C   UNL     1       5.486   6.178  17.126  0.00  0.00    +0.000 A 
ATOM      7  N   UNL     1       4.582   6.891  17.824  0.00  0.00    +0.000 NA
ATOM      8  N   UNL     1       3.518   6.102  17.958  0.00  0.00    +0.000 NA
ATOM      9  N   UNL     1       3.723   4.925  17.369  0.00  0.00    +0.000 N 
ENDROOT
BRANCH   1  10
ATOM     10  N   UNL     1       7.344   7.781  17.019  0.00  0.00    +0.000 N 
ATOM     11  H   UNL     1       7.233   8.569  16.367  0.00  0.00    +0.000 HD
ATOM     12  H   UNL     1       7.881   7.925  17.886  0.00  0.00    +0.000 HD
ENDBRANCH   1  10
BRANCH   9  13
ATOM     13  C   UNL     1       2.785   3.804  17.410  0.00  0.00    +0.000 C 
BRANCH  13  14
ATOM     14  C   UNL     1       2.428   3.406  18.820  0.00  0.00    +0.000 A 
ATOM     15  C   UNL     1       3.426   2.910  19.680  0.00  0.00    +0.000 A 
ATOM     16  C   UNL     1       3.120   2.570  21.000  0.00  0.00    +0.000 A 
ATOM     17  C   UNL     1       1.815   2.718  21.475  0.00  0.00    +0.000 A 
ATOM     18  C   UNL     1       0.814   3.203  20.629  0.00  0.00    +0.000 A 
ATOM     19  C   UNL     1       1.117   3.548  19.306  0.00  0.00    +0.000 A 
ENDBRANCH  13  14
ENDBRANCH   9  13
TORSDOF 3
ENDMDL
MODEL 3
REMARK VINA RESULT:      -7.1      0.160      1.185
REMARK  Name = 
REMARK  3 active torsions:
REMARK  status: ('A' for Active; 'I' for Inactive)
REMARK    1  A    between atoms: N_1  and  C_2
REMARK    2  A    between atoms: N_10  and  C_11
REMARK    3  A    between atoms: C_11  and  C_12
REMARK                            x       y       z     vdW  Elec       q    Type
REMARK                         _______ _______ _______ _____ _____    ______ ____
ROOT
ATOM      1  C   UNL     1       6.696   6.296  16.791  0.00  0.00    +0.000 A 
ATOM      2  N   UNL     1       6.239   5.901  15.565  0.00  0.00    +0.000 NA
ATOM      3  C   UNL     1       5.440   4.798  15.406  0.00  0.00    +0.000 A 
ATOM      4  C   UNL     1       5.061   4.018  16.518  0.00  0.00    +0.000 A 
ATOM      5  C   UNL     1       5.530   4.442  17.761  0.00  0.00    +0.000 A 
ATOM      6  C   UNL     1       6.315   5.539  17.897  0.00  0.00    +0.000 A 
ATOM      7  N   UNL     1       6.611   5.703  19.200  0.00  0.00    +0.000 NA
ATOM      8  N   UNL     1       6.007   4.704  19.841  0.00  0.00    +0.000 NA
ATOM      9  N   UNL     1       5.344   3.925  18.988  0.00  0.00    +0.000 N 
ENDROOT
BRANCH   1  10
ATOM     10  N   UNL     1       7.527   7.436  16.914  0.00  0.00    +0.000 N 
ATOM     11  H   UNL     1       7.425   8.065  17.722  0.00  0.00    +0.000 HD
ATOM     12  H   UNL     1       8.237   7.653  16.200  0.00  0.00    +0.000 HD
ENDBRANCH   1  10
BRANCH   9  13
ATOM     13  C   UNL     1       4.649   2.694  19.360  0.00  0.00    +0.000 C 
BRANCH  13  14
ATOM     14  C   UNL     1       3.163   2.899  19.516  0.00  0.00    +0.000 A 
ATOM     15  C   UNL     1       2.679   3.776  20.504  0.00  0.00    +0.000 A 
ATOM     16  C   UNL     1       1.307   4.005  20.640  0.00  0.00    +0.000 A 
ATOM     17  C   UNL     1       0.404   3.359  19.793  0.00  0.00    +0.000 A 
ATOM     18  C   UNL     1       0.872   2.479  18.812  0.00  0.00    +0.000 A 
ATOM     19  C   UNL     1       2.246   2.249  18.671  0.00  0.00    +0.000 A 
ENDBRANCH  13  14
ENDBRANCH   9  13
TORSDOF 3
ENDMDL
MODEL 4
REMARK VINA RESULT:      -7.1      1.094      1.317
REMARK  Name = 
REMARK  3 active torsions:
REMARK  status: ('A' for Active; 'I' for Inactive)
REMARK    1  A    between atoms: N_1  and  C_2
REMARK    2  A    between atoms: N_10  and  C_11
REMARK    3  A    between atoms: C_11  and  C_12
REMARK                            x       y       z     vdW  Elec       q    Type
REMARK                         _______ _______ _______ _____ _____    ______ ____
ROOT
ATOM      1  C   UNL     1       7.097   6.087  16.397  0.00  0.00    +0.000 A 
ATOM      2  N   UNL     1       7.325   5.513  15.178  0.00  0.00    +0.000 NA
ATOM      3  C   UNL     1       6.681   4.369  14.780  0.00  0.00    +0.000 A 
ATOM      4  C   UNL     1       5.753   3.733  15.631  0.00  0.00    +0.000 A 
ATOM      5  C   UNL     1       5.529   4.339  16.866  0.00  0.00    +0.000 A 
ATOM      6  C   UNL     1       6.172   5.473  17.239  0.00  0.00    +0.000 A 
ATOM      7  N   UNL     1       5.759   5.823  18.471  0.00  0.00    +0.000 NA
ATOM      8  N   UNL     1       4.873   4.898  18.836  0.00  0.00    +0.000 NA
ATOM      9  N   UNL     1       4.717   3.986  17.878  0.00  0.00    +0.000 N 
ENDROOT
BRANCH   1  10
ATOM     10  N   UNL     1       7.789   7.264  16.777  0.00  0.00    +0.000 N 
ATOM     11  H   UNL     1       7.833   8.066  16.134  0.00  0.00    +0.000 HD
ATOM     12  H   UNL     1       8.259   7.330  17.690  0.00  0.00    +0.000 HD
ENDBRANCH   1  10
BRANCH   9  13
ATOM     13  C   UNL     1       3.883   2.791  18.000  0.00  0.00    +0.000 C 
BRANCH  13  14
ATOM     14  C   UNL     1       2.959   2.856  19.190  0.00  0.00    +0.000 A 
ATOM     15  C   UNL     1       1.626   3.272  19.016  0.00  0.00    +0.000 A 
ATOM     16  C   UNL     1       0.746   3.304  20.102  0.00  0.00    +0.000 A 
ATOM     17  C   UNL     1       1.187   2.925  21.371  0.00  0.00    +0.000 A 
ATOM     18  C   UNL     1       2.511   2.516  21.557  0.00  0.00    +0.000 A 
ATOM     19  C   UNL     1       3.395   2.480  20.472  0.00  0.00    +0.000 A 
ENDBRANCH  13  14
ENDBRANCH   9  13
TORSDOF 3
ENDMDL
MODEL 5
REMARK VINA RESULT:      -7.1      1.983      2.825
REMARK  Name = 
REMARK  3 active torsions:
REMARK  status: ('A' for Active; 'I' for Inactive)
REMARK    1  A    between atoms: N_1  and  C_2
REMARK    2  A    between atoms: N_10  and  C_11
REMARK    3  A    between atoms: C_11  and  C_12
REMARK                            x       y       z     vdW  Elec       q    Type
REMARK                         _______ _______ _______ _____ _____    ______ ____
ROOT
ATOM      1  C   UNL     1       7.187   5.330  15.919  0.00  0.00    +0.000 A 
ATOM      2  N   UNL     1       7.866   4.596  16.850  0.00  0.00    +0.000 NA
ATOM      3  C   UNL     1       7.395   4.423  18.127  0.00  0.00    +0.000 A 
ATOM      4  C   UNL     1       6.178   5.012  18.530  0.00  0.00    +0.000 A 
ATOM      5  C   UNL     1       5.497   5.750  17.563  0.00  0.00    +0.000 A 
ATOM      6  C   UNL     1       5.977   5.904  16.304  0.00  0.00    +0.000 A 
ATOM      7  N   UNL     1       5.114   6.658  15.598  0.00  0.00    +0.000 NA
ATOM      8  N   UNL     1       4.122   6.958  16.434  0.00  0.00    +0.000 NA
ATOM      9  N   UNL     1       4.332   6.417  17.633  0.00  0.00    +0.000 N 
ENDROOT
BRANCH   1  10
ATOM     10  N   UNL     1       7.710   5.493  14.613  0.00  0.00    +0.000 N 
ATOM     11  H   UNL     1       8.728   5.509  14.463  0.00  0.00    +0.000 HD
ATOM     12  H   UNL     1       7.085   5.605  13.802  0.00  0.00    +0.000 HD
ENDBRANCH   1  10
BRANCH   9  13
ATOM     13  C   UNL     1       3.475   6.630  18.799  0.00  0.00    +0.000 C 
BRANCH  13  14
ATOM     14  C   UNL     1       2.589   5.442  19.084  0.00  0.00    +0.000 A 
ATOM     15  C   UNL     1       2.181   5.177  20.404  0.00  0.00    +0.000 A 
ATOM     16  C   UNL     1       1.331   4.102  20.681  0.00  0.00    +0.000 A 
ATOM     17  C   UNL     1       0.884   3.280  19.645  0.00  0.00    +0.000 A 
ATOM     18  C   UNL     1       1.289   3.529  18.330  0.00  0.00    +0.000 A 
ATOM     19  C   UNL     1       2.137   4.607  18.048  0.00  0.00    +0.000 A 
ENDBRANCH  13  14
ENDBRANCH   9  13
TORSDOF 3
ENDMDL
MODEL 6
REMARK VINA RESULT:      -7.1      1.669      2.002
REMARK  Name = 
REMARK  3 active torsions:
REMARK  status: ('A' for Active; 'I' for Inactive)
REMARK    1  A    between atoms: N_1  and  C_2
REMARK    2  A    between atoms: N_10  and  C_11
REMARK    3  A    between atoms: C_11  and  C_12
REMARK                            x       y       z     vdW  Elec       q    Type
REMARK                         _______ _______ _______ _____ _____    ______ ____
ROOT
ATOM      1  C   UNL     1       6.745   6.584  16.741  0.00  0.00    +0.000 A 
ATOM      2  N   UNL     1       7.462   5.629  16.075  0.00  0.00    +0.000 NA
ATOM      3  C   UNL     1       6.946   4.387  15.805  0.00  0.00    +0.000 A 
ATOM      4  C   UNL     1       5.641   4.046  16.217  0.00  0.00    +0.000 A 
ATOM      5  C   UNL     1       4.924   5.036  16.887  0.00  0.00    +0.000 A 
ATOM      6  C   UNL     1       5.450   6.259  17.140  0.00  0.00    +0.000 A 
ATOM      7  N   UNL     1       4.537   7.000  17.796  0.00  0.00    +0.000 NA
ATOM      8  N   UNL     1       3.467   6.219  17.938  0.00  0.00    +0.000 NA
ATOM      9  N   UNL     1       3.679   5.021  17.394  0.00  0.00    +0.000 N 
ENDROOT
BRANCH   1  10
ATOM     10  N   UNL     1       7.316   7.851  17.010  0.00  0.00    +0.000 N 
ATOM     11  H   UNL     1       7.831   8.011  17.887  0.00  0.00    +0.000 HD
ATOM     12  H   UNL     1       7.220   8.628  16.341  0.00  0.00    +0.000 HD
ENDBRANCH   1  10
BRANCH   9  13
ATOM     13  C   UNL     1       2.736   3.905  17.458  0.00  0.00    +0.000 C 
BRANCH  13  14
ATOM     14  C   UNL     1       2.431   3.492  18.876  0.00  0.00    +0.000 A 
ATOM     15  C   UNL     1       1.114   3.587  19.362  0.00  0.00    +0.000 A 
ATOM     16  C   UNL     1       0.806   3.175  20.662  0.00  0.00    +0.000 A 
ATOM     17  C   UNL     1       1.810   2.667  21.490  0.00  0.00    +0.000 A 
ATOM     18  C   UNL     1       3.123   2.575  21.020  0.00  0.00    +0.000 A 
ATOM     19  C   UNL     1       3.435   2.983  19.717  0.00  0.00    +0.000 A 
ENDBRANCH  13  14
ENDBRANCH   9  13
TORSDOF 3
ENDMDL
MODEL 7
REMARK VINA RESULT:      -7.1      1.992      2.639
REMARK  Name = 
REMARK  3 active torsions:
REMARK  status: ('A' for Active; 'I' for Inactive)
REMARK    1  A    between atoms: N_1  and  C_2
REMARK    2  A    between atoms: N_10  and  C_11
REMARK    3  A    between atoms: C_11  and  C_12
REMARK                            x       y       z     vdW  Elec       q    Type
REMARK                         _______ _______ _______ _____ _____    ______ ____
ROOT
ATOM      1  C   UNL     1       7.148   5.320  15.938  0.00  0.00    +0.000 A 
ATOM      2  N   UNL     1       7.819   4.600  16.886  0.00  0.00    +0.000 NA
ATOM      3  C   UNL     1       7.344   4.456  18.164  0.00  0.00    +0.000 A 
ATOM      4  C   UNL     1       6.130   5.060  18.551  0.00  0.00    +0.000 A 
ATOM      5  C   UNL     1       5.456   5.783  17.568  0.00  0.00    +0.000 A 
ATOM      6  C   UNL     1       5.940   5.909  16.308  0.00  0.00    +0.000 A 
ATOM      7  N   UNL     1       5.084   6.655  15.585  0.00  0.00    +0.000 NA
ATOM      8  N   UNL     1       4.092   6.977  16.412  0.00  0.00    +0.000 NA
ATOM      9  N   UNL     1       4.295   6.459  17.622  0.00  0.00    +0.000 N 
ENDROOT
BRANCH   1  10
ATOM     10  N   UNL     1       7.676   5.454  14.631  0.00  0.00    +0.000 N 
ATOM     11  H   UNL     1       7.332   6.198  14.008  0.00  0.00    +0.000 HD
ATOM     12  H   UNL     1       8.401   4.810  14.284  0.00  0.00    +0.000 HD
ENDBRANCH   1  10
BRANCH   9  13
ATOM     13  C   UNL     1       3.436   6.700  18.781  0.00  0.00    +0.000 C 
BRANCH  13  14
ATOM     14  C   UNL     1       2.536   5.527  19.081  0.00  0.00    +0.000 A 
ATOM     15  C   UNL     1       2.119   4.682  18.036  0.00  0.00    +0.000 A 
ATOM     16  C   UNL     1       1.314   3.571  18.301  0.00  0.00    +0.000 A 
ATOM     17  C   UNL     1       0.914   3.294  19.610  0.00  0.00    +0.000 A 
ATOM     18  C   UNL     1       1.316   4.131  20.656  0.00  0.00    +0.000 A 
ATOM     19  C   UNL     1       2.125   5.244  20.395  0.00  0.00    +0.000 A 
ENDBRANCH  13  14
ENDBRANCH   9  13
TORSDOF 3
ENDMDL
MODEL 8
REMARK VINA RESULT:      -7.1      1.556      1.771
REMARK  Name = 
REMARK  3 active torsions:
REMARK  status: ('A' for Active; 'I' for Inactive)
REMARK    1  A    between atoms: N_1  and  C_2
REMARK    2  A    between atoms: N_10  and  C_11
REMARK    3  A    between atoms: C_11  and  C_12
REMARK                            x       y       z     vdW  Elec       q    Type
REMARK                         _______ _______ _______ _____ _____    ______ ____
ROOT
ATOM      1  C   UNL     1       7.564   4.613  17.390  0.00  0.00    +0.000 A 
ATOM      2  N   UNL     1       7.419   4.589  16.031  0.00  0.00    +0.000 NA
ATOM      3  C   UNL     1       6.237   4.918  15.418  0.00  0.00    +0.000 A 
ATOM      4  C   UNL     1       5.112   5.292  16.182  0.00  0.00    +0.000 A 
ATOM      5  C   UNL     1       5.282   5.319  17.565  0.00  0.00    +0.000 A 
ATOM      6  C   UNL     1       6.461   4.995  18.151  0.00  0.00    +0.000 A 
ATOM      7  N   UNL     1       6.330   5.110  19.486  0.00  0.00    +0.000 NA
ATOM      8  N   UNL     1       5.074   5.499  19.698  0.00  0.00    +0.000 NA
ATOM      9  N   UNL     1       4.418   5.632  18.546  0.00  0.00    +0.000 N 
ENDROOT
BRANCH   1  10
ATOM     10  N   UNL     1       8.798   4.257  17.987  0.00  0.00    +0.000 N 
ATOM     11  H   UNL     1       9.050   4.627  18.914  0.00  0.00    +0.000 HD
ATOM     12  H   UNL     1       9.460   3.633  17.503  0.00  0.00    +0.000 HD
ENDBRANCH   1  10
BRANCH   9  13
ATOM     13  C   UNL     1       2.997   5.960  18.436  0.00  0.00    +0.000 C 
BRANCH  13  14
ATOM     14  C   UNL     1       2.110   4.834  18.904  0.00  0.00    +0.000 A 
ATOM     15  C   UNL     1       1.726   3.827  18.000  0.00  0.00    +0.000 A 
ATOM     16  C   UNL     1       0.933   2.757  18.425  0.00  0.00    +0.000 A 
ATOM     17  C   UNL     1       0.513   2.684  19.754  0.00  0.00    +0.000 A 
ATOM     18  C   UNL     1       0.883   3.683  20.660  0.00  0.00    +0.000 A 
ATOM     19  C   UNL     1       1.679   4.754  20.239  0.00  0.00    +0.000 A 
ENDBRANCH  13  14
ENDBRANCH   9  13
TORSDOF 3
ENDMDL
MODEL 9
REMARK VINA RESULT:      -7.0      1.452      1.741
REMARK  Name = 
REMARK  3 active torsions:
REMARK  status: ('A' for Active; 'I' for Inactive)
REMARK    1  A    between atoms: N_1  and  C_2
REMARK    2  A    between atoms: N_10  and  C_11
REMARK    3  A    between atoms: C_11  and  C_12
REMARK                            x       y       z     vdW  Elec       q    Type
REMARK                         _______ _______ _______ _____ _____    ______ ____
ROOT
ATOM      1  C   UNL     1       6.680   5.286  16.227  0.00  0.00    +0.000 A 
ATOM      2  N   UNL     1       6.077   6.170  15.377  0.00  0.00    +0.000 NA
ATOM      3  C   UNL     1       4.940   6.853  15.724  0.00  0.00    +0.000 A 
ATOM      4  C   UNL     1       4.341   6.659  16.985  0.00  0.00    +0.000 A 
ATOM      5  C   UNL     1       4.976   5.761  17.841  0.00  0.00    +0.000 A 
ATOM      6  C   UNL     1       6.103   5.099  17.482  0.00  0.00    +0.000 A 
ATOM      7  N   UNL     1       6.486   4.306  18.500  0.00  0.00    +0.000 NA
ATOM      8  N   UNL     1       5.587   4.491  19.465  0.00  0.00    +0.000 NA
ATOM      9  N   UNL     1       4.660   5.370  19.088  0.00  0.00    +0.000 N 
ENDROOT
BRANCH   1  10
ATOM     10  N   UNL     1       7.849   4.592  15.830  0.00  0.00    +0.000 N 
ATOM     11  H   UNL     1       8.171   3.773  16.364  0.00  0.00    +0.000 HD
ATOM     12  H   UNL     1       8.395   4.898  15.011  0.00  0.00    +0.000 HD
ENDBRANCH   1  10
BRANCH   9  13
ATOM     13  C   UNL     1       3.486   5.726  19.883  0.00  0.00    +0.000 C 
BRANCH  13  14
ATOM     14  C   UNL     1       2.473   4.611  19.943  0.00  0.00    +0.000 A 
ATOM     15  C   UNL     1       1.847   4.173  18.761  0.00  0.00    +0.000 A 
ATOM     16  C   UNL     1       0.932   3.117  18.792  0.00  0.00    +0.000 A 
ATOM     17  C   UNL     1       0.630   2.490  20.003  0.00  0.00    +0.000 A 
ATOM     18  C   UNL     1       1.239   2.921  21.185  0.00  0.00    +0.000 A 
ATOM     19  C   UNL     1       2.159   3.977  21.157  0.00  0.00    +0.000 A 
ENDBRANCH  13  14
ENDBRANCH   9  13
TORSDOF 3
ENDMDL
