MODEL 1
REMARK VINA RESULT:      -7.7      0.000      0.000
REMARK  Name = 
REMARK  6 active torsions:
REMARK  status: ('A' for Active; 'I' for Inactive)
REMARK    1  A    between atoms: C_1  and  C_2
REMARK    2  A    between atoms: C_2  and  C_3
REMARK    3  A    between atoms: C_4  and  C_5
REMARK    4  A    between atoms: C_7  and  N_8
REMARK    5  A    between atoms: C_12  and  O_13
REMARK    6  A    between atoms: C_14  and  C_15
REMARK                            x       y       z     vdW  Elec       q    Type
REMARK                         _______ _______ _______ _____ _____    ______ ____
ROOT
ATOM      1  C   UNL     1       5.784   6.018  17.125  0.00  0.00    +0.000 A 
ATOM      2  N   UNL     1       4.883   5.631  17.957  0.00  0.00    +0.000 NA
ATOM      3  C   UNL     1       4.428   4.353  17.822  0.00  0.00    +0.000 A 
ATOM      4  C   UNL     1       4.815   3.567  16.816  0.00  0.00    +0.000 A 
ATOM      5  C   UNL     1       5.703   4.122  15.807  0.00  0.00    +0.000 A 
ATOM      6  O   UNL     1       5.946   3.492  14.785  0.00  0.00    +0.000 OA
ATOM      7  O   UNL     1       6.233   5.337  16.043  0.00  0.00    +0.000 OA
ENDROOT
BRANCH   3   8
ATOM      8  N   UNL     1       3.528   3.898  18.771  0.00  0.00    +0.000 N 
ATOM      9  C   UNL     1       3.869   3.028  19.802  0.00  0.00    +0.000 C 
ATOM     10  O   UNL     1       4.983   2.606  20.083  0.00  0.00    +0.000 OA
ATOM     11  C   UNL     1       2.633   2.633  20.547  0.00  0.00    +0.000 C 
ATOM     12  C   UNL     1       1.541   3.555  20.027  0.00  0.00    +0.000 C 
ATOM     13  C   UNL     1       2.190   4.443  18.941  0.00  0.00    +0.000 C 
ATOM     14  C   UNL     1       1.378   4.486  17.644  0.00  0.00    +0.000 C 
BRANCH  12  15
ATOM     15  O   UNL     1       0.441   2.772  19.560  0.00  0.00    +0.000 OA
ATOM     16  H   UNL     1       0.778   1.922  19.224  0.00  0.00    +0.000 HD
ENDBRANCH  12  15
ENDBRANCH   3   8
BRANCH   1  20
ATOM     17  C   UNL     1       8.277   8.846  17.944  0.00  0.00    +0.000 C 
ATOM     18  C   UNL     1       7.573   7.518  17.969  0.00  0.00    +0.000 C 
ATOM     19  C   UNL     1       8.146   6.467  18.884  0.00  0.00    +0.000 C 
ATOM     20  C   UNL     1       6.502   7.309  17.176  0.00  0.00    +0.000 C 
ENDBRANCH   1  20
TORSDOF 3
ENDMDL
MODEL 2
REMARK VINA RESULT:      -7.3      1.764      3.183
REMARK  Name = 
REMARK  6 active torsions:
REMARK  status: ('A' for Active; 'I' for Inactive)
REMARK    1  A    between atoms: C_1  and  C_2
REMARK    2  A    between atoms: C_2  and  C_3
REMARK    3  A    between atoms: C_4  and  C_5
REMARK    4  A    between atoms: C_7  and  N_8
REMARK    5  A    between atoms: C_12  and  O_13
REMARK    6  A    between atoms: C_14  and  C_15
REMARK                            x       y       z     vdW  Elec       q    Type
REMARK                         _______ _______ _______ _____ _____    ______ ____
ROOT
ATOM      1  C   UNL     1       6.039   4.071  16.931  0.00  0.00    +0.000 A 
ATOM      2  N   UNL     1       5.088   3.698  17.713  0.00  0.00    +0.000 NA
ATOM      3  C   UNL     1       5.004   4.322  18.922  0.00  0.00    +0.000 A 
ATOM      4  C   UNL     1       5.919   5.205  19.327  0.00  0.00    +0.000 A 
ATOM      5  C   UNL     1       7.066   5.456  18.469  0.00  0.00    +0.000 A 
ATOM      6  O   UNL     1       8.005   6.128  18.876  0.00  0.00    +0.000 OA
ATOM      7  O   UNL     1       7.047   4.924  17.232  0.00  0.00    +0.000 OA
ENDROOT
BRANCH   3   8
ATOM      8  N   UNL     1       3.929   3.994  19.731  0.00  0.00    +0.000 N 
ATOM      9  C   UNL     1       3.857   2.821  20.476  0.00  0.00    +0.000 C 
ATOM     10  O   UNL     1       4.722   1.966  20.607  0.00  0.00    +0.000 OA
ATOM     11  C   UNL     1       2.506   2.721  21.113  0.00  0.00    +0.000 C 
ATOM     12  C   UNL     1       1.857   4.079  20.889  0.00  0.00    +0.000 C 
ATOM     13  C   UNL     1       2.863   4.922  20.073  0.00  0.00    +0.000 C 
ATOM     14  C   UNL     1       2.224   5.596  18.855  0.00  0.00    +0.000 C 
BRANCH  12  15
ATOM     15  O   UNL     1       0.592   3.900  20.251  0.00  0.00    +0.000 OA
ATOM     16  H   UNL     1       0.716   3.368  19.445  0.00  0.00    +0.000 HD
ENDBRANCH  12  15
ENDBRANCH   3   8
BRANCH   1  20
ATOM     17  C   UNL     1       6.156   3.874  13.080  0.00  0.00    +0.000 C 
ATOM     18  C   UNL     1       5.902   4.382  14.472  0.00  0.00    +0.000 C 
ATOM     19  C   UNL     1       5.308   5.761  14.589  0.00  0.00    +0.000 C 
ATOM     20  C   UNL     1       6.229   3.620  15.536  0.00  0.00    +0.000 C 
ENDBRANCH   1  20
TORSDOF 3
ENDMDL
MODEL 3
REMARK VINA RESULT:      -7.2      2.122      3.645
REMARK  Name = 
REMARK  6 active torsions:
REMARK  status: ('A' for Active; 'I' for Inactive)
REMARK    1  A    between atoms: C_1  and  C_2
REMARK    2  A    between atoms: C_2  and  C_3
REMARK    3  A    between atoms: C_4  and  C_5
REMARK    4  A    between atoms: C_7  and  N_8
REMARK    5  A    between atoms: C_12  and  O_13
REMARK    6  A    between atoms: C_14  and  C_15
REMARK                            x       y       z     vdW  Elec       q    Type
REMARK                         _______ _______ _______ _____ _____    ______ ____
ROOT
ATOM      1  C   UNL     1       5.972   4.132  16.947  0.00  0.00    +0.000 A 
ATOM      2  N   UNL     1       4.922   3.911  17.656  0.00  0.00    +0.000 NA
ATOM      3  C   UNL     1       4.839   4.560  18.853  0.00  0.00    +0.000 A 
ATOM      4  C   UNL     1       5.839   5.309  19.322  0.00  0.00    +0.000 A 
ATOM      5  C   UNL     1       7.071   5.379  18.552  0.00  0.00    +0.000 A 
ATOM      6  O   UNL     1       8.065   5.914  19.026  0.00  0.00    +0.000 OA
ATOM      7  O   UNL     1       7.068   4.835  17.320  0.00  0.00    +0.000 OA
ENDROOT
BRANCH   3   8
ATOM      8  N   UNL     1       3.671   4.402  19.579  0.00  0.00    +0.000 N 
ATOM      9  C   UNL     1       2.782   5.439  19.844  0.00  0.00    +0.000 C 
ATOM     10  O   UNL     1       2.832   6.589  19.428  0.00  0.00    +0.000 OA
ATOM     11  C   UNL     1       1.712   4.951  20.770  0.00  0.00    +0.000 C 
ATOM     12  C   UNL     1       1.897   3.443  20.834  0.00  0.00    +0.000 C 
ATOM     13  C   UNL     1       3.124   3.108  19.956  0.00  0.00    +0.000 C 
ATOM     14  C   UNL     1       4.132   2.200  20.665  0.00  0.00    +0.000 C 
BRANCH  12  15
ATOM     15  O   UNL     1       2.027   3.039  22.198  0.00  0.00    +0.000 OA
ATOM     16  H   UNL     1       2.380   3.783  22.716  0.00  0.00    +0.000 HD
ENDBRANCH  12  15
ENDBRANCH   3   8
BRANCH   1  20
ATOM     17  C   UNL     1       6.207   3.819  13.109  0.00  0.00    +0.000 C 
ATOM     18  C   UNL     1       5.918   4.373  14.477  0.00  0.00    +0.000 C 
ATOM     19  C   UNL     1       5.345   5.764  14.535  0.00  0.00    +0.000 C 
ATOM     20  C   UNL     1       6.198   3.637  15.573  0.00  0.00    +0.000 C 
ENDBRANCH   1  20
TORSDOF 3
ENDMDL
MODEL 4
REMARK VINA RESULT:      -7.2      1.071      1.934
REMARK  Name = 
REMARK  6 active torsions:
REMARK  status: ('A' for Active; 'I' for Inactive)
REMARK    1  A    between atoms: C_1  and  C_2
REMARK    2  A    between atoms: C_2  and  C_3
REMARK    3  A    between atoms: C_4  and  C_5
REMARK    4  A    between atoms: C_7  and  N_8
REMARK    5  A    between atoms: C_12  and  O_13
REMARK    6  A    between atoms: C_14  and  C_15
REMARK                            x       y       z     vdW  Elec       q    Type
REMARK                         _______ _______ _______ _____ _____    ______ ____
ROOT
ATOM      1  C   UNL     1       5.680   5.880  17.002  0.00  0.00    +0.000 A 
ATOM      2  N   UNL     1       4.701   5.478  17.732  0.00  0.00    +0.000 NA
ATOM      3  C   UNL     1       4.210   4.232  17.473  0.00  0.00    +0.000 A 
ATOM      4  C   UNL     1       4.647   3.500  16.446  0.00  0.00    +0.000 A 
ATOM      5  C   UNL     1       5.634   4.082  15.551  0.00  0.00    +0.000 A 
ATOM      6  O   UNL     1       5.934   3.513  14.510  0.00  0.00    +0.000 OA
ATOM      7  O   UNL     1       6.189   5.255  15.913  0.00  0.00    +0.000 OA
ENDROOT
BRANCH   3   8
ATOM      8  N   UNL     1       3.221   3.754  18.314  0.00  0.00    +0.000 N 
ATOM      9  C   UNL     1       1.919   4.245  18.331  0.00  0.00    +0.000 C 
ATOM     10  O   UNL     1       1.428   5.081  17.583  0.00  0.00    +0.000 OA
ATOM     11  C   UNL     1       1.162   3.607  19.453  0.00  0.00    +0.000 C 
ATOM     12  C   UNL     1       2.060   2.487  19.954  0.00  0.00    +0.000 C 
ATOM     13  C   UNL     1       3.355   2.545  19.113  0.00  0.00    +0.000 C 
ATOM     14  C   UNL     1       4.623   2.515  19.970  0.00  0.00    +0.000 C 
BRANCH  12  15
ATOM     15  O   UNL     1       2.269   2.639  21.359  0.00  0.00    +0.000 OA
ATOM     16  H   UNL     1       3.058   3.190  21.503  0.00  0.00    +0.000 HD
ENDBRANCH  12  15
ENDBRANCH   3   8
BRANCH   1  20
ATOM     17  C   UNL     1       8.243   8.520  18.162  0.00  0.00    +0.000 C 
ATOM     18  C   UNL     1       7.494   7.222  18.036  0.00  0.00    +0.000 C 
ATOM     19  C   UNL     1       8.004   6.066  18.856  0.00  0.00    +0.000 C 
ATOM     20  C   UNL     1       6.439   7.133  17.200  0.00  0.00    +0.000 C 
ENDBRANCH   1  20
TORSDOF 3
ENDMDL
MODEL 5
REMARK VINA RESULT:      -7.0      2.230      3.767
REMARK  Name = 
REMARK  6 active torsions:
REMARK  status: ('A' for Active; 'I' for Inactive)
REMARK    1  A    between atoms: C_1  and  C_2
REMARK    2  A    between atoms: C_2  and  C_3
REMARK    3  A    between atoms: C_4  and  C_5
REMARK    4  A    between atoms: C_7  and  N_8
REMARK    5  A    between atoms: C_12  and  O_13
REMARK    6  A    between atoms: C_14  and  C_15
REMARK                            x       y       z     vdW  Elec       q    Type
REMARK                         _______ _______ _______ _____ _____    ______ ____
ROOT
ATOM      1  C   UNL     1       6.644   4.517  15.800  0.00  0.00    +0.000 A 
ATOM      2  N   UNL     1       5.424   4.218  16.077  0.00  0.00    +0.000 NA
ATOM      3  C   UNL     1       5.053   4.296  17.387  0.00  0.00    +0.000 A 
ATOM      4  C   UNL     1       5.930   4.568  18.355  0.00  0.00    +0.000 A 
ATOM      5  C   UNL     1       7.330   4.725  17.996  0.00  0.00    +0.000 A 
ATOM      6  O   UNL     1       8.185   4.807  18.869  0.00  0.00    +0.000 OA
ATOM      7  O   UNL     1       7.636   4.771  16.686  0.00  0.00    +0.000 OA
ENDROOT
BRANCH   3   8
ATOM      8  N   UNL     1       3.720   4.068  17.682  0.00  0.00    +0.000 N 
ATOM      9  C   UNL     1       2.804   5.082  17.946  0.00  0.00    +0.000 C 
ATOM     10  O   UNL     1       2.990   6.289  17.881  0.00  0.00    +0.000 OA
ATOM     11  C   UNL     1       1.501   4.477  18.366  0.00  0.00    +0.000 C 
ATOM     12  C   UNL     1       1.640   2.990  18.080  0.00  0.00    +0.000 C 
ATOM     13  C   UNL     1       3.069   2.775  17.531  0.00  0.00    +0.000 C 
ATOM     14  C   UNL     1       3.810   1.632  18.232  0.00  0.00    +0.000 C 
BRANCH  12  15
ATOM     15  O   UNL     1       1.353   2.249  19.267  0.00  0.00    +0.000 OA
ATOM     16  H   UNL     1       0.910   2.835  19.905  0.00  0.00    +0.000 HD
ENDBRANCH  12  15
ENDBRANCH   3   8
BRANCH   1  20
ATOM     17  C   UNL     1       7.180   4.375  11.982  0.00  0.00    +0.000 C 
ATOM     18  C   UNL     1       6.556   4.203  13.339  0.00  0.00    +0.000 C 
ATOM     19  C   UNL     1       5.186   3.578  13.378  0.00  0.00    +0.000 C 
ATOM     20  C   UNL     1       7.212   4.624  14.440  0.00  0.00    +0.000 C 
ENDBRANCH   1  20
TORSDOF 3
ENDMDL
MODEL 6
REMARK VINA RESULT:      -7.0      2.274      5.197
REMARK  Name = 
REMARK  6 active torsions:
REMARK  status: ('A' for Active; 'I' for Inactive)
REMARK    1  A    between atoms: C_1  and  C_2
REMARK    2  A    between atoms: C_2  and  C_3
REMARK    3  A    between atoms: C_4  and  C_5
REMARK    4  A    between atoms: C_7  and  N_8
REMARK    5  A    between atoms: C_12  and  O_13
REMARK    6  A    between atoms: C_14  and  C_15
REMARK                            x       y       z     vdW  Elec       q    Type
REMARK                         _______ _______ _______ _____ _____    ______ ____
ROOT
ATOM      1  C   UNL     1       2.505   5.490  19.633  0.00  0.00    +0.000 A 
ATOM      2  N   UNL     1       3.736   5.460  19.262  0.00  0.00    +0.000 NA
ATOM      3  C   UNL     1       4.065   4.562  18.290  0.00  0.00    +0.000 A 
ATOM      4  C   UNL     1       3.184   3.681  17.815  0.00  0.00    +0.000 A 
ATOM      5  C   UNL     1       1.853   3.648  18.400  0.00  0.00    +0.000 A 
ATOM      6  O   UNL     1       1.074   2.749  18.111  0.00  0.00    +0.000 OA
ATOM      7  O   UNL     1       1.526   4.632  19.260  0.00  0.00    +0.000 OA
ENDROOT
BRANCH   3   8
ATOM      8  N   UNL     1       5.367   4.589  17.818  0.00  0.00    +0.000 N 
ATOM      9  C   UNL     1       6.481   4.742  18.637  0.00  0.00    +0.000 C 
ATOM     10  O   UNL     1       6.506   4.789  19.860  0.00  0.00    +0.000 OA
ATOM     11  C   UNL     1       7.707   4.872  17.789  0.00  0.00    +0.000 C 
ATOM     12  C   UNL     1       7.255   4.523  16.379  0.00  0.00    +0.000 C 
ATOM     13  C   UNL     1       5.738   4.238  16.456  0.00  0.00    +0.000 C 
ATOM     14  C   UNL     1       4.937   4.991  15.390  0.00  0.00    +0.000 C 
BRANCH  12  15
ATOM     15  O   UNL     1       7.605   5.587  15.492  0.00  0.00    +0.000 OA
ATOM     16  H   UNL     1       8.446   5.369  15.053  0.00  0.00    +0.000 HD
ENDBRANCH  12  15
ENDBRANCH   3   8
BRANCH   1  20
ATOM     17  C   UNL     1       1.038   8.685  21.222  0.00  0.00    +0.000 C 
ATOM     18  C   UNL     1       1.674   7.752  20.229  0.00  0.00    +0.000 C 
ATOM     19  C   UNL     1       1.982   8.321  18.869  0.00  0.00    +0.000 C 
ATOM     20  C   UNL     1       1.915   6.469  20.570  0.00  0.00    +0.000 C 
ENDBRANCH   1  20
TORSDOF 3
ENDMDL
MODEL 7
REMARK VINA RESULT:      -6.9      2.500      5.224
REMARK  Name = 
REMARK  6 active torsions:
REMARK  status: ('A' for Active; 'I' for Inactive)
REMARK    1  A    between atoms: C_1  and  C_2
REMARK    2  A    between atoms: C_2  and  C_3
REMARK    3  A    between atoms: C_4  and  C_5
REMARK    4  A    between atoms: C_7  and  N_8
REMARK    5  A    between atoms: C_12  and  O_13
REMARK    6  A    between atoms: C_14  and  C_15
REMARK                            x       y       z     vdW  Elec       q    Type
REMARK                         _______ _______ _______ _____ _____    ______ ____
ROOT
ATOM      1  C   UNL     1       2.634   6.210  19.715  0.00  0.00    +0.000 A 
ATOM      2  N   UNL     1       3.819   6.139  19.220  0.00  0.00    +0.000 NA
ATOM      3  C   UNL     1       4.250   4.906  18.827  0.00  0.00    +0.000 A 
ATOM      4  C   UNL     1       3.527   3.805  19.038  0.00  0.00    +0.000 A 
ATOM      5  C   UNL     1       2.271   3.929  19.760  0.00  0.00    +0.000 A 
ATOM      6  O   UNL     1       1.664   2.927  20.119  0.00  0.00    +0.000 OA
ATOM      7  O   UNL     1       1.818   5.171  20.014  0.00  0.00    +0.000 OA
ENDROOT
BRANCH   3   8
ATOM      8  N   UNL     1       5.485   4.835  18.207  0.00  0.00    +0.000 N 
ATOM      9  C   UNL     1       6.691   5.070  18.862  0.00  0.00    +0.000 C 
ATOM     10  O   UNL     1       6.862   5.282  20.054  0.00  0.00    +0.000 OA
ATOM     11  C   UNL     1       7.808   5.053  17.866  0.00  0.00    +0.000 C 
ATOM     12  C   UNL     1       7.188   4.527  16.580  0.00  0.00    +0.000 C 
ATOM     13  C   UNL     1       5.689   4.294  16.872  0.00  0.00    +0.000 C 
ATOM     14  C   UNL     1       4.773   4.914  15.814  0.00  0.00    +0.000 C 
BRANCH  12  15
ATOM     15  O   UNL     1       7.439   5.451  15.520  0.00  0.00    +0.000 OA
ATOM     16  H   UNL     1       6.698   5.419  14.890  0.00  0.00    +0.000 HD
ENDBRANCH  12  15
ENDBRANCH   3   8
BRANCH   1  20
ATOM     17  C   UNL     1       0.962   9.686  19.627  0.00  0.00    +0.000 C 
ATOM     18  C   UNL     1       1.718   8.459  19.198  0.00  0.00    +0.000 C 
ATOM     19  C   UNL     1       2.177   8.415  17.765  0.00  0.00    +0.000 C 
ATOM     20  C   UNL     1       1.930   7.458  20.078  0.00  0.00    +0.000 C 
ENDBRANCH   1  20
TORSDOF 3
ENDMDL
MODEL 8
REMARK VINA RESULT:      -6.8      2.278      6.054
REMARK  Name = 
REMARK  6 active torsions:
REMARK  status: ('A' for Active; 'I' for Inactive)
REMARK    1  A    between atoms: C_1  and  C_2
REMARK    2  A    between atoms: C_2  and  C_3
REMARK    3  A    between atoms: C_4  and  C_5
REMARK    4  A    between atoms: C_7  and  N_8
REMARK    5  A    between atoms: C_12  and  O_13
REMARK    6  A    between atoms: C_14  and  C_15
REMARK                            x       y       z     vdW  Elec       q    Type
REMARK                         _______ _______ _______ _____ _____    ______ ____
ROOT
ATOM      1  C   UNL     1       2.775   5.127  20.071  0.00  0.00    +0.000 A 
ATOM      2  N   UNL     1       3.693   4.719  19.267  0.00  0.00    +0.000 NA
ATOM      3  C   UNL     1       4.158   5.620  18.356  0.00  0.00    +0.000 A 
ATOM      4  C   UNL     1       3.623   6.836  18.226  0.00  0.00    +0.000 A 
ATOM      5  C   UNL     1       2.472   7.176  19.047  0.00  0.00    +0.000 A 
ATOM      6  O   UNL     1       1.852   8.212  18.841  0.00  0.00    +0.000 OA
ATOM      7  O   UNL     1       2.126   6.315  20.023  0.00  0.00    +0.000 OA
ENDROOT
BRANCH   3   8
ATOM      8  N   UNL     1       5.210   5.219  17.550  0.00  0.00    +0.000 N 
ATOM      9  C   UNL     1       5.052   4.445  16.404  0.00  0.00    +0.000 C 
ATOM     10  O   UNL     1       4.003   4.079  15.891  0.00  0.00    +0.000 OA
ATOM     11  C   UNL     1       6.398   4.078  15.864  0.00  0.00    +0.000 C 
ATOM     12  C   UNL     1       7.388   4.923  16.650  0.00  0.00    +0.000 C 
ATOM     13  C   UNL     1       6.564   5.738  17.672  0.00  0.00    +0.000 C 
ATOM     14  C   UNL     1       7.126   5.653  19.093  0.00  0.00    +0.000 C 
BRANCH  12  15
ATOM     15  O   UNL     1       8.374   4.074  17.239  0.00  0.00    +0.000 OA
ATOM     16  H   UNL     1       8.467   3.272  16.695  0.00  0.00    +0.000 HD
ENDBRANCH  12  15
ENDBRANCH   3   8
BRANCH   1  20
ATOM     17  C   UNL     1       1.058   2.455  22.261  0.00  0.00    +0.000 C 
ATOM     18  C   UNL     1       1.554   3.202  21.054  0.00  0.00    +0.000 C 
ATOM     19  C   UNL     1       1.280   2.576  19.712  0.00  0.00    +0.000 C 
ATOM     20  C   UNL     1       2.230   4.359  21.211  0.00  0.00    +0.000 C 
ENDBRANCH   1  20
TORSDOF 3
ENDMDL
MODEL 9
REMARK VINA RESULT:      -6.7      4.012      5.755
REMARK  Name = 
REMARK  6 active torsions:
REMARK  status: ('A' for Active; 'I' for Inactive)
REMARK    1  A    between atoms: C_1  and  C_2
REMARK    2  A    between atoms: C_2  and  C_3
REMARK    3  A    between atoms: C_4  and  C_5
REMARK    4  A    between atoms: C_7  and  N_8
REMARK    5  A    between atoms: C_12  and  O_13
REMARK    6  A    between atoms: C_14  and  C_15
REMARK                            x       y       z     vdW  Elec       q    Type
REMARK                         _______ _______ _______ _____ _____    ______ ____
ROOT
ATOM      1  C   UNL     1       1.756   7.935  20.197  0.00  0.00    +0.000 A 
ATOM      2  N   UNL     1       2.081   6.737  19.859  0.00  0.00    +0.000 NA
ATOM      3  C   UNL     1       2.613   6.572  18.615  0.00  0.00    +0.000 A 
ATOM      4  C   UNL     1       2.701   7.578  17.744  0.00  0.00    +0.000 A 
ATOM      5  C   UNL     1       2.155   8.872  18.124  0.00  0.00    +0.000 A 
ATOM      6  O   UNL     1       2.064   9.770  17.296  0.00  0.00    +0.000 OA
ATOM      7  O   UNL     1       1.759   9.030  19.401  0.00  0.00    +0.000 OA
ENDROOT
BRANCH   3   8
ATOM      8  N   UNL     1       3.053   5.303  18.278  0.00  0.00    +0.000 N 
ATOM      9  C   UNL     1       2.222   4.308  17.773  0.00  0.00    +0.000 C 
ATOM     10  O   UNL     1       1.040   4.406  17.472  0.00  0.00    +0.000 OA
ATOM     11  C   UNL     1       2.991   3.029  17.659  0.00  0.00    +0.000 C 
ATOM     12  C   UNL     1       4.442   3.413  17.903  0.00  0.00    +0.000 C 
ATOM     13  C   UNL     1       4.457   4.930  18.199  0.00  0.00    +0.000 C 
ATOM     14  C   UNL     1       5.256   5.283  19.456  0.00  0.00    +0.000 C 
BRANCH  12  15
ATOM     15  O   UNL     1       4.976   2.608  18.955  0.00  0.00    +0.000 OA
ATOM     16  H   UNL     1       4.461   2.765  19.766  0.00  0.00    +0.000 HD
ENDBRANCH  12  15
ENDBRANCH   3   8
BRANCH   1  20
ATOM     17  C   UNL     1      -0.207   9.527  23.113  0.00  0.00    +0.000 C 
ATOM     18  C   UNL     1       0.235   9.174  21.720  0.00  0.00    +0.000 C 
ATOM     19  C   UNL     1      -0.568   9.758  20.588  0.00  0.00    +0.000 C 
ATOM     20  C   UNL     1       1.288   8.351  21.537  0.00  0.00    +0.000 C 
ENDBRANCH   1  20
TORSDOF 3
ENDMDL
