MODEL 1
REMARK VINA RESULT:      -7.6      0.000      0.000
REMARK  Name = 
REMARK  8 active torsions:
REMARK  status: ('A' for Active; 'I' for Inactive)
REMARK    1  A    between atoms: C_1  and  C_2
REMARK    2  A    between atoms: C_11  and  C_12
REMARK    3  A    between atoms: C_12  and  C_13
REMARK    4  A    between atoms: C_13  and  N_14
REMARK    5  A    between atoms: N_14  and  C_15
REMARK    6  A    between atoms: C_15  and  C_16
REMARK    7  A    between atoms: C_16  and  C_17
REMARK    8  A    between atoms: C_17  and  C_18
REMARK                            x       y       z     vdW  Elec       q    Type
REMARK                         _______ _______ _______ _____ _____    ______ ____
ROOT
ATOM      1  C   UNL     1       4.488   6.977  16.343  0.00  0.00    +0.000 C 
ENDROOT
BRANCH   1  12
ATOM      2  C   UNL     1       4.726   3.308  19.006  0.00  0.00    +0.000 C 
ATOM      3  C   UNL     1       3.613   3.435  19.984  0.00  0.00    +0.000 A 
ATOM      4  N   UNL     1       3.268   2.492  20.843  0.00  0.00    +0.000 NA
ATOM      5  C   UNL     1       2.262   3.022  21.599  0.00  0.00    +0.000 A 
ATOM      6  C   UNL     1       1.986   4.307  21.208  0.00  0.00    +0.000 A 
ATOM      7  N   UNL     1       2.831   4.573  20.149  0.00  0.00    +0.000 N 
ATOM      8  C   UNL     1       2.863   5.786  19.402  0.00  0.00    +0.000 A 
ATOM      9  N   UNL     1       2.102   6.816  19.828  0.00  0.00    +0.000 NA
ATOM     10  C   UNL     1       2.165   7.950  19.105  0.00  0.00    +0.000 A 
ATOM     11  C   UNL     1       2.930   8.091  17.972  0.00  0.00    +0.000 A 
ATOM     12  C   UNL     1       3.658   6.985  17.596  0.00  0.00    +0.000 A 
ATOM     13  N   UNL     1       3.643   5.837  18.305  0.00  0.00    +0.000 NA
ENDBRANCH   1  12
BRANCH   1  14
ATOM     14  C   UNL     1       5.919   6.504  16.640  0.00  0.00    +0.000 C 
BRANCH  14  15
ATOM     15  N   UNL     1       6.797   7.543  17.190  0.00  0.00    +0.000 NA
ATOM     16  H   UNL     1       6.246   8.254  17.670  0.00  0.00    +0.000 HD
BRANCH  15  17
ATOM     17  C   UNL     1       7.804   6.992  18.097  0.00  0.00    +0.000 C 
BRANCH  17  18
ATOM     18  C   UNL     1       8.527   8.113  18.837  0.00  0.00    +0.000 C 
BRANCH  18  19
ATOM     19  C   UNL     1       8.438   9.410  18.029  0.00  0.00    +0.000 C 
BRANCH  19  20
ATOM     20  C   UNL     1       9.243  10.513  18.661  0.00  0.00    +0.000 A 
ATOM     21  C   UNL     1       9.389  10.578  20.056  0.00  0.00    +0.000 A 
ATOM     22  C   UNL     1      10.151  11.589  20.643  0.00  0.00    +0.000 A 
ATOM     23  C   UNL     1      10.778  12.543  19.842  0.00  0.00    +0.000 A 
ATOM     24  C   UNL     1      10.640  12.474  18.461  0.00  0.00    +0.000 A 
ATOM     25  F   UNL     1      11.246  13.387  17.693  0.00  0.00    +0.000 F 
ATOM     26  C   UNL     1       9.882  11.472  17.865  0.00  0.00    +0.000 A 
ENDBRANCH  19  20
ENDBRANCH  18  19
ENDBRANCH  17  18
ENDBRANCH  15  17
ENDBRANCH  14  15
ENDBRANCH   1  14
TORSDOF 7
ENDMDL
MODEL 2
REMARK VINA RESULT:      -7.5      1.480      3.250
REMARK  Name = 
REMARK  8 active torsions:
REMARK  status: ('A' for Active; 'I' for Inactive)
REMARK    1  A    between atoms: C_1  and  C_2
REMARK    2  A    between atoms: C_11  and  C_12
REMARK    3  A    between atoms: C_12  and  C_13
REMARK    4  A    between atoms: C_13  and  N_14
REMARK    5  A    between atoms: N_14  and  C_15
REMARK    6  A    between atoms: C_15  and  C_16
REMARK    7  A    between atoms: C_16  and  C_17
REMARK    8  A    between atoms: C_17  and  C_18
REMARK                            x       y       z     vdW  Elec       q    Type
REMARK                         _______ _______ _______ _____ _____    ______ ____
ROOT
ATOM      1  C   UNL     1       5.681   4.721  16.942  0.00  0.00    +0.000 C 
ENDROOT
BRANCH   1  12
ATOM      2  C   UNL     1       2.815   8.189  17.546  0.00  0.00    +0.000 C 
ATOM      3  C   UNL     1       2.240   8.017  18.907  0.00  0.00    +0.000 A 
ATOM      4  N   UNL     1       1.463   8.904  19.502  0.00  0.00    +0.000 NA
ATOM      5  C   UNL     1       1.094   8.343  20.691  0.00  0.00    +0.000 A 
ATOM      6  C   UNL     1       1.644   7.094  20.830  0.00  0.00    +0.000 A 
ATOM      7  N   UNL     1       2.407   6.886  19.698  0.00  0.00    +0.000 N 
ATOM      8  C   UNL     1       3.194   5.728  19.435  0.00  0.00    +0.000 A 
ATOM      9  N   UNL     1       3.099   4.687  20.288  0.00  0.00    +0.000 NA
ATOM     10  C   UNL     1       3.848   3.605  20.003  0.00  0.00    +0.000 A 
ATOM     11  C   UNL     1       4.698   3.527  18.925  0.00  0.00    +0.000 A 
ATOM     12  C   UNL     1       4.750   4.642  18.119  0.00  0.00    +0.000 A 
ATOM     13  N   UNL     1       3.998   5.738  18.354  0.00  0.00    +0.000 NA
ENDBRANCH   1  12
BRANCH   1  14
ATOM     14  C   UNL     1       7.126   4.963  17.405  0.00  0.00    +0.000 C 
BRANCH  14  15
ATOM     15  N   UNL     1       7.276   6.060  18.368  0.00  0.00    +0.000 NA
ATOM     16  H   UNL     1       8.075   5.888  18.977  0.00  0.00    +0.000 HD
BRANCH  15  17
ATOM     17  C   UNL     1       7.418   7.358  17.709  0.00  0.00    +0.000 C 
BRANCH  17  18
ATOM     18  C   UNL     1       8.396   8.242  18.477  0.00  0.00    +0.000 C 
BRANCH  18  19
ATOM     19  C   UNL     1       8.368   9.663  17.909  0.00  0.00    +0.000 C 
BRANCH  19  20
ATOM     20  C   UNL     1       9.390  10.546  18.573  0.00  0.00    +0.000 A 
ATOM     21  C   UNL     1      10.441  11.101  17.827  0.00  0.00    +0.000 A 
ATOM     22  C   UNL     1      11.380  11.935  18.437  0.00  0.00    +0.000 A 
ATOM     23  C   UNL     1      11.275  12.225  19.796  0.00  0.00    +0.000 A 
ATOM     24  C   UNL     1      10.229  11.681  20.533  0.00  0.00    +0.000 A 
ATOM     25  F   UNL     1      10.125  11.965  21.837  0.00  0.00    +0.000 F 
ATOM     26  C   UNL     1       9.289  10.848  19.937  0.00  0.00    +0.000 A 
ENDBRANCH  19  20
ENDBRANCH  18  19
ENDBRANCH  17  18
ENDBRANCH  15  17
ENDBRANCH  14  15
ENDBRANCH   1  14
TORSDOF 7
ENDMDL
MODEL 3
REMARK VINA RESULT:      -7.5      4.151      6.794
REMARK  Name = 
REMARK  8 active torsions:
REMARK  status: ('A' for Active; 'I' for Inactive)
REMARK    1  A    between atoms: C_1  and  C_2
REMARK    2  A    between atoms: C_11  and  C_12
REMARK    3  A    between atoms: C_12  and  C_13
REMARK    4  A    between atoms: C_13  and  N_14
REMARK    5  A    between atoms: N_14  and  C_15
REMARK    6  A    between atoms: C_15  and  C_16
REMARK    7  A    between atoms: C_16  and  C_17
REMARK    8  A    between atoms: C_17  and  C_18
REMARK                            x       y       z     vdW  Elec       q    Type
REMARK                         _______ _______ _______ _____ _____    ______ ____
ROOT
ATOM      1  C   UNL     1       1.925   5.336  20.735  0.00  0.00    +0.000 C 
ENDROOT
BRANCH   1  12
ATOM      2  C   UNL     1       0.671   9.252  22.658  0.00  0.00    +0.000 C 
ATOM      3  C   UNL     1       0.559  10.238  21.549  0.00  0.00    +0.000 A 
ATOM      4  N   UNL     1       0.083  11.463  21.691  0.00  0.00    +0.000 NA
ATOM      5  C   UNL     1       0.216  12.061  20.471  0.00  0.00    +0.000 A 
ATOM      6  C   UNL     1       0.784  11.199  19.567  0.00  0.00    +0.000 A 
ATOM      7  N   UNL     1       0.983  10.013  20.245  0.00  0.00    +0.000 N 
ATOM      8  C   UNL     1       1.519   8.819  19.680  0.00  0.00    +0.000 A 
ATOM      9  N   UNL     1       1.993   8.870  18.418  0.00  0.00    +0.000 NA
ATOM     10  C   UNL     1       2.502   7.727  17.920  0.00  0.00    +0.000 A 
ATOM     11  C   UNL     1       2.536   6.541  18.614  0.00  0.00    +0.000 A 
ATOM     12  C   UNL     1       2.011   6.573  19.887  0.00  0.00    +0.000 A 
ATOM     13  N   UNL     1       1.513   7.703  20.433  0.00  0.00    +0.000 NA
ENDBRANCH   1  12
BRANCH   1  14
ATOM     14  C   UNL     1       1.131   4.235  20.016  0.00  0.00    +0.000 C 
BRANCH  14  15
ATOM     15  N   UNL     1       1.924   3.055  19.655  0.00  0.00    +0.000 NA
ATOM     16  H   UNL     1       2.221   3.112  18.682  0.00  0.00    +0.000 HD
BRANCH  15  17
ATOM     17  C   UNL     1       3.088   2.885  20.525  0.00  0.00    +0.000 C 
BRANCH  17  18
ATOM     18  C   UNL     1       4.367   2.811  19.696  0.00  0.00    +0.000 C 
BRANCH  18  19
ATOM     19  C   UNL     1       4.061   3.153  18.236  0.00  0.00    +0.000 C 
BRANCH  19  20
ATOM     20  C   UNL     1       5.008   4.191  17.699  0.00  0.00    +0.000 A 
ATOM     21  C   UNL     1       4.891   4.645  16.376  0.00  0.00    +0.000 A 
ATOM     22  C   UNL     1       5.757   5.622  15.882  0.00  0.00    +0.000 A 
ATOM     23  C   UNL     1       6.745   6.158  16.706  0.00  0.00    +0.000 A 
ATOM     24  C   UNL     1       6.856   5.714  18.018  0.00  0.00    +0.000 A 
ATOM     25  F   UNL     1       7.802   6.233  18.811  0.00  0.00    +0.000 F 
ATOM     26  C   UNL     1       6.000   4.741  18.521  0.00  0.00    +0.000 A 
ENDBRANCH  19  20
ENDBRANCH  18  19
ENDBRANCH  17  18
ENDBRANCH  15  17
ENDBRANCH  14  15
ENDBRANCH   1  14
TORSDOF 7
ENDMDL
MODEL 4
REMARK VINA RESULT:      -7.5      5.008      7.519
REMARK  Name = 
REMARK  8 active torsions:
REMARK  status: ('A' for Active; 'I' for Inactive)
REMARK    1  A    between atoms: C_1  and  C_2
REMARK    2  A    between atoms: C_11  and  C_12
REMARK    3  A    between atoms: C_12  and  C_13
REMARK    4  A    between atoms: C_13  and  N_14
REMARK    5  A    between atoms: N_14  and  C_15
REMARK    6  A    between atoms: C_15  and  C_16
REMARK    7  A    between atoms: C_16  and  C_17
REMARK    8  A    between atoms: C_17  and  C_18
REMARK                            x       y       z     vdW  Elec       q    Type
REMARK                         _______ _______ _______ _____ _____    ______ ____
ROOT
ATOM      1  C   UNL     1       2.643   6.356  19.992  0.00  0.00    +0.000 C 
ENDROOT
BRANCH   1  12
ATOM      2  C   UNL     1       0.577   9.228  22.837  0.00  0.00    +0.000 C 
ATOM      3  C   UNL     1      -0.087  10.248  21.983  0.00  0.00    +0.000 A 
ATOM      4  N   UNL     1      -0.906  11.180  22.439  0.00  0.00    +0.000 NA
ATOM      5  C   UNL     1      -1.238  11.949  21.362  0.00  0.00    +0.000 A 
ATOM      6  C   UNL     1      -0.614  11.493  20.229  0.00  0.00    +0.000 A 
ATOM      7  N   UNL     1       0.107  10.380  20.613  0.00  0.00    +0.000 N 
ATOM      8  C   UNL     1       0.882   9.558  19.744  0.00  0.00    +0.000 A 
ATOM      9  N   UNL     1       1.039   9.955  18.464  0.00  0.00    +0.000 NA
ATOM     10  C   UNL     1       1.786   9.161  17.675  0.00  0.00    +0.000 A 
ATOM     11  C   UNL     1       2.359   7.985  18.098  0.00  0.00    +0.000 A 
ATOM     12  C   UNL     1       2.130   7.644  19.413  0.00  0.00    +0.000 A 
ATOM     13  N   UNL     1       1.408   8.424  20.244  0.00  0.00    +0.000 NA
ENDBRANCH   1  12
BRANCH   1  14
ATOM     14  C   UNL     1       1.538   5.633  20.777  0.00  0.00    +0.000 C 
BRANCH  14  15
ATOM     15  N   UNL     1       1.051   4.404  20.141  0.00  0.00    +0.000 NA
ATOM     16  H   UNL     1       1.474   4.290  19.221  0.00  0.00    +0.000 HD
BRANCH  15  17
ATOM     17  C   UNL     1       1.306   3.220  20.961  0.00  0.00    +0.000 C 
BRANCH  17  18
ATOM     18  C   UNL     1       2.734   2.724  20.752  0.00  0.00    +0.000 C 
BRANCH  18  19
ATOM     19  C   UNL     1       2.932   2.311  19.292  0.00  0.00    +0.000 C 
BRANCH  19  20
ATOM     20  C   UNL     1       3.876   3.240  18.577  0.00  0.00    +0.000 A 
ATOM     21  C   UNL     1       3.663   3.572  17.230  0.00  0.00    +0.000 A 
ATOM     22  C   UNL     1       4.527   4.448  16.571  0.00  0.00    +0.000 A 
ATOM     23  C   UNL     1       5.610   5.003  17.252  0.00  0.00    +0.000 A 
ATOM     24  C   UNL     1       5.816   4.679  18.587  0.00  0.00    +0.000 A 
ATOM     25  F   UNL     1       6.853   5.217  19.242  0.00  0.00    +0.000 F 
ATOM     26  C   UNL     1       4.963   3.807  19.254  0.00  0.00    +0.000 A 
ENDBRANCH  19  20
ENDBRANCH  18  19
ENDBRANCH  17  18
ENDBRANCH  15  17
ENDBRANCH  14  15
ENDBRANCH   1  14
TORSDOF 7
ENDMDL
MODEL 5
REMARK VINA RESULT:      -7.4      1.511      2.091
REMARK  Name = 
REMARK  8 active torsions:
REMARK  status: ('A' for Active; 'I' for Inactive)
REMARK    1  A    between atoms: C_1  and  C_2
REMARK    2  A    between atoms: C_11  and  C_12
REMARK    3  A    between atoms: C_12  and  C_13
REMARK    4  A    between atoms: C_13  and  N_14
REMARK    5  A    between atoms: N_14  and  C_15
REMARK    6  A    between atoms: C_15  and  C_16
REMARK    7  A    between atoms: C_16  and  C_17
REMARK    8  A    between atoms: C_17  and  C_18
REMARK                            x       y       z     vdW  Elec       q    Type
REMARK                         _______ _______ _______ _____ _____    ______ ____
ROOT
ATOM      1  C   UNL     1       6.883   5.434  17.586  0.00  0.00    +0.000 C 
ENDROOT
BRANCH   1  12
ATOM      2  C   UNL     1       4.439   2.461  19.993  0.00  0.00    +0.000 C 
ATOM      3  C   UNL     1       3.014   2.825  19.773  0.00  0.00    +0.000 A 
ATOM      4  N   UNL     1       1.990   2.107  20.199  0.00  0.00    +0.000 NA
ATOM      5  C   UNL     1       0.870   2.812  19.862  0.00  0.00    +0.000 A 
ATOM      6  C   UNL     1       1.205   3.979  19.225  0.00  0.00    +0.000 A 
ATOM      7  N   UNL     1       2.583   3.984  19.137  0.00  0.00    +0.000 N 
ATOM      8  C   UNL     1       3.367   4.995  18.510  0.00  0.00    +0.000 A 
ATOM      9  N   UNL     1       2.740   6.107  18.073  0.00  0.00    +0.000 NA
ATOM     10  C   UNL     1       3.512   7.047  17.497  0.00  0.00    +0.000 A 
ATOM     11  C   UNL     1       4.869   6.915  17.317  0.00  0.00    +0.000 A 
ATOM     12  C   UNL     1       5.424   5.740  17.773  0.00  0.00    +0.000 A 
ATOM     13  N   UNL     1       4.690   4.783  18.378  0.00  0.00    +0.000 NA
ENDBRANCH   1  12
BRANCH   1  14
ATOM     14  C   UNL     1       7.683   5.797  18.846  0.00  0.00    +0.000 C 
BRANCH  14  15
ATOM     15  N   UNL     1       8.264   7.144  18.827  0.00  0.00    +0.000 NA
ATOM     16  H   UNL     1       9.275   7.094  18.943  0.00  0.00    +0.000 HD
BRANCH  15  17
ATOM     17  C   UNL     1       7.935   7.869  17.600  0.00  0.00    +0.000 C 
BRANCH  17  18
ATOM     18  C   UNL     1       8.273   9.349  17.749  0.00  0.00    +0.000 C 
BRANCH  18  19
ATOM     19  C   UNL     1       8.977   9.590  19.087  0.00  0.00    +0.000 C 
BRANCH  19  20
ATOM     20  C   UNL     1       9.651  10.935  19.124  0.00  0.00    +0.000 A 
ATOM     21  C   UNL     1      10.123  11.527  17.942  0.00  0.00    +0.000 A 
ATOM     22  C   UNL     1      10.731  12.783  17.972  0.00  0.00    +0.000 A 
ATOM     23  C   UNL     1      10.870  13.461  19.182  0.00  0.00    +0.000 A 
ATOM     24  C   UNL     1      10.396  12.877  20.351  0.00  0.00    +0.000 A 
ATOM     25  F   UNL     1      10.526  13.531  21.513  0.00  0.00    +0.000 F 
ATOM     26  C   UNL     1       9.790  11.627  20.334  0.00  0.00    +0.000 A 
ENDBRANCH  19  20
ENDBRANCH  18  19
ENDBRANCH  17  18
ENDBRANCH  15  17
ENDBRANCH  14  15
ENDBRANCH   1  14
TORSDOF 7
ENDMDL
MODEL 6
REMARK VINA RESULT:      -7.3      4.590      7.787
REMARK  Name = 
REMARK  8 active torsions:
REMARK  status: ('A' for Active; 'I' for Inactive)
REMARK    1  A    between atoms: C_1  and  C_2
REMARK    2  A    between atoms: C_11  and  C_12
REMARK    3  A    between atoms: C_12  and  C_13
REMARK    4  A    between atoms: C_13  and  N_14
REMARK    5  A    between atoms: N_14  and  C_15
REMARK    6  A    between atoms: C_15  and  C_16
REMARK    7  A    between atoms: C_16  and  C_17
REMARK    8  A    between atoms: C_17  and  C_18
REMARK                            x       y       z     vdW  Elec       q    Type
REMARK                         _______ _______ _______ _____ _____    ______ ____
ROOT
ATOM      1  C   UNL     1       3.098   6.053  19.973  0.00  0.00    +0.000 C 
ENDROOT
BRANCH   1  12
ATOM      2  C   UNL     1       6.913   6.344  17.530  0.00  0.00    +0.000 C 
ATOM      3  C   UNL     1       6.664   5.572  16.283  0.00  0.00    +0.000 A 
ATOM      4  N   UNL     1       7.493   5.535  15.255  0.00  0.00    +0.000 NA
ATOM      5  C   UNL     1       6.939   4.670  14.356  0.00  0.00    +0.000 A 
ATOM      6  C   UNL     1       5.758   4.163  14.835  0.00  0.00    +0.000 A 
ATOM      7  N   UNL     1       5.558   4.760  16.063  0.00  0.00    +0.000 N 
ATOM      8  C   UNL     1       4.427   4.555  16.907  0.00  0.00    +0.000 A 
ATOM      9  N   UNL     1       3.531   3.611  16.551  0.00  0.00    +0.000 NA
ATOM     10  C   UNL     1       2.481   3.436  17.375  0.00  0.00    +0.000 A 
ATOM     11  C   UNL     1       2.276   4.174  18.517  0.00  0.00    +0.000 A 
ATOM     12  C   UNL     1       3.227   5.131  18.793  0.00  0.00    +0.000 A 
ATOM     13  N   UNL     1       4.307   5.322  18.007  0.00  0.00    +0.000 NA
ENDBRANCH   1  12
BRANCH   1  14
ATOM     14  C   UNL     1       2.163   7.227  19.649  0.00  0.00    +0.000 C 
BRANCH  14  15
ATOM     15  N   UNL     1       2.575   8.025  18.488  0.00  0.00    +0.000 NA
ATOM     16  H   UNL     1       2.980   7.424  17.772  0.00  0.00    +0.000 HD
BRANCH  15  17
ATOM     17  C   UNL     1       1.465   8.796  17.927  0.00  0.00    +0.000 C 
BRANCH  17  18
ATOM     18  C   UNL     1       1.302  10.117  18.673  0.00  0.00    +0.000 C 
BRANCH  18  19
ATOM     19  C   UNL     1      -0.186  10.432  18.851  0.00  0.00    +0.000 C 
BRANCH  19  20
ATOM     20  C   UNL     1      -0.518  10.743  20.285  0.00  0.00    +0.000 A 
ATOM     21  C   UNL     1      -1.307  11.858  20.607  0.00  0.00    +0.000 A 
ATOM     22  C   UNL     1      -1.632  12.137  21.935  0.00  0.00    +0.000 A 
ATOM     23  C   UNL     1      -1.176  11.302  22.954  0.00  0.00    +0.000 A 
ATOM     24  C   UNL     1      -0.401  10.194  22.635  0.00  0.00    +0.000 A 
ATOM     25  F   UNL     1       0.033   9.390  23.614  0.00  0.00    +0.000 F 
ATOM     26  C   UNL     1      -0.070   9.907  21.316  0.00  0.00    +0.000 A 
ENDBRANCH  19  20
ENDBRANCH  18  19
ENDBRANCH  17  18
ENDBRANCH  15  17
ENDBRANCH  14  15
ENDBRANCH   1  14
TORSDOF 7
ENDMDL
MODEL 7
REMARK VINA RESULT:      -7.3      1.216      1.627
REMARK  Name = 
REMARK  8 active torsions:
REMARK  status: ('A' for Active; 'I' for Inactive)
REMARK    1  A    between atoms: C_1  and  C_2
REMARK    2  A    between atoms: C_11  and  C_12
REMARK    3  A    between atoms: C_12  and  C_13
REMARK    4  A    between atoms: C_13  and  N_14
REMARK    5  A    between atoms: N_14  and  C_15
REMARK    6  A    between atoms: C_15  and  C_16
REMARK    7  A    between atoms: C_16  and  C_17
REMARK    8  A    between atoms: C_17  and  C_18
REMARK                            x       y       z     vdW  Elec       q    Type
REMARK                         _______ _______ _______ _____ _____    ______ ____
ROOT
ATOM      1  C   UNL     1       5.430   5.457  16.217  0.00  0.00    +0.000 C 
ENDROOT
BRANCH   1  12
ATOM      2  C   UNL     1       4.510   2.587  19.611  0.00  0.00    +0.000 C 
ATOM      3  C   UNL     1       3.289   3.114  20.277  0.00  0.00    +0.000 A 
ATOM      4  N   UNL     1       2.630   2.478  21.230  0.00  0.00    +0.000 NA
ATOM      5  C   UNL     1       1.627   3.319  21.619  0.00  0.00    +0.000 A 
ATOM      6  C   UNL     1       1.671   4.489  20.905  0.00  0.00    +0.000 A 
ATOM      7  N   UNL     1       2.720   4.355  20.017  0.00  0.00    +0.000 N 
ATOM      8  C   UNL     1       3.108   5.323  19.045  0.00  0.00    +0.000 A 
ATOM      9  N   UNL     1       2.493   6.524  19.062  0.00  0.00    +0.000 NA
ATOM     10  C   UNL     1       2.892   7.417  18.138  0.00  0.00    +0.000 A 
ATOM     11  C   UNL     1       3.853   7.157  17.190  0.00  0.00    +0.000 A 
ATOM     12  C   UNL     1       4.413   5.900  17.231  0.00  0.00    +0.000 A 
ATOM     13  N   UNL     1       4.060   4.983  18.156  0.00  0.00    +0.000 NA
ENDBRANCH   1  12
BRANCH   1  14
ATOM     14  C   UNL     1       6.847   5.508  16.806  0.00  0.00    +0.000 C 
BRANCH  14  15
ATOM     15  N   UNL     1       7.084   6.635  17.716  0.00  0.00    +0.000 NA
ATOM     16  H   UNL     1       7.559   6.315  18.559  0.00  0.00    +0.000 HD
BRANCH  15  17
ATOM     17  C   UNL     1       7.853   7.704  17.081  0.00  0.00    +0.000 C 
BRANCH  17  18
ATOM     18  C   UNL     1       7.753   8.990  17.896  0.00  0.00    +0.000 C 
BRANCH  18  19
ATOM     19  C   UNL     1       8.877   9.037  18.934  0.00  0.00    +0.000 C 
BRANCH  19  20
ATOM     20  C   UNL     1       9.363  10.443  19.161  0.00  0.00    +0.000 A 
ATOM     21  C   UNL     1       9.700  11.264  18.073  0.00  0.00    +0.000 A 
ATOM     22  C   UNL     1      10.133  12.574  18.281  0.00  0.00    +0.000 A 
ATOM     23  C   UNL     1      10.230  13.078  19.577  0.00  0.00    +0.000 A 
ATOM     24  C   UNL     1       9.890  12.268  20.653  0.00  0.00    +0.000 A 
ATOM     25  F   UNL     1       9.978  12.754  21.897  0.00  0.00    +0.000 F 
ATOM     26  C   UNL     1       9.459  10.961  20.459  0.00  0.00    +0.000 A 
ENDBRANCH  19  20
ENDBRANCH  18  19
ENDBRANCH  17  18
ENDBRANCH  15  17
ENDBRANCH  14  15
ENDBRANCH   1  14
TORSDOF 7
ENDMDL
MODEL 8
REMARK VINA RESULT:      -7.3      4.798      7.377
REMARK  Name = 
REMARK  8 active torsions:
REMARK  status: ('A' for Active; 'I' for Inactive)
REMARK    1  A    between atoms: C_1  and  C_2
REMARK    2  A    between atoms: C_11  and  C_12
REMARK    3  A    between atoms: C_12  and  C_13
REMARK    4  A    between atoms: C_13  and  N_14
REMARK    5  A    between atoms: N_14  and  C_15
REMARK    6  A    between atoms: C_15  and  C_16
REMARK    7  A    between atoms: C_16  and  C_17
REMARK    8  A    between atoms: C_17  and  C_18
REMARK                            x       y       z     vdW  Elec       q    Type
REMARK                         _______ _______ _______ _____ _____    ______ ____
ROOT
ATOM      1  C   UNL     1       2.327   4.450  20.980  0.00  0.00    +0.000 C 
ENDROOT
BRANCH   1  12
ATOM      2  C   UNL     1       6.417   5.430  19.273  0.00  0.00    +0.000 C 
ATOM      3  C   UNL     1       6.400   4.955  17.863  0.00  0.00    +0.000 A 
ATOM      4  N   UNL     1       7.366   5.184  16.991  0.00  0.00    +0.000 NA
ATOM      5  C   UNL     1       7.005   4.528  15.850  0.00  0.00    +0.000 A 
ATOM      6  C   UNL     1       5.807   3.882  16.019  0.00  0.00    +0.000 A 
ATOM      7  N   UNL     1       5.395   4.175  17.304  0.00  0.00    +0.000 N 
ATOM      8  C   UNL     1       4.174   3.742  17.899  0.00  0.00    +0.000 A 
ATOM      9  N   UNL     1       3.405   2.872  17.211  0.00  0.00    +0.000 NA
ATOM     10  C   UNL     1       2.265   2.476  17.807  0.00  0.00    +0.000 A 
ATOM     11  C   UNL     1       1.851   2.925  19.038  0.00  0.00    +0.000 A 
ATOM     12  C   UNL     1       2.684   3.828  19.660  0.00  0.00    +0.000 A 
ATOM     13  N   UNL     1       3.848   4.232  19.109  0.00  0.00    +0.000 NA
ENDBRANCH   1  12
BRANCH   1  14
ATOM     14  C   UNL     1       1.645   5.811  20.776  0.00  0.00    +0.000 C 
BRANCH  14  15
ATOM     15  N   UNL     1       2.429   6.767  19.987  0.00  0.00    +0.000 NA
ATOM     16  H   UNL     1       2.547   6.427  19.033  0.00  0.00    +0.000 HD
BRANCH  15  17
ATOM     17  C   UNL     1       1.823   8.098  19.972  0.00  0.00    +0.000 C 
BRANCH  17  18
ATOM     18  C   UNL     1       1.241   8.434  21.342  0.00  0.00    +0.000 C 
BRANCH  18  19
ATOM     19  C   UNL     1      -0.163   9.023  21.179  0.00  0.00    +0.000 C 
BRANCH  19  20
ATOM     20  C   UNL     1      -0.131  10.342  20.455  0.00  0.00    +0.000 A 
ATOM     21  C   UNL     1       0.691  11.383  20.911  0.00  0.00    +0.000 A 
ATOM     22  C   UNL     1       0.737  12.601  20.231  0.00  0.00    +0.000 A 
ATOM     23  C   UNL     1      -0.035  12.788  19.085  0.00  0.00    +0.000 A 
ATOM     24  C   UNL     1      -0.844  11.754  18.630  0.00  0.00    +0.000 A 
ATOM     25  F   UNL     1      -1.581  11.932  17.526  0.00  0.00    +0.000 F 
ATOM     26  C   UNL     1      -0.899  10.538  19.300  0.00  0.00    +0.000 A 
ENDBRANCH  19  20
ENDBRANCH  18  19
ENDBRANCH  17  18
ENDBRANCH  15  17
ENDBRANCH  14  15
ENDBRANCH   1  14
TORSDOF 7
ENDMDL
MODEL 9
REMARK VINA RESULT:      -7.2      3.272      5.851
REMARK  Name = 
REMARK  8 active torsions:
REMARK  status: ('A' for Active; 'I' for Inactive)
REMARK    1  A    between atoms: C_1  and  C_2
REMARK    2  A    between atoms: C_11  and  C_12
REMARK    3  A    between atoms: C_12  and  C_13
REMARK    4  A    between atoms: C_13  and  N_14
REMARK    5  A    between atoms: N_14  and  C_15
REMARK    6  A    between atoms: C_15  and  C_16
REMARK    7  A    between atoms: C_16  and  C_17
REMARK    8  A    between atoms: C_17  and  C_18
REMARK                            x       y       z     vdW  Elec       q    Type
REMARK                         _______ _______ _______ _____ _____    ______ ____
ROOT
ATOM      1  C   UNL     1       2.604   5.310  20.189  0.00  0.00    +0.000 C 
ENDROOT
BRANCH   1  12
ATOM      2  C   UNL     1       0.065   8.741  21.735  0.00  0.00    +0.000 C 
ATOM      3  C   UNL     1      -0.007   9.732  20.628  0.00  0.00    +0.000 A 
ATOM      4  N   UNL     1      -0.771  10.810  20.645  0.00  0.00    +0.000 NA
ATOM      5  C   UNL     1      -0.496  11.484  19.490  0.00  0.00    +0.000 A 
ATOM      6  C   UNL     1       0.451  10.820  18.754  0.00  0.00    +0.000 A 
ATOM      7  N   UNL     1       0.753   9.675  19.465  0.00  0.00    +0.000 N 
ATOM      8  C   UNL     1       1.667   8.662  19.051  0.00  0.00    +0.000 A 
ATOM      9  N   UNL     1       2.400   8.883  17.940  0.00  0.00    +0.000 NA
ATOM     10  C   UNL     1       3.261   7.911  17.585  0.00  0.00    +0.000 A 
ATOM     11  C   UNL     1       3.403   6.728  18.272  0.00  0.00    +0.000 A 
ATOM     12  C   UNL     1       2.600   6.577  19.380  0.00  0.00    +0.000 A 
ATOM     13  N   UNL     1       1.742   7.536  19.785  0.00  0.00    +0.000 NA
ENDBRANCH   1  12
BRANCH   1  14
ATOM     14  C   UNL     1       3.590   4.290  19.600  0.00  0.00    +0.000 C 
BRANCH  14  15
ATOM     15  N   UNL     1       3.038   3.474  18.512  0.00  0.00    +0.000 NA
ATOM     16  H   UNL     1       2.316   3.992  18.012  0.00  0.00    +0.000 HD
BRANCH  15  17
ATOM     17  C   UNL     1       4.071   3.027  17.579  0.00  0.00    +0.000 C 
BRANCH  17  18
ATOM     18  C   UNL     1       4.369   4.114  16.551  0.00  0.00    +0.000 C 
BRANCH  18  19
ATOM     19  C   UNL     1       5.863   4.120  16.219  0.00  0.00    +0.000 C 
BRANCH  19  20
ATOM     20  C   UNL     1       6.620   5.086  17.089  0.00  0.00    +0.000 A 
ATOM     21  C   UNL     1       7.255   4.643  18.259  0.00  0.00    +0.000 A 
ATOM     22  C   UNL     1       7.974   5.534  19.057  0.00  0.00    +0.000 A 
ATOM     23  C   UNL     1       8.069   6.876  18.692  0.00  0.00    +0.000 A 
ATOM     24  C   UNL     1       7.446   7.313  17.529  0.00  0.00    +0.000 A 
ATOM     25  F   UNL     1       7.541   8.601  17.176  0.00  0.00    +0.000 F 
ATOM     26  C   UNL     1       6.726   6.435  16.727  0.00  0.00    +0.000 A 
ENDBRANCH  19  20
ENDBRANCH  18  19
ENDBRANCH  17  18
ENDBRANCH  15  17
ENDBRANCH  14  15
ENDBRANCH   1  14
TORSDOF 7
ENDMDL
