MODEL 1
REMARK VINA RESULT:      -7.9      0.000      0.000
REMARK  Name = 
REMARK  9 active torsions:
REMARK  status: ('A' for Active; 'I' for Inactive)
REMARK    1  A    between atoms: C_1  and  O_2
REMARK    2  A    between atoms: O_2  and  C_3
REMARK    3  A    between atoms: C_6  and  C_7
REMARK    4  A    between atoms: C_7  and  N_8
REMARK    5  A    between atoms: N_8  and  C_9
REMARK    6  A    between atoms: C_12  and  N_13
REMARK    7  A    between atoms: C_17  and  C_18
REMARK    8  A    between atoms: C_25  and  O_26
REMARK    9  A    between atoms: O_26  and  C_27
REMARK                            x       y       z     vdW  Elec       q    Type
REMARK                         _______ _______ _______ _____ _____    ______ ____
ROOT
ATOM      1  C   UNL     1       3.230   5.251  19.053  0.00  0.00    +0.000 A 
ATOM      2  C   UNL     1       2.579   5.183  20.286  0.00  0.00    +0.000 A 
ATOM      3  C   UNL     1       1.859   6.278  20.780  0.00  0.00    +0.000 A 
ATOM      4  C   UNL     1       1.786   7.480  20.070  0.00  0.00    +0.000 A 
ATOM      5  C   UNL     1       2.502   7.556  18.867  0.00  0.00    +0.000 A 
ATOM      6  C   UNL     1       3.231   6.469  18.376  0.00  0.00    +0.000 A 
ENDROOT
BRANCH   4   7
ATOM      7  N   UNL     1       1.102   8.585  20.530  0.00  0.00    +0.000 N 
ATOM      8  C   UNL     1       0.799   9.733  19.666  0.00  0.00    +0.000 C 
ATOM      9  C   UNL     1      -0.552  10.343  20.102  0.00  0.00    +0.000 C 
ATOM     10  N   UNL     1      -0.597  10.629  21.550  0.00  0.00    +0.000 N 
ATOM     11  C   UNL     1      -1.080  11.767  22.162  0.00  0.00    +0.000 C 
ATOM     12  C   UNL     1      -1.560  12.928  21.327  0.00  0.00    +0.000 C 
ATOM     13  O   UNL     1      -1.115  11.875  23.390  0.00  0.00    +0.000 OA
ATOM     14  C   UNL     1      -0.201   9.488  22.395  0.00  0.00    +0.000 C 
ATOM     15  C   UNL     1       1.159   8.918  21.965  0.00  0.00    +0.000 C 
ENDBRANCH   4   7
BRANCH   1  16
ATOM     16  N   UNL     1       3.955   4.190  18.500  0.00  0.00    +0.000 N 
ATOM     17  H   UNL     1       3.868   3.358  19.084  0.00  0.00    +0.000 HD
BRANCH  16  18
ATOM     18  C   UNL     1       3.689   3.890  17.097  0.00  0.00    +0.000 C 
BRANCH  18  22
ATOM     19  C   UNL     1       7.100   5.044  14.706  0.00  0.00    +0.000 A 
ATOM     20  C   UNL     1       6.228   4.033  14.273  0.00  0.00    +0.000 A 
ATOM     21  C   UNL     1       5.122   3.668  15.037  0.00  0.00    +0.000 A 
ATOM     22  C   UNL     1       4.883   4.281  16.271  0.00  0.00    +0.000 A 
ATOM     23  C   UNL     1       5.800   5.228  16.738  0.00  0.00    +0.000 A 
ATOM     24  C   UNL     1       6.915   5.610  15.977  0.00  0.00    +0.000 A 
BRANCH  19  26
ATOM     25  C   UNL     1       7.903   5.388  12.511  0.00  0.00    +0.000 C 
ATOM     26  O   UNL     1       8.138   5.460  13.918  0.00  0.00    +0.000 OA
ENDBRANCH  19  26
BRANCH  24  27
ATOM     27  O   UNL     1       7.675   6.542  16.630  0.00  0.00    +0.000 OA
ATOM     28  C   UNL     1       7.529   6.692  18.032  0.00  0.00    +0.000 C 
ENDBRANCH  24  27
ENDBRANCH  18  22
ENDBRANCH  16  18
ENDBRANCH   1  16
TORSDOF 6
ENDMDL
MODEL 2
REMARK VINA RESULT:      -7.9      0.715      1.490
REMARK  Name = 
REMARK  9 active torsions:
REMARK  status: ('A' for Active; 'I' for Inactive)
REMARK    1  A    between atoms: C_1  and  O_2
REMARK    2  A    between atoms: O_2  and  C_3
REMARK    3  A    between atoms: C_6  and  C_7
REMARK    4  A    between atoms: C_7  and  N_8
REMARK    5  A    between atoms: N_8  and  C_9
REMARK    6  A    between atoms: C_12  and  N_13
REMARK    7  A    between atoms: C_17  and  C_18
REMARK    8  A    between atoms: C_25  and  O_26
REMARK    9  A    between atoms: O_26  and  C_27
REMARK                            x       y       z     vdW  Elec       q    Type
REMARK                         _______ _______ _______ _____ _____    ______ ____
ROOT
ATOM      1  C   UNL     1       3.209   5.512  19.020  0.00  0.00    +0.000 A 
ATOM      2  C   UNL     1       3.112   6.732  18.349  0.00  0.00    +0.000 A 
ATOM      3  C   UNL     1       2.361   7.788  18.882  0.00  0.00    +0.000 A 
ATOM      4  C   UNL     1       1.668   7.651  20.087  0.00  0.00    +0.000 A 
ATOM      5  C   UNL     1       1.718   6.398  20.714  0.00  0.00    +0.000 A 
ATOM      6  C   UNL     1       2.457   5.339  20.180  0.00  0.00    +0.000 A 
ENDROOT
BRANCH   4   7
ATOM      7  N   UNL     1       0.906   8.661  20.635  0.00  0.00    +0.000 N 
ATOM      8  C   UNL     1      -0.145   8.397  21.626  0.00  0.00    +0.000 C 
ATOM      9  C   UNL     1      -0.220   9.592  22.604  0.00  0.00    +0.000 C 
ATOM     10  N   UNL     1      -0.342  10.885  21.901  0.00  0.00    +0.000 N 
ATOM     11  C   UNL     1      -1.190  11.927  22.212  0.00  0.00    +0.000 C 
ATOM     12  C   UNL     1      -2.190  11.780  23.331  0.00  0.00    +0.000 C 
ATOM     13  O   UNL     1      -1.169  12.987  21.582  0.00  0.00    +0.000 OA
ATOM     14  C   UNL     1       0.668  11.087  20.847  0.00  0.00    +0.000 C 
ATOM     15  C   UNL     1       0.704   9.904  19.869  0.00  0.00    +0.000 C 
ENDBRANCH   4   7
BRANCH   1  16
ATOM     16  N   UNL     1       3.950   4.425  18.547  0.00  0.00    +0.000 N 
ATOM     17  H   UNL     1       3.859   3.630  19.181  0.00  0.00    +0.000 HD
BRANCH  16  18
ATOM     18  C   UNL     1       3.711   4.035  17.162  0.00  0.00    +0.000 C 
BRANCH  18  22
ATOM     19  C   UNL     1       7.150   5.080  14.761  0.00  0.00    +0.000 A 
ATOM     20  C   UNL     1       6.251   4.092  14.335  0.00  0.00    +0.000 A 
ATOM     21  C   UNL     1       5.135   3.761  15.102  0.00  0.00    +0.000 A 
ATOM     22  C   UNL     1       4.914   4.388  16.333  0.00  0.00    +0.000 A 
ATOM     23  C   UNL     1       5.857   5.313  16.793  0.00  0.00    +0.000 A 
ATOM     24  C   UNL     1       6.981   5.660  16.029  0.00  0.00    +0.000 A 
BRANCH  19  26
ATOM     25  C   UNL     1       7.988   5.316  12.565  0.00  0.00    +0.000 C 
ATOM     26  O   UNL     1       8.199   5.464  13.970  0.00  0.00    +0.000 OA
ENDBRANCH  19  26
BRANCH  24  27
ATOM     27  O   UNL     1       7.768   6.574  16.676  0.00  0.00    +0.000 OA
ATOM     28  C   UNL     1       7.151   7.587  17.453  0.00  0.00    +0.000 C 
ENDBRANCH  24  27
ENDBRANCH  18  22
ENDBRANCH  16  18
ENDBRANCH   1  16
TORSDOF 6
ENDMDL
MODEL 3
REMARK VINA RESULT:      -7.8      1.781      2.285
REMARK  Name = 
REMARK  9 active torsions:
REMARK  status: ('A' for Active; 'I' for Inactive)
REMARK    1  A    between atoms: C_1  and  O_2
REMARK    2  A    between atoms: O_2  and  C_3
REMARK    3  A    between atoms: C_6  and  C_7
REMARK    4  A    between atoms: C_7  and  N_8
REMARK    5  A    between atoms: N_8  and  C_9
REMARK    6  A    between atoms: C_12  and  N_13
REMARK    7  A    between atoms: C_17  and  C_18
REMARK    8  A    between atoms: C_25  and  O_26
REMARK    9  A    between atoms: O_26  and  C_27
REMARK                            x       y       z     vdW  Elec       q    Type
REMARK                         _______ _______ _______ _____ _____    ______ ____
ROOT
ATOM      1  C   UNL     1       2.405   6.696  19.221  0.00  0.00    +0.000 A 
ATOM      2  C   UNL     1       1.947   7.146  20.460  0.00  0.00    +0.000 A 
ATOM      3  C   UNL     1       1.393   8.424  20.602  0.00  0.00    +0.000 A 
ATOM      4  C   UNL     1       1.299   9.300  19.517  0.00  0.00    +0.000 A 
ATOM      5  C   UNL     1       1.825   8.861  18.294  0.00  0.00    +0.000 A 
ATOM      6  C   UNL     1       2.390   7.591  18.151  0.00  0.00    +0.000 A 
ENDROOT
BRANCH   4   7
ATOM      7  N   UNL     1       0.774  10.571  19.620  0.00  0.00    +0.000 N 
ATOM      8  C   UNL     1       1.479  11.751  19.105  0.00  0.00    +0.000 C 
ATOM      9  C   UNL     1       0.436  12.777  18.607  0.00  0.00    +0.000 C 
ATOM     10  N   UNL     1      -0.595  13.067  19.623  0.00  0.00    +0.000 N 
ATOM     11  C   UNL     1      -1.095  14.303  19.978  0.00  0.00    +0.000 C 
ATOM     12  C   UNL     1      -0.522  15.554  19.361  0.00  0.00    +0.000 C 
ATOM     13  O   UNL     1      -1.999  14.420  20.809  0.00  0.00    +0.000 OA
ATOM     14  C   UNL     1      -1.225  11.862  20.193  0.00  0.00    +0.000 C 
ATOM     15  C   UNL     1      -0.172  10.871  20.711  0.00  0.00    +0.000 C 
ENDBRANCH   4   7
BRANCH   1  16
ATOM     16  N   UNL     1       2.958   5.430  19.011  0.00  0.00    +0.000 N 
ATOM     17  H   UNL     1       2.806   5.130  18.047  0.00  0.00    +0.000 HD
BRANCH  16  18
ATOM     18  C   UNL     1       4.350   5.259  19.411  0.00  0.00    +0.000 C 
BRANCH  18  22
ATOM     19  C   UNL     1       6.830   5.292  15.870  0.00  0.00    +0.000 A 
ATOM     20  C   UNL     1       6.017   4.187  16.168  0.00  0.00    +0.000 A 
ATOM     21  C   UNL     1       5.209   4.180  17.303  0.00  0.00    +0.000 A 
ATOM     22  C   UNL     1       5.223   5.264  18.187  0.00  0.00    +0.000 A 
ATOM     23  C   UNL     1       6.095   6.326  17.931  0.00  0.00    +0.000 A 
ATOM     24  C   UNL     1       6.910   6.351  16.789  0.00  0.00    +0.000 A 
BRANCH  19  26
ATOM     25  C   UNL     1       7.045   4.549  13.638  0.00  0.00    +0.000 C 
ATOM     26  O   UNL     1       7.559   5.335  14.713  0.00  0.00    +0.000 OA
ENDBRANCH  19  26
BRANCH  24  27
ATOM     27  O   UNL     1       7.684   7.478  16.746  0.00  0.00    +0.000 OA
ATOM     28  C   UNL     1       8.072   8.095  17.962  0.00  0.00    +0.000 C 
ENDBRANCH  24  27
ENDBRANCH  18  22
ENDBRANCH  16  18
ENDBRANCH   1  16
TORSDOF 6
ENDMDL
MODEL 4
REMARK VINA RESULT:      -7.8      1.694      2.174
REMARK  Name = 
REMARK  9 active torsions:
REMARK  status: ('A' for Active; 'I' for Inactive)
REMARK    1  A    between atoms: C_1  and  O_2
REMARK    2  A    between atoms: O_2  and  C_3
REMARK    3  A    between atoms: C_6  and  C_7
REMARK    4  A    between atoms: C_7  and  N_8
REMARK    5  A    between atoms: N_8  and  C_9
REMARK    6  A    between atoms: C_12  and  N_13
REMARK    7  A    between atoms: C_17  and  C_18
REMARK    8  A    between atoms: C_25  and  O_26
REMARK    9  A    between atoms: O_26  and  C_27
REMARK                            x       y       z     vdW  Elec       q    Type
REMARK                         _______ _______ _______ _____ _____    ______ ____
ROOT
ATOM      1  C   UNL     1       2.529   5.952  19.307  0.00  0.00    +0.000 A 
ATOM      2  C   UNL     1       2.006   6.395  20.523  0.00  0.00    +0.000 A 
ATOM      3  C   UNL     1       1.486   7.689  20.655  0.00  0.00    +0.000 A 
ATOM      4  C   UNL     1       1.494   8.587  19.584  0.00  0.00    +0.000 A 
ATOM      5  C   UNL     1       2.085   8.152  18.389  0.00  0.00    +0.000 A 
ATOM      6  C   UNL     1       2.614   6.866  18.258  0.00  0.00    +0.000 A 
ENDROOT
BRANCH   4   7
ATOM      7  N   UNL     1       1.007   9.873  19.679  0.00  0.00    +0.000 N 
ATOM      8  C   UNL     1      -0.045  10.243  20.634  0.00  0.00    +0.000 C 
ATOM      9  C   UNL     1       0.192  11.697  21.100  0.00  0.00    +0.000 C 
ATOM     10  N   UNL     1       0.354  12.630  19.967  0.00  0.00    +0.000 N 
ATOM     11  C   UNL     1      -0.217  13.877  19.823  0.00  0.00    +0.000 C 
ATOM     12  C   UNL     1      -1.188  14.387  20.859  0.00  0.00    +0.000 C 
ATOM     13  O   UNL     1       0.033  14.594  18.851  0.00  0.00    +0.000 OA
ATOM     14  C   UNL     1       1.350  12.191  18.973  0.00  0.00    +0.000 C 
ATOM     15  C   UNL     1       1.077  10.756  18.500  0.00  0.00    +0.000 C 
ENDBRANCH   4   7
BRANCH   1  16
ATOM     16  N   UNL     1       3.051   4.671  19.108  0.00  0.00    +0.000 N 
ATOM     17  H   UNL     1       2.745   4.298  18.209  0.00  0.00    +0.000 HD
BRANCH  16  18
ATOM     18  C   UNL     1       4.492   4.527  19.285  0.00  0.00    +0.000 C 
BRANCH  18  22
ATOM     19  C   UNL     1       6.426   5.040  15.453  0.00  0.00    +0.000 A 
ATOM     20  C   UNL     1       5.502   4.004  15.658  0.00  0.00    +0.000 A 
ATOM     21  C   UNL     1       4.869   3.844  16.890  0.00  0.00    +0.000 A 
ATOM     22  C   UNL     1       5.174   4.696  17.956  0.00  0.00    +0.000 A 
ATOM     23  C   UNL     1       6.157   5.675  17.773  0.00  0.00    +0.000 A 
ATOM     24  C   UNL     1       6.797   5.851  16.537  0.00  0.00    +0.000 A 
BRANCH  19  26
ATOM     25  C   UNL     1       6.718   4.235  13.252  0.00  0.00    +0.000 C 
ATOM     26  O   UNL     1       6.984   5.249  14.222  0.00  0.00    +0.000 OA
ENDBRANCH  19  26
BRANCH  24  27
ATOM     27  O   UNL     1       7.723   6.858  16.589  0.00  0.00    +0.000 OA
ATOM     28  C   UNL     1       7.670   7.789  17.656  0.00  0.00    +0.000 C 
ENDBRANCH  24  27
ENDBRANCH  18  22
ENDBRANCH  16  18
ENDBRANCH   1  16
TORSDOF 6
ENDMDL
MODEL 5
REMARK VINA RESULT:      -7.8      1.071      2.293
REMARK  Name = 
REMARK  9 active torsions:
REMARK  status: ('A' for Active; 'I' for Inactive)
REMARK    1  A    between atoms: C_1  and  O_2
REMARK    2  A    between atoms: O_2  and  C_3
REMARK    3  A    between atoms: C_6  and  C_7
REMARK    4  A    between atoms: C_7  and  N_8
REMARK    5  A    between atoms: N_8  and  C_9
REMARK    6  A    between atoms: C_12  and  N_13
REMARK    7  A    between atoms: C_17  and  C_18
REMARK    8  A    between atoms: C_25  and  O_26
REMARK    9  A    between atoms: O_26  and  C_27
REMARK                            x       y       z     vdW  Elec       q    Type
REMARK                         _______ _______ _______ _____ _____    ______ ____
ROOT
ATOM      1  C   UNL     1       2.622   4.747  18.990  0.00  0.00    +0.000 A 
ATOM      2  C   UNL     1       2.254   4.895  20.328  0.00  0.00    +0.000 A 
ATOM      3  C   UNL     1       1.746   6.110  20.804  0.00  0.00    +0.000 A 
ATOM      4  C   UNL     1       1.610   7.219  19.965  0.00  0.00    +0.000 A 
ATOM      5  C   UNL     1       2.048   7.076  18.641  0.00  0.00    +0.000 A 
ATOM      6  C   UNL     1       2.566   5.869  18.165  0.00  0.00    +0.000 A 
ENDROOT
BRANCH   4   7
ATOM      7  N   UNL     1       1.129   8.437  20.399  0.00  0.00    +0.000 N 
ATOM      8  C   UNL     1       1.091   9.618  19.528  0.00  0.00    +0.000 C 
ATOM      9  C   UNL     1      -0.136  10.477  19.905  0.00  0.00    +0.000 C 
ATOM     10  N   UNL     1      -0.192  10.772  21.351  0.00  0.00    +0.000 N 
ATOM     11  C   UNL     1      -0.475  11.984  21.947  0.00  0.00    +0.000 C 
ATOM     12  C   UNL     1      -0.686  13.212  21.096  0.00  0.00    +0.000 C 
ATOM     13  O   UNL     1      -0.544  12.101  23.172  0.00  0.00    +0.000 OA
ATOM     14  C   UNL     1      -0.059   9.580  22.208  0.00  0.00    +0.000 C 
ATOM     15  C   UNL     1       1.184   8.758  21.837  0.00  0.00    +0.000 C 
ENDBRANCH   4   7
BRANCH   1  16
ATOM     16  N   UNL     1       3.124   3.558  18.451  0.00  0.00    +0.000 N 
ATOM     17  H   UNL     1       2.958   3.526  17.445  0.00  0.00    +0.000 HD
BRANCH  16  18
ATOM     18  C   UNL     1       4.510   3.239  18.776  0.00  0.00    +0.000 C 
BRANCH  18  22
ATOM     19  C   UNL     1       7.110   6.373  17.324  0.00  0.00    +0.000 A 
ATOM     20  C   UNL     1       6.913   6.183  18.701  0.00  0.00    +0.000 A 
ATOM     21  C   UNL     1       6.084   5.166  19.170  0.00  0.00    +0.000 A 
ATOM     22  C   UNL     1       5.404   4.338  18.272  0.00  0.00    +0.000 A 
ATOM     23  C   UNL     1       5.537   4.583  16.901  0.00  0.00    +0.000 A 
ATOM     24  C   UNL     1       6.373   5.599  16.413  0.00  0.00    +0.000 A 
BRANCH  19  26
ATOM     25  C   UNL     1       8.073   8.504  17.651  0.00  0.00    +0.000 C 
ATOM     26  O   UNL     1       7.988   7.316  16.865  0.00  0.00    +0.000 OA
ENDBRANCH  19  26
BRANCH  24  27
ATOM     27  O   UNL     1       6.345   5.662  15.047  0.00  0.00    +0.000 OA
ATOM     28  C   UNL     1       6.505   4.470  14.298  0.00  0.00    +0.000 C 
ENDBRANCH  24  27
ENDBRANCH  18  22
ENDBRANCH  16  18
ENDBRANCH   1  16
TORSDOF 6
ENDMDL
MODEL 6
REMARK VINA RESULT:      -7.7      0.822      1.314
REMARK  Name = 
REMARK  9 active torsions:
REMARK  status: ('A' for Active; 'I' for Inactive)
REMARK    1  A    between atoms: C_1  and  O_2
REMARK    2  A    between atoms: O_2  and  C_3
REMARK    3  A    between atoms: C_6  and  C_7
REMARK    4  A    between atoms: C_7  and  N_8
REMARK    5  A    between atoms: N_8  and  C_9
REMARK    6  A    between atoms: C_12  and  N_13
REMARK    7  A    between atoms: C_17  and  C_18
REMARK    8  A    between atoms: C_25  and  O_26
REMARK    9  A    between atoms: O_26  and  C_27
REMARK                            x       y       z     vdW  Elec       q    Type
REMARK                         _______ _______ _______ _____ _____    ______ ____
ROOT
ATOM      1  C   UNL     1       2.827   5.206  19.501  0.00  0.00    +0.000 A 
ATOM      2  C   UNL     1       2.942   6.341  18.695  0.00  0.00    +0.000 A 
ATOM      3  C   UNL     1       2.352   7.554  19.072  0.00  0.00    +0.000 A 
ATOM      4  C   UNL     1       1.611   7.666  20.252  0.00  0.00    +0.000 A 
ATOM      5  C   UNL     1       1.446   6.502  21.016  0.00  0.00    +0.000 A 
ATOM      6  C   UNL     1       2.024   5.287  20.638  0.00  0.00    +0.000 A 
ENDROOT
BRANCH   4   7
ATOM      7  N   UNL     1       1.002   8.837  20.649  0.00  0.00    +0.000 N 
ATOM      8  C   UNL     1       0.745   9.940  19.714  0.00  0.00    +0.000 C 
ATOM      9  C   UNL     1      -0.558  10.657  20.133  0.00  0.00    +0.000 C 
ATOM     10  N   UNL     1      -0.553  11.042  21.559  0.00  0.00    +0.000 N 
ATOM     11  C   UNL     1      -0.955  12.245  22.100  0.00  0.00    +0.000 C 
ATOM     12  C   UNL     1      -1.387  13.373  21.197  0.00  0.00    +0.000 C 
ATOM     13  O   UNL     1      -0.955  12.438  23.318  0.00  0.00    +0.000 OA
ATOM     14  C   UNL     1      -0.202   9.940  22.472  0.00  0.00    +0.000 C 
ATOM     15  C   UNL     1       1.112   9.263  22.056  0.00  0.00    +0.000 C 
ENDBRANCH   4   7
BRANCH   1  16
ATOM     16  N   UNL     1       3.401   3.971  19.187  0.00  0.00    +0.000 N 
ATOM     17  H   UNL     1       3.008   3.607  18.318  0.00  0.00    +0.000 HD
BRANCH  16  18
ATOM     18  C   UNL     1       4.859   3.921  19.178  0.00  0.00    +0.000 C 
BRANCH  18  22
ATOM     19  C   UNL     1       6.278   5.226  15.309  0.00  0.00    +0.000 A 
ATOM     20  C   UNL     1       5.360   4.171  15.419  0.00  0.00    +0.000 A 
ATOM     21  C   UNL     1       4.893   3.756  16.664  0.00  0.00    +0.000 A 
ATOM     22  C   UNL     1       5.362   4.365  17.833  0.00  0.00    +0.000 A 
ATOM     23  C   UNL     1       6.339   5.360  17.725  0.00  0.00    +0.000 A 
ATOM     24  C   UNL     1       6.814   5.792  16.477  0.00  0.00    +0.000 A 
BRANCH  19  26
ATOM     25  C   UNL     1       7.569   4.836  13.370  0.00  0.00    +0.000 C 
ATOM     26  O   UNL     1       6.673   5.689  14.083  0.00  0.00    +0.000 OA
ENDBRANCH  19  26
BRANCH  24  27
ATOM     27  O   UNL     1       7.768   6.765  16.610  0.00  0.00    +0.000 OA
ATOM     28  C   UNL     1       7.773   7.570  17.777  0.00  0.00    +0.000 C 
ENDBRANCH  24  27
ENDBRANCH  18  22
ENDBRANCH  16  18
ENDBRANCH   1  16
TORSDOF 6
ENDMDL
MODEL 7
REMARK VINA RESULT:      -7.7      1.329      1.834
REMARK  Name = 
REMARK  9 active torsions:
REMARK  status: ('A' for Active; 'I' for Inactive)
REMARK    1  A    between atoms: C_1  and  O_2
REMARK    2  A    between atoms: O_2  and  C_3
REMARK    3  A    between atoms: C_6  and  C_7
REMARK    4  A    between atoms: C_7  and  N_8
REMARK    5  A    between atoms: N_8  and  C_9
REMARK    6  A    between atoms: C_12  and  N_13
REMARK    7  A    between atoms: C_17  and  C_18
REMARK    8  A    between atoms: C_25  and  O_26
REMARK    9  A    between atoms: O_26  and  C_27
REMARK                            x       y       z     vdW  Elec       q    Type
REMARK                         _______ _______ _______ _____ _____    ______ ____
ROOT
ATOM      1  C   UNL     1       2.365   5.735  19.307  0.00  0.00    +0.000 A 
ATOM      2  C   UNL     1       2.433   6.720  18.320  0.00  0.00    +0.000 A 
ATOM      3  C   UNL     1       2.014   8.031  18.581  0.00  0.00    +0.000 A 
ATOM      4  C   UNL     1       1.495   8.393  19.827  0.00  0.00    +0.000 A 
ATOM      5  C   UNL     1       1.368   7.378  20.786  0.00  0.00    +0.000 A 
ATOM      6  C   UNL     1       1.774   6.066  20.525  0.00  0.00    +0.000 A 
ENDROOT
BRANCH   4   7
ATOM      7  N   UNL     1       1.057   9.668  20.118  0.00  0.00    +0.000 N 
ATOM      8  C   UNL     1       1.199  10.778  19.168  0.00  0.00    +0.000 C 
ATOM      9  C   UNL     1       0.002  11.739  19.341  0.00  0.00    +0.000 C 
ATOM     10  N   UNL     1      -0.191  12.148  20.747  0.00  0.00    +0.000 N 
ATOM     11  C   UNL     1      -0.450  13.417  21.220  0.00  0.00    +0.000 C 
ATOM     12  C   UNL     1      -0.479  14.587  20.267  0.00  0.00    +0.000 C 
ATOM     13  O   UNL     1      -0.645  13.633  22.418  0.00  0.00    +0.000 OA
ATOM     14  C   UNL     1      -0.238  11.020  21.694  0.00  0.00    +0.000 C 
ATOM     15  C   UNL     1       0.977  10.095  21.526  0.00  0.00    +0.000 C 
ENDBRANCH   4   7
BRANCH   1  16
ATOM     16  N   UNL     1       2.777   4.414  19.112  0.00  0.00    +0.000 N 
ATOM     17  H   UNL     1       2.572   4.114  18.159  0.00  0.00    +0.000 HD
BRANCH  16  18
ATOM     18  C   UNL     1       4.154   4.106  19.485  0.00  0.00    +0.000 C 
BRANCH  18  22
ATOM     19  C   UNL     1       6.762   5.195  16.214  0.00  0.00    +0.000 A 
ATOM     20  C   UNL     1       5.774   4.212  16.049  0.00  0.00    +0.000 A 
ATOM     21  C   UNL     1       4.925   3.867  17.099  0.00  0.00    +0.000 A 
ATOM     22  C   UNL     1       5.069   4.474  18.351  0.00  0.00    +0.000 A 
ATOM     23  C   UNL     1       6.108   5.392  18.536  0.00  0.00    +0.000 A 
ATOM     24  C   UNL     1       6.967   5.753  17.486  0.00  0.00    +0.000 A 
BRANCH  19  26
ATOM     25  C   UNL     1       7.272   4.934  13.923  0.00  0.00    +0.000 C 
ATOM     26  O   UNL     1       7.540   5.592  15.161  0.00  0.00    +0.000 OA
ENDBRANCH  19  26
BRANCH  24  27
ATOM     27  O   UNL     1       7.909   6.658  17.894  0.00  0.00    +0.000 OA
ATOM     28  C   UNL     1       7.726   8.029  17.588  0.00  0.00    +0.000 C 
ENDBRANCH  24  27
ENDBRANCH  18  22
ENDBRANCH  16  18
ENDBRANCH   1  16
TORSDOF 6
ENDMDL
MODEL 8
REMARK VINA RESULT:      -7.6      1.711      3.075
REMARK  Name = 
REMARK  9 active torsions:
REMARK  status: ('A' for Active; 'I' for Inactive)
REMARK    1  A    between atoms: C_1  and  O_2
REMARK    2  A    between atoms: O_2  and  C_3
REMARK    3  A    between atoms: C_6  and  C_7
REMARK    4  A    between atoms: C_7  and  N_8
REMARK    5  A    between atoms: N_8  and  C_9
REMARK    6  A    between atoms: C_12  and  N_13
REMARK    7  A    between atoms: C_17  and  C_18
REMARK    8  A    between atoms: C_25  and  O_26
REMARK    9  A    between atoms: O_26  and  C_27
REMARK                            x       y       z     vdW  Elec       q    Type
REMARK                         _______ _______ _______ _____ _____    ______ ____
ROOT
ATOM      1  C   UNL     1       1.641   8.688  18.904  0.00  0.00    +0.000 A 
ATOM      2  C   UNL     1       1.449   8.536  20.279  0.00  0.00    +0.000 A 
ATOM      3  C   UNL     1       0.596   9.393  20.985  0.00  0.00    +0.000 A 
ATOM      4  C   UNL     1      -0.074  10.439  20.346  0.00  0.00    +0.000 A 
ATOM      5  C   UNL     1       0.181  10.622  18.979  0.00  0.00    +0.000 A 
ATOM      6  C   UNL     1       1.041   9.776  18.274  0.00  0.00    +0.000 A 
ENDROOT
BRANCH   4   7
ATOM      7  N   UNL     1      -0.910  11.313  21.009  0.00  0.00    +0.000 N 
ATOM      8  C   UNL     1      -1.556  12.443  20.331  0.00  0.00    +0.000 C 
ATOM      9  C   UNL     1      -2.937  12.691  20.978  0.00  0.00    +0.000 C 
ATOM     10  N   UNL     1      -2.853  12.817  22.447  0.00  0.00    +0.000 N 
ATOM     11  C   UNL     1      -3.480  13.753  23.243  0.00  0.00    +0.000 C 
ATOM     12  C   UNL     1      -4.297  14.853  22.613  0.00  0.00    +0.000 C 
ATOM     13  O   UNL     1      -3.377  13.730  24.472  0.00  0.00    +0.000 OA
ATOM     14  C   UNL     1      -2.119  11.716  23.098  0.00  0.00    +0.000 C 
ATOM     15  C   UNL     1      -0.738  11.509  22.460  0.00  0.00    +0.000 C 
ENDBRANCH   4   7
BRANCH   1  16
ATOM     16  N   UNL     1       2.470   7.860  18.141  0.00  0.00    +0.000 N 
ATOM     17  H   UNL     1       3.331   8.349  17.895  0.00  0.00    +0.000 HD
BRANCH  16  18
ATOM     18  C   UNL     1       2.743   6.537  18.692  0.00  0.00    +0.000 C 
BRANCH  18  22
ATOM     19  C   UNL     1       5.683   4.570  16.207  0.00  0.00    +0.000 A 
ATOM     20  C   UNL     1       4.539   3.886  16.643  0.00  0.00    +0.000 A 
ATOM     21  C   UNL     1       3.584   4.522  17.435  0.00  0.00    +0.000 A 
ATOM     22  C   UNL     1       3.772   5.847  17.839  0.00  0.00    +0.000 A 
ATOM     23  C   UNL     1       4.953   6.500  17.472  0.00  0.00    +0.000 A 
ATOM     24  C   UNL     1       5.920   5.874  16.670  0.00  0.00    +0.000 A 
BRANCH  19  26
ATOM     25  C   UNL     1       6.254   4.054  13.974  0.00  0.00    +0.000 C 
ATOM     26  O   UNL     1       6.578   3.973  15.362  0.00  0.00    +0.000 OA
ENDBRANCH  19  26
BRANCH  24  27
ATOM     27  O   UNL     1       6.992   6.693  16.442  0.00  0.00    +0.000 OA
ATOM     28  C   UNL     1       7.519   7.454  17.515  0.00  0.00    +0.000 C 
ENDBRANCH  24  27
ENDBRANCH  18  22
ENDBRANCH  16  18
ENDBRANCH   1  16
TORSDOF 6
ENDMDL
MODEL 9
REMARK VINA RESULT:      -7.5      1.011      1.506
REMARK  Name = 
REMARK  9 active torsions:
REMARK  status: ('A' for Active; 'I' for Inactive)
REMARK    1  A    between atoms: C_1  and  O_2
REMARK    2  A    between atoms: O_2  and  C_3
REMARK    3  A    between atoms: C_6  and  C_7
REMARK    4  A    between atoms: C_7  and  N_8
REMARK    5  A    between atoms: N_8  and  C_9
REMARK    6  A    between atoms: C_12  and  N_13
REMARK    7  A    between atoms: C_17  and  C_18
REMARK    8  A    between atoms: C_25  and  O_26
REMARK    9  A    between atoms: O_26  and  C_27
REMARK                            x       y       z     vdW  Elec       q    Type
REMARK                         _______ _______ _______ _____ _____    ______ ____
ROOT
ATOM      1  C   UNL     1       2.911   6.574  19.121  0.00  0.00    +0.000 A 
ATOM      2  C   UNL     1       2.641   7.579  18.191  0.00  0.00    +0.000 A 
ATOM      3  C   UNL     1       1.862   8.690  18.539  0.00  0.00    +0.000 A 
ATOM      4  C   UNL     1       1.311   8.819  19.816  0.00  0.00    +0.000 A 
ATOM      5  C   UNL     1       1.532   7.769  20.718  0.00  0.00    +0.000 A 
ATOM      6  C   UNL     1       2.300   6.654  20.371  0.00  0.00    +0.000 A 
ENDROOT
BRANCH   4   7
ATOM      7  N   UNL     1       0.525   9.889  20.191  0.00  0.00    +0.000 N 
ATOM      8  C   UNL     1       0.075  10.903  19.230  0.00  0.00    +0.000 C 
ATOM      9  C   UNL     1      -1.321  11.411  19.657  0.00  0.00    +0.000 C 
ATOM     10  N   UNL     1      -1.353  11.840  21.070  0.00  0.00    +0.000 N 
ATOM     11  C   UNL     1      -1.936  12.980  21.584  0.00  0.00    +0.000 C 
ATOM     12  C   UNL     1      -2.564  13.991  20.656  0.00  0.00    +0.000 C 
ATOM     13  O   UNL     1      -1.946  13.210  22.795  0.00  0.00    +0.000 OA
ATOM     14  C   UNL     1      -0.810  10.841  22.008  0.00  0.00    +0.000 C 
ATOM     15  C   UNL     1       0.590  10.374  21.582  0.00  0.00    +0.000 C 
ENDBRANCH   4   7
BRANCH   1  16
ATOM     16  N   UNL     1       3.690   5.447  18.840  0.00  0.00    +0.000 N 
ATOM     17  H   UNL     1       3.647   4.783  19.614  0.00  0.00    +0.000 HD
BRANCH  16  18
ATOM     18  C   UNL     1       3.441   4.794  17.560  0.00  0.00    +0.000 C 
BRANCH  18  22
ATOM     19  C   UNL     1       6.959   5.132  15.070  0.00  0.00    +0.000 A 
ATOM     20  C   UNL     1       5.955   4.197  14.772  0.00  0.00    +0.000 A 
ATOM     21  C   UNL     1       4.816   4.095  15.568  0.00  0.00    +0.000 A 
ATOM     22  C   UNL     1       4.671   4.901  16.701  0.00  0.00    +0.000 A 
ATOM     23  C   UNL     1       5.710   5.773  17.041  0.00  0.00    +0.000 A 
ATOM     24  C   UNL     1       6.861   5.891  16.247  0.00  0.00    +0.000 A 
BRANCH  19  26
ATOM     25  C   UNL     1       7.765   5.136  12.850  0.00  0.00    +0.000 C 
ATOM     26  O   UNL     1       8.037   5.291  14.243  0.00  0.00    +0.000 OA
ENDBRANCH  19  26
BRANCH  24  27
ATOM     27  O   UNL     1       7.745   6.795  16.772  0.00  0.00    +0.000 OA
ATOM     28  C   UNL     1       7.781   6.989  18.175  0.00  0.00    +0.000 C 
ENDBRANCH  24  27
ENDBRANCH  18  22
ENDBRANCH  16  18
ENDBRANCH   1  16
TORSDOF 6
ENDMDL
