MODEL 1
REMARK VINA RESULT:      -6.8      0.000      0.000
REMARK  Name = 
REMARK  8 active torsions:
REMARK  status: ('A' for Active; 'I' for Inactive)
REMARK    1  A    between atoms: C_1  and  C_2
REMARK    2  A    between atoms: C_2  and  O_3
REMARK    3  A    between atoms: O_3  and  C_4
REMARK    4  A    between atoms: C_4  and  C_6
REMARK    5  A    between atoms: C_7  and  C_8
REMARK    6  A    between atoms: C_11  and  O_12
REMARK    7  A    between atoms: C_27  and  O_28
REMARK    8  A    between atoms: C_27  and  C_29
REMARK                            x       y       z     vdW  Elec       q    Type
REMARK                         _______ _______ _______ _____ _____    ______ ____
ROOT
ATOM      1  C   UNL     1      -0.057  13.333  19.593  0.00  0.00    +0.000 C 
ATOM      2  C   UNL     1      -0.967  12.161  20.038  0.00  0.00    +0.000 C 
ATOM      3  C   UNL     1      -0.166  10.878  20.077  0.00  0.00    +0.000 A 
ATOM      4  C   UNL     1       0.952  10.781  19.346  0.00  0.00    +0.000 A 
ATOM      5  C   UNL     1       1.509   9.461  19.152  0.00  0.00    +0.000 A 
ATOM      6  C   UNL     1       1.798   8.901  17.910  0.00  0.00    +0.000 A 
ATOM      7  C   UNL     1       2.207   7.564  17.835  0.00  0.00    +0.000 A 
ATOM      8  C   UNL     1       2.379   6.810  19.002  0.00  0.00    +0.000 A 
ATOM      9  C   UNL     1       2.040   7.357  20.239  0.00  0.00    +0.000 A 
ATOM     10  C   UNL     1       1.527   8.646  20.277  0.00  0.00    +0.000 A 
ATOM     11  O   UNL     1       0.876   9.081  21.442  0.00  0.00    +0.000 OA
ATOM     12  C   UNL     1      -0.104  10.076  21.338  0.00  0.00    +0.000 A 
ATOM     13  O   UNL     1      -0.775  10.408  22.312  0.00  0.00    +0.000 OA
ATOM     14  O   UNL     1       1.723  11.897  19.024  0.00  0.00    +0.000 OA
ATOM     15  C   UNL     1       1.411  13.035  19.940  0.00  0.00    +0.000 C 
ENDROOT
BRANCH   2  16
ATOM     16  C   UNL     1      -2.135  12.067  19.051  0.00  0.00    +0.000 A 
ATOM     17  C   UNL     1      -3.464  12.267  19.482  0.00  0.00    +0.000 A 
ATOM     18  C   UNL     1      -4.545  11.948  18.661  0.00  0.00    +0.000 A 
ATOM     19  C   UNL     1      -4.303  11.448  17.391  0.00  0.00    +0.000 A 
ATOM     20  C   UNL     1      -3.005  11.315  16.913  0.00  0.00    +0.000 A 
ATOM     21  C   UNL     1      -1.919  11.623  17.739  0.00  0.00    +0.000 A 
BRANCH  19  22
ATOM     22  O   UNL     1      -5.330  11.047  16.588  0.00  0.00    +0.000 OA
ATOM     23  H   UNL     1      -5.244  10.092  16.435  0.00  0.00    +0.000 HD
ENDBRANCH  19  22
ENDBRANCH   2  16
BRANCH  15  24
ATOM     24  C   UNL     1       2.366  14.246  19.649  0.00  0.00    +0.000 C 
ATOM     25  F   UNL     1       2.283  15.210  20.594  0.00  0.00    +0.000 F 
ATOM     26  F   UNL     1       3.667  13.858  19.601  0.00  0.00    +0.000 F 
ATOM     27  F   UNL     1       2.094  14.837  18.462  0.00  0.00    +0.000 F 
ENDBRANCH  15  24
BRANCH   1  28
ATOM     28  C   UNL     1      -0.625  14.640  20.091  0.00  0.00    +0.000 C 
ATOM     29  O   UNL     1      -0.839  15.604  19.393  0.00  0.00    +0.000 OA
BRANCH  28  30
ATOM     30  O   UNL     1      -0.800  14.550  21.442  0.00  0.00    +0.000 OA
BRANCH  30  32
ATOM     31  C   UNL     1      -2.646  13.960  22.889  0.00  0.00    +0.000 C 
ATOM     32  C   UNL     1      -2.036  15.021  21.996  0.00  0.00    +0.000 C 
ENDBRANCH  30  32
ENDBRANCH  28  30
ENDBRANCH   1  28
BRANCH  15  33
ATOM     33  O   UNL     1       1.636  12.594  21.304  0.00  0.00    +0.000 OA
ATOM     34  H   UNL     1       0.801  12.411  21.765  0.00  0.00    +0.000 HD
ENDBRANCH  15  33
TORSDOF 7
ENDMDL
MODEL 2
REMARK VINA RESULT:      -6.8      1.043      1.388
REMARK  Name = 
REMARK  8 active torsions:
REMARK  status: ('A' for Active; 'I' for Inactive)
REMARK    1  A    between atoms: C_1  and  C_2
REMARK    2  A    between atoms: C_2  and  O_3
REMARK    3  A    between atoms: O_3  and  C_4
REMARK    4  A    between atoms: C_4  and  C_6
REMARK    5  A    between atoms: C_7  and  C_8
REMARK    6  A    between atoms: C_11  and  O_12
REMARK    7  A    between atoms: C_27  and  O_28
REMARK    8  A    between atoms: C_27  and  C_29
REMARK                            x       y       z     vdW  Elec       q    Type
REMARK                         _______ _______ _______ _____ _____    ______ ____
ROOT
ATOM      1  C   UNL     1      -0.139  12.367  19.121  0.00  0.00    +0.000 C 
ATOM      2  C   UNL     1      -0.971  11.135  19.557  0.00  0.00    +0.000 C 
ATOM      3  C   UNL     1      -0.057   9.943  19.747  0.00  0.00    +0.000 A 
ATOM      4  C   UNL     1       1.128   9.921  19.124  0.00  0.00    +0.000 A 
ATOM      5  C   UNL     1       1.825   8.656  19.064  0.00  0.00    +0.000 A 
ATOM      6  C   UNL     1       2.282   8.061  17.890  0.00  0.00    +0.000 A 
ATOM      7  C   UNL     1       2.822   6.771  17.935  0.00  0.00    +0.000 A 
ATOM      8  C   UNL     1       2.956   6.102  19.158  0.00  0.00    +0.000 A 
ATOM      9  C   UNL     1       2.451   6.678  20.324  0.00  0.00    +0.000 A 
ATOM     10  C   UNL     1       1.816   7.908  20.235  0.00  0.00    +0.000 A 
ATOM     11  O   UNL     1       1.020   8.338  21.309  0.00  0.00    +0.000 OA
ATOM     12  C   UNL     1      -0.037   9.221  21.057  0.00  0.00    +0.000 A 
ATOM     13  O   UNL     1      -0.825   9.536  21.945  0.00  0.00    +0.000 OA
ATOM     14  O   UNL     1       1.815  11.091  18.802  0.00  0.00    +0.000 OA
ATOM     15  C   UNL     1       1.312  12.239  19.614  0.00  0.00    +0.000 C 
ENDROOT
BRANCH   2  16
ATOM     16  C   UNL     1      -2.026  10.870  18.479  0.00  0.00    +0.000 A 
ATOM     17  C   UNL     1      -1.734  10.051  17.367  0.00  0.00    +0.000 A 
ATOM     18  C   UNL     1      -2.588   9.996  16.266  0.00  0.00    +0.000 A 
ATOM     19  C   UNL     1      -3.756  10.743  16.281  0.00  0.00    +0.000 A 
ATOM     20  C   UNL     1      -4.107  11.496  17.395  0.00  0.00    +0.000 A 
ATOM     21  C   UNL     1      -3.245  11.562  18.495  0.00  0.00    +0.000 A 
BRANCH  19  22
ATOM     22  O   UNL     1      -4.577  10.782  15.193  0.00  0.00    +0.000 OA
ATOM     23  H   UNL     1      -5.439  10.411  15.445  0.00  0.00    +0.000 HD
ENDBRANCH  19  22
ENDBRANCH   2  16
BRANCH  15  24
ATOM     24  C   UNL     1       2.170  13.523  19.332  0.00  0.00    +0.000 C 
ATOM     25  F   UNL     1       1.875  14.538  20.175  0.00  0.00    +0.000 F 
ATOM     26  F   UNL     1       3.498  13.278  19.467  0.00  0.00    +0.000 F 
ATOM     27  F   UNL     1       1.988  13.993  18.075  0.00  0.00    +0.000 F 
ENDBRANCH  15  24
BRANCH   1  28
ATOM     28  C   UNL     1      -0.874  13.635  19.484  0.00  0.00    +0.000 C 
ATOM     29  O   UNL     1      -0.896  14.634  18.801  0.00  0.00    +0.000 OA
BRANCH  28  30
ATOM     30  O   UNL     1      -1.450  13.467  20.709  0.00  0.00    +0.000 OA
BRANCH  30  32
ATOM     31  C   UNL     1      -1.029  13.485  23.091  0.00  0.00    +0.000 C 
ATOM     32  C   UNL     1      -0.974  14.271  21.797  0.00  0.00    +0.000 C 
ENDBRANCH  30  32
ENDBRANCH  28  30
ENDBRANCH   1  28
BRANCH  15  33
ATOM     33  O   UNL     1       1.449  11.897  21.017  0.00  0.00    +0.000 OA
ATOM     34  H   UNL     1       2.232  11.345  21.178  0.00  0.00    +0.000 HD
ENDBRANCH  15  33
TORSDOF 7
ENDMDL
MODEL 3
REMARK VINA RESULT:      -6.8      0.792      1.615
REMARK  Name = 
REMARK  8 active torsions:
REMARK  status: ('A' for Active; 'I' for Inactive)
REMARK    1  A    between atoms: C_1  and  C_2
REMARK    2  A    between atoms: C_2  and  O_3
REMARK    3  A    between atoms: O_3  and  C_4
REMARK    4  A    between atoms: C_4  and  C_6
REMARK    5  A    between atoms: C_7  and  C_8
REMARK    6  A    between atoms: C_11  and  O_12
REMARK    7  A    between atoms: C_27  and  O_28
REMARK    8  A    between atoms: C_27  and  C_29
REMARK                            x       y       z     vdW  Elec       q    Type
REMARK                         _______ _______ _______ _____ _____    ______ ____
ROOT
ATOM      1  C   UNL     1      -0.012  13.300  19.527  0.00  0.00    +0.000 C 
ATOM      2  C   UNL     1      -0.924  12.132  19.979  0.00  0.00    +0.000 C 
ATOM      3  C   UNL     1      -0.128  10.845  20.012  0.00  0.00    +0.000 A 
ATOM      4  C   UNL     1       0.983  10.744  19.270  0.00  0.00    +0.000 A 
ATOM      5  C   UNL     1       1.532   9.421  19.072  0.00  0.00    +0.000 A 
ATOM      6  C   UNL     1       1.809   8.860  17.827  0.00  0.00    +0.000 A 
ATOM      7  C   UNL     1       2.210   7.522  17.748  0.00  0.00    +0.000 A 
ATOM      8  C   UNL     1       2.390   6.767  18.914  0.00  0.00    +0.000 A 
ATOM      9  C   UNL     1       2.064   7.315  20.154  0.00  0.00    +0.000 A 
ATOM     10  C   UNL     1       1.557   8.606  20.196  0.00  0.00    +0.000 A 
ATOM     11  O   UNL     1       0.918   9.044  21.367  0.00  0.00    +0.000 OA
ATOM     12  C   UNL     1      -0.058  10.043  21.272  0.00  0.00    +0.000 A 
ATOM     13  O   UNL     1      -0.719  10.377  22.252  0.00  0.00    +0.000 OA
ATOM     14  O   UNL     1       1.756  11.857  18.942  0.00  0.00    +0.000 OA
ATOM     15  C   UNL     1       1.458  12.996  19.861  0.00  0.00    +0.000 C 
ENDROOT
BRANCH   2  16
ATOM     16  C   UNL     1      -2.100  12.043  19.003  0.00  0.00    +0.000 A 
ATOM     17  C   UNL     1      -3.427  12.227  19.450  0.00  0.00    +0.000 A 
ATOM     18  C   UNL     1      -4.513  11.911  18.635  0.00  0.00    +0.000 A 
ATOM     19  C   UNL     1      -4.280  11.432  17.355  0.00  0.00    +0.000 A 
ATOM     20  C   UNL     1      -2.986  11.316  16.862  0.00  0.00    +0.000 A 
ATOM     21  C   UNL     1      -1.894  11.621  17.682  0.00  0.00    +0.000 A 
BRANCH  19  22
ATOM     22  O   UNL     1      -5.311  11.035  16.556  0.00  0.00    +0.000 OA
ATOM     23  H   UNL     1      -5.317  10.064  16.522  0.00  0.00    +0.000 HD
ENDBRANCH  19  22
ENDBRANCH   2  16
BRANCH  15  24
ATOM     24  C   UNL     1       2.416  14.202  19.561  0.00  0.00    +0.000 C 
ATOM     25  F   UNL     1       2.184  14.759  18.351  0.00  0.00    +0.000 F 
ATOM     26  F   UNL     1       2.276  15.193  20.479  0.00  0.00    +0.000 F 
ATOM     27  F   UNL     1       3.719  13.836  19.581  0.00  0.00    +0.000 F 
ENDBRANCH  15  24
BRANCH   1  28
ATOM     28  C   UNL     1      -0.570  14.609  20.030  0.00  0.00    +0.000 C 
ATOM     29  O   UNL     1      -0.829  14.844  21.188  0.00  0.00    +0.000 OA
BRANCH  28  30
ATOM     30  O   UNL     1      -0.768  15.436  18.962  0.00  0.00    +0.000 OA
BRANCH  30  32
ATOM     31  C   UNL     1      -0.483  17.513  17.756  0.00  0.00    +0.000 C 
ATOM     32  C   UNL     1      -0.407  16.817  19.100  0.00  0.00    +0.000 C 
ENDBRANCH  30  32
ENDBRANCH  28  30
ENDBRANCH   1  28
BRANCH  15  33
ATOM     33  O   UNL     1       1.693  12.553  21.223  0.00  0.00    +0.000 OA
ATOM     34  H   UNL     1       2.595  12.758  21.516  0.00  0.00    +0.000 HD
ENDBRANCH  15  33
TORSDOF 7
ENDMDL
MODEL 4
REMARK VINA RESULT:      -6.8      2.760      5.542
REMARK  Name = 
REMARK  8 active torsions:
REMARK  status: ('A' for Active; 'I' for Inactive)
REMARK    1  A    between atoms: C_1  and  C_2
REMARK    2  A    between atoms: C_2  and  O_3
REMARK    3  A    between atoms: O_3  and  C_4
REMARK    4  A    between atoms: C_4  and  C_6
REMARK    5  A    between atoms: C_7  and  C_8
REMARK    6  A    between atoms: C_11  and  O_12
REMARK    7  A    between atoms: C_27  and  O_28
REMARK    8  A    between atoms: C_27  and  C_29
REMARK                            x       y       z     vdW  Elec       q    Type
REMARK                         _______ _______ _______ _____ _____    ______ ____
ROOT
ATOM      1  C   UNL     1      -1.423  13.178  21.745  0.00  0.00    +0.000 C 
ATOM      2  C   UNL     1      -0.619  12.671  20.522  0.00  0.00    +0.000 C 
ATOM      3  C   UNL     1       0.074  13.836  19.848  0.00  0.00    +0.000 A 
ATOM      4  C   UNL     1      -0.404  15.074  20.027  0.00  0.00    +0.000 A 
ATOM      5  C   UNL     1       0.070  16.106  19.131  0.00  0.00    +0.000 A 
ATOM      6  C   UNL     1      -0.757  16.935  18.375  0.00  0.00    +0.000 A 
ATOM      7  C   UNL     1      -0.188  17.806  17.439  0.00  0.00    +0.000 A 
ATOM      8  C   UNL     1       1.203  17.888  17.302  0.00  0.00    +0.000 A 
ATOM      9  C   UNL     1       2.025  17.022  18.023  0.00  0.00    +0.000 A 
ATOM     10  C   UNL     1       1.431  16.087  18.859  0.00  0.00    +0.000 A 
ATOM     11  O   UNL     1       2.201  15.008  19.321  0.00  0.00    +0.000 OA
ATOM     12  C   UNL     1       1.557  13.810  19.654  0.00  0.00    +0.000 A 
ATOM     13  O   UNL     1       2.200  12.808  19.956  0.00  0.00    +0.000 OA
ATOM     14  O   UNL     1      -1.091  15.441  21.183  0.00  0.00    +0.000 OA
ATOM     15  C   UNL     1      -0.812  14.478  22.290  0.00  0.00    +0.000 C 
ENDROOT
BRANCH   2  16
ATOM     16  C   UNL     1      -1.592  11.969  19.571  0.00  0.00    +0.000 A 
ATOM     17  C   UNL     1      -1.121  11.086  18.575  0.00  0.00    +0.000 A 
ATOM     18  C   UNL     1      -1.958  10.633  17.557  0.00  0.00    +0.000 A 
ATOM     19  C   UNL     1      -3.283  11.041  17.541  0.00  0.00    +0.000 A 
ATOM     20  C   UNL     1      -3.793  11.846  18.553  0.00  0.00    +0.000 A 
ATOM     21  C   UNL     1      -2.952  12.311  19.568  0.00  0.00    +0.000 A 
BRANCH  19  22
ATOM     22  O   UNL     1      -4.114  10.688  16.518  0.00  0.00    +0.000 OA
ATOM     23  H   UNL     1      -4.435  11.498  16.090  0.00  0.00    +0.000 HD
ENDBRANCH  19  22
ENDBRANCH   2  16
BRANCH  15  24
ATOM     24  C   UNL     1      -1.492  14.964  23.618  0.00  0.00    +0.000 C 
ATOM     25  F   UNL     1      -1.247  16.269  23.878  0.00  0.00    +0.000 F 
ATOM     26  F   UNL     1      -2.841  14.823  23.572  0.00  0.00    +0.000 F 
ATOM     27  F   UNL     1      -1.065  14.265  24.696  0.00  0.00    +0.000 F 
ENDBRANCH  15  24
BRANCH   1  28
ATOM     28  C   UNL     1      -1.621  12.051  22.729  0.00  0.00    +0.000 C 
ATOM     29  O   UNL     1      -2.672  11.789  23.270  0.00  0.00    +0.000 OA
BRANCH  28  30
ATOM     30  O   UNL     1      -0.421  11.432  22.928  0.00  0.00    +0.000 OA
BRANCH  30  32
ATOM     31  C   UNL     1      -0.271   9.255  21.884  0.00  0.00    +0.000 C 
ATOM     32  C   UNL     1      -0.422  10.020  23.183  0.00  0.00    +0.000 C 
ENDBRANCH  30  32
ENDBRANCH  28  30
ENDBRANCH   1  28
BRANCH  15  33
ATOM     33  O   UNL     1       0.623  14.434  22.501  0.00  0.00    +0.000 OA
ATOM     34  H   UNL     1       0.858  14.652  23.418  0.00  0.00    +0.000 HD
ENDBRANCH  15  33
TORSDOF 7
ENDMDL
MODEL 5
REMARK VINA RESULT:      -6.7      2.646      4.424
REMARK  Name = 
REMARK  8 active torsions:
REMARK  status: ('A' for Active; 'I' for Inactive)
REMARK    1  A    between atoms: C_1  and  C_2
REMARK    2  A    between atoms: C_2  and  O_3
REMARK    3  A    between atoms: O_3  and  C_4
REMARK    4  A    between atoms: C_4  and  C_6
REMARK    5  A    between atoms: C_7  and  C_8
REMARK    6  A    between atoms: C_11  and  O_12
REMARK    7  A    between atoms: C_27  and  O_28
REMARK    8  A    between atoms: C_27  and  C_29
REMARK                            x       y       z     vdW  Elec       q    Type
REMARK                         _______ _______ _______ _____ _____    ______ ____
ROOT
ATOM      1  C   UNL     1      -1.794  14.435  22.698  0.00  0.00    +0.000 C 
ATOM      2  C   UNL     1      -2.058  12.937  22.989  0.00  0.00    +0.000 C 
ATOM      3  C   UNL     1      -1.600  12.100  21.814  0.00  0.00    +0.000 A 
ATOM      4  C   UNL     1      -1.498  12.669  20.605  0.00  0.00    +0.000 A 
ATOM      5  C   UNL     1      -1.375  11.789  19.464  0.00  0.00    +0.000 A 
ATOM      6  C   UNL     1      -2.206  11.826  18.346  0.00  0.00    +0.000 A 
ATOM      7  C   UNL     1      -2.081  10.839  17.362  0.00  0.00    +0.000 A 
ATOM      8  C   UNL     1      -1.091   9.854  17.469  0.00  0.00    +0.000 A 
ATOM      9  C   UNL     1      -0.295   9.790  18.612  0.00  0.00    +0.000 A 
ATOM     10  C   UNL     1      -0.516  10.710  19.627  0.00  0.00    +0.000 A 
ATOM     11  O   UNL     1       0.027  10.460  20.897  0.00  0.00    +0.000 OA
ATOM     12  C   UNL     1      -0.606  11.002  22.022  0.00  0.00    +0.000 A 
ATOM     13  O   UNL     1      -0.231  10.719  23.157  0.00  0.00    +0.000 OA
ATOM     14  O   UNL     1      -1.226  14.027  20.449  0.00  0.00    +0.000 OA
ATOM     15  C   UNL     1      -0.637  14.594  21.699  0.00  0.00    +0.000 C 
ENDROOT
BRANCH   2  16
ATOM     16  C   UNL     1      -3.556  12.762  23.255  0.00  0.00    +0.000 A 
ATOM     17  C   UNL     1      -4.514  13.214  22.322  0.00  0.00    +0.000 A 
ATOM     18  C   UNL     1      -5.867  13.284  22.652  0.00  0.00    +0.000 A 
ATOM     19  C   UNL     1      -6.275  12.877  23.913  0.00  0.00    +0.000 A 
ATOM     20  C   UNL     1      -5.364  12.354  24.824  0.00  0.00    +0.000 A 
ATOM     21  C   UNL     1      -4.005  12.294  24.498  0.00  0.00    +0.000 A 
BRANCH  19  22
ATOM     22  O   UNL     1      -7.575  13.006  24.305  0.00  0.00    +0.000 OA
ATOM     23  H   UNL     1      -7.625  12.841  25.261  0.00  0.00    +0.000 HD
ENDBRANCH  19  22
ENDBRANCH   2  16
BRANCH  15  24
ATOM     24  C   UNL     1      -0.223  16.091  21.475  0.00  0.00    +0.000 C 
ATOM     25  F   UNL     1       0.541  16.573  22.482  0.00  0.00    +0.000 F 
ATOM     26  F   UNL     1       0.495  16.248  20.333  0.00  0.00    +0.000 F 
ATOM     27  F   UNL     1      -1.297  16.909  21.373  0.00  0.00    +0.000 F 
ENDBRANCH  15  24
BRANCH   1  28
ATOM     28  C   UNL     1      -1.685  15.197  23.997  0.00  0.00    +0.000 C 
ATOM     29  O   UNL     1      -0.865  14.970  24.858  0.00  0.00    +0.000 OA
BRANCH  28  30
ATOM     30  O   UNL     1      -2.682  16.128  24.040  0.00  0.00    +0.000 OA
BRANCH  30  32
ATOM     31  C   UNL     1      -5.036  16.456  24.489  0.00  0.00    +0.000 C 
ATOM     32  C   UNL     1      -3.705  15.977  25.034  0.00  0.00    +0.000 C 
ENDBRANCH  30  32
ENDBRANCH  28  30
ENDBRANCH   1  28
BRANCH  15  33
ATOM     33  O   UNL     1       0.556  13.834  22.024  0.00  0.00    +0.000 OA
ATOM     34  H   UNL     1       0.739  13.845  22.977  0.00  0.00    +0.000 HD
ENDBRANCH  15  33
TORSDOF 7
ENDMDL
MODEL 6
REMARK VINA RESULT:      -6.7      0.455      1.163
REMARK  Name = 
REMARK  8 active torsions:
REMARK  status: ('A' for Active; 'I' for Inactive)
REMARK    1  A    between atoms: C_1  and  C_2
REMARK    2  A    between atoms: C_2  and  O_3
REMARK    3  A    between atoms: O_3  and  C_4
REMARK    4  A    between atoms: C_4  and  C_6
REMARK    5  A    between atoms: C_7  and  C_8
REMARK    6  A    between atoms: C_11  and  O_12
REMARK    7  A    between atoms: C_27  and  O_28
REMARK    8  A    between atoms: C_27  and  C_29
REMARK                            x       y       z     vdW  Elec       q    Type
REMARK                         _______ _______ _______ _____ _____    ______ ____
ROOT
ATOM      1  C   UNL     1      -0.289  12.940  19.726  0.00  0.00    +0.000 C 
ATOM      2  C   UNL     1      -1.094  11.697  20.182  0.00  0.00    +0.000 C 
ATOM      3  C   UNL     1      -0.206  10.472  20.145  0.00  0.00    +0.000 A 
ATOM      4  C   UNL     1       0.877  10.471  19.357  0.00  0.00    +0.000 A 
ATOM      5  C   UNL     1       1.511   9.198  19.099  0.00  0.00    +0.000 A 
ATOM      6  C   UNL     1       1.774   8.690  17.828  0.00  0.00    +0.000 A 
ATOM      7  C   UNL     1       2.267   7.387  17.695  0.00  0.00    +0.000 A 
ATOM      8  C   UNL     1       2.551   6.618  18.831  0.00  0.00    +0.000 A 
ATOM      9  C   UNL     1       2.240   7.110  20.098  0.00  0.00    +0.000 A 
ATOM     10  C   UNL     1       1.643   8.359  20.197  0.00  0.00    +0.000 A 
ATOM     11  O   UNL     1       1.025   8.719  21.405  0.00  0.00    +0.000 OA
ATOM     12  C   UNL     1      -0.025   9.645  21.379  0.00  0.00    +0.000 A 
ATOM     13  O   UNL     1      -0.665   9.906  22.394  0.00  0.00    +0.000 OA
ATOM     14  O   UNL     1       1.552  11.646  19.028  0.00  0.00    +0.000 OA
ATOM     15  C   UNL     1       1.212  12.736  19.990  0.00  0.00    +0.000 C 
ENDROOT
BRANCH   2  16
ATOM     16  C   UNL     1      -2.301  11.546  19.253  0.00  0.00    +0.000 A 
ATOM     17  C   UNL     1      -2.141  11.092  17.926  0.00  0.00    +0.000 A 
ATOM     18  C   UNL     1      -3.180  11.180  17.001  0.00  0.00    +0.000 A 
ATOM     19  C   UNL     1      -4.400  11.701  17.405  0.00  0.00    +0.000 A 
ATOM     20  C   UNL     1      -4.610  12.083  18.725  0.00  0.00    +0.000 A 
ATOM     21  C   UNL     1      -3.564  12.006  19.651  0.00  0.00    +0.000 A 
BRANCH  19  22
ATOM     22  O   UNL     1      -5.416  11.881  16.513  0.00  0.00    +0.000 OA
ATOM     23  H   UNL     1      -6.199  11.409  16.841  0.00  0.00    +0.000 HD
ENDBRANCH  19  22
ENDBRANCH   2  16
BRANCH  15  24
ATOM     24  C   UNL     1       2.066  14.017  19.686  0.00  0.00    +0.000 C 
ATOM     25  F   UNL     1       1.669  14.648  18.557  0.00  0.00    +0.000 F 
ATOM     26  F   UNL     1       1.982  14.927  20.691  0.00  0.00    +0.000 F 
ATOM     27  F   UNL     1       3.380  13.730  19.532  0.00  0.00    +0.000 F 
ENDBRANCH  15  24
BRANCH   1  28
ATOM     28  C   UNL     1      -0.918  14.191  20.288  0.00  0.00    +0.000 C 
ATOM     29  O   UNL     1      -1.246  15.151  19.626  0.00  0.00    +0.000 OA
BRANCH  28  30
ATOM     30  O   UNL     1      -1.002  14.064  21.644  0.00  0.00    +0.000 OA
BRANCH  30  32
ATOM     31  C   UNL     1      -2.746  13.270  23.120  0.00  0.00    +0.000 C 
ATOM     32  C   UNL     1      -2.234  14.425  22.283  0.00  0.00    +0.000 C 
ENDBRANCH  30  32
ENDBRANCH  28  30
ENDBRANCH   1  28
BRANCH  15  33
ATOM     33  O   UNL     1       1.536  12.279  21.328  0.00  0.00    +0.000 OA
ATOM     34  H   UNL     1       0.857  12.538  21.972  0.00  0.00    +0.000 HD
ENDBRANCH  15  33
TORSDOF 7
ENDMDL
MODEL 7
REMARK VINA RESULT:      -6.6      2.644      4.475
REMARK  Name = 
REMARK  8 active torsions:
REMARK  status: ('A' for Active; 'I' for Inactive)
REMARK    1  A    between atoms: C_1  and  C_2
REMARK    2  A    between atoms: C_2  and  O_3
REMARK    3  A    between atoms: O_3  and  C_4
REMARK    4  A    between atoms: C_4  and  C_6
REMARK    5  A    between atoms: C_7  and  C_8
REMARK    6  A    between atoms: C_11  and  O_12
REMARK    7  A    between atoms: C_27  and  O_28
REMARK    8  A    between atoms: C_27  and  C_29
REMARK                            x       y       z     vdW  Elec       q    Type
REMARK                         _______ _______ _______ _____ _____    ______ ____
ROOT
ATOM      1  C   UNL     1      -1.702  14.624  22.881  0.00  0.00    +0.000 C 
ATOM      2  C   UNL     1      -2.082  13.150  23.166  0.00  0.00    +0.000 C 
ATOM      3  C   UNL     1      -1.673  12.282  21.995  0.00  0.00    +0.000 A 
ATOM      4  C   UNL     1      -1.512  12.842  20.789  0.00  0.00    +0.000 A 
ATOM      5  C   UNL     1      -1.441  11.957  19.648  0.00  0.00    +0.000 A 
ATOM      6  C   UNL     1      -2.252  12.057  18.520  0.00  0.00    +0.000 A 
ATOM      7  C   UNL     1      -2.189  11.064  17.536  0.00  0.00    +0.000 A 
ATOM      8  C   UNL     1      -1.279  10.007  17.654  0.00  0.00    +0.000 A 
ATOM      9  C   UNL     1      -0.505   9.882  18.807  0.00  0.00    +0.000 A 
ATOM     10  C   UNL     1      -0.669  10.815  19.821  0.00  0.00    +0.000 A 
ATOM     11  O   UNL     1      -0.164  10.523  21.097  0.00  0.00    +0.000 OA
ATOM     12  C   UNL     1      -0.769  11.111  22.215  0.00  0.00    +0.000 A 
ATOM     13  O   UNL     1      -0.431  10.800  23.354  0.00  0.00    +0.000 OA
ATOM     14  O   UNL     1      -1.136  14.176  20.639  0.00  0.00    +0.000 OA
ATOM     15  C   UNL     1      -0.522  14.696  21.898  0.00  0.00    +0.000 C 
ENDROOT
BRANCH   2  16
ATOM     16  C   UNL     1      -3.592  13.089  23.412  0.00  0.00    +0.000 A 
ATOM     17  C   UNL     1      -4.107  12.607  24.635  0.00  0.00    +0.000 A 
ATOM     18  C   UNL     1      -5.463  12.318  24.784  0.00  0.00    +0.000 A 
ATOM     19  C   UNL     1      -6.320  12.532  23.716  0.00  0.00    +0.000 A 
ATOM     20  C   UNL     1      -5.853  13.079  22.526  0.00  0.00    +0.000 A 
ATOM     21  C   UNL     1      -4.492  13.359  22.371  0.00  0.00    +0.000 A 
BRANCH  19  22
ATOM     22  O   UNL     1      -7.637  12.186  23.792  0.00  0.00    +0.000 OA
ATOM     23  H   UNL     1      -7.693  11.248  24.039  0.00  0.00    +0.000 HD
ENDBRANCH  19  22
ENDBRANCH   2  16
BRANCH  15  24
ATOM     24  C   UNL     1       0.007  16.157  21.682  0.00  0.00    +0.000 C 
ATOM     25  F   UNL     1       0.743  16.280  20.554  0.00  0.00    +0.000 F 
ATOM     26  F   UNL     1      -1.011  17.050  21.583  0.00  0.00    +0.000 F 
ATOM     27  F   UNL     1       0.789  16.573  22.706  0.00  0.00    +0.000 F 
ENDBRANCH  15  24
BRANCH   1  28
ATOM     28  C   UNL     1      -1.552  15.374  24.183  0.00  0.00    +0.000 C 
ATOM     29  O   UNL     1      -0.753  15.094  25.048  0.00  0.00    +0.000 OA
BRANCH  28  30
ATOM     30  O   UNL     1      -2.489  16.365  24.223  0.00  0.00    +0.000 OA
BRANCH  30  32
ATOM     31  C   UNL     1      -4.886  16.404  24.542  0.00  0.00    +0.000 C 
ATOM     32  C   UNL     1      -3.530  16.272  25.205  0.00  0.00    +0.000 C 
ENDBRANCH  30  32
ENDBRANCH  28  30
ENDBRANCH   1  28
BRANCH  15  33
ATOM     33  O   UNL     1       0.605  13.847  22.237  0.00  0.00    +0.000 OA
ATOM     34  H   UNL     1       0.327  13.066  22.742  0.00  0.00    +0.000 HD
ENDBRANCH  15  33
TORSDOF 7
ENDMDL
MODEL 8
REMARK VINA RESULT:      -6.5      2.171      5.666
REMARK  Name = 
REMARK  8 active torsions:
REMARK  status: ('A' for Active; 'I' for Inactive)
REMARK    1  A    between atoms: C_1  and  C_2
REMARK    2  A    between atoms: C_2  and  O_3
REMARK    3  A    between atoms: O_3  and  C_4
REMARK    4  A    between atoms: C_4  and  C_6
REMARK    5  A    between atoms: C_7  and  C_8
REMARK    6  A    between atoms: C_11  and  O_12
REMARK    7  A    between atoms: C_27  and  O_28
REMARK    8  A    between atoms: C_27  and  C_29
REMARK                            x       y       z     vdW  Elec       q    Type
REMARK                         _______ _______ _______ _____ _____    ______ ____
ROOT
ATOM      1  C   UNL     1       0.159  12.655  19.766  0.00  0.00    +0.000 C 
ATOM      2  C   UNL     1      -0.369  11.212  19.569  0.00  0.00    +0.000 C 
ATOM      3  C   UNL     1      -1.796  11.254  19.066  0.00  0.00    +0.000 A 
ATOM      4  C   UNL     1      -2.536  12.347  19.289  0.00  0.00    +0.000 A 
ATOM      5  C   UNL     1      -3.964  12.236  19.088  0.00  0.00    +0.000 A 
ATOM      6  C   UNL     1      -4.924  12.568  20.043  0.00  0.00    +0.000 A 
ATOM      7  C   UNL     1      -6.272  12.291  19.789  0.00  0.00    +0.000 A 
ATOM      8  C   UNL     1      -6.663  11.738  18.563  0.00  0.00    +0.000 A 
ATOM      9  C   UNL     1      -5.697  11.361  17.631  0.00  0.00    +0.000 A 
ATOM     10  C   UNL     1      -4.359  11.538  17.954  0.00  0.00    +0.000 A 
ATOM     11  O   UNL     1      -3.386  10.869  17.195  0.00  0.00    +0.000 OA
ATOM     12  C   UNL     1      -2.157  10.559  17.792  0.00  0.00    +0.000 A 
ATOM     13  O   UNL     1      -1.321   9.880  17.202  0.00  0.00    +0.000 OA
ATOM     14  O   UNL     1      -1.966  13.612  19.421  0.00  0.00    +0.000 OA
ATOM     15  C   UNL     1      -0.588  13.632  18.844  0.00  0.00    +0.000 C 
ENDROOT
BRANCH   2  16
ATOM     16  C   UNL     1      -0.267  10.482  20.912  0.00  0.00    +0.000 A 
ATOM     17  C   UNL     1      -1.081  10.856  22.003  0.00  0.00    +0.000 A 
ATOM     18  C   UNL     1      -0.834  10.374  23.287  0.00  0.00    +0.000 A 
ATOM     19  C   UNL     1       0.216   9.490  23.486  0.00  0.00    +0.000 A 
ATOM     20  C   UNL     1       0.984   9.044  22.416  0.00  0.00    +0.000 A 
ATOM     21  C   UNL     1       0.746   9.537  21.130  0.00  0.00    +0.000 A 
BRANCH  19  22
ATOM     22  O   UNL     1       0.543   9.059  24.738  0.00  0.00    +0.000 OA
ATOM     23  H   UNL     1       1.154   9.701  25.134  0.00  0.00    +0.000 HD
ENDBRANCH  19  22
ENDBRANCH   2  16
BRANCH  15  24
ATOM     24  C   UNL     1       0.000  15.086  18.888  0.00  0.00    +0.000 C 
ATOM     25  F   UNL     1      -0.758  15.972  18.203  0.00  0.00    +0.000 F 
ATOM     26  F   UNL     1       0.089  15.552  20.160  0.00  0.00    +0.000 F 
ATOM     27  F   UNL     1       1.247  15.149  18.364  0.00  0.00    +0.000 F 
ENDBRANCH  15  24
BRANCH   1  28
ATOM     28  C   UNL     1       1.667  12.662  19.692  0.00  0.00    +0.000 C 
ATOM     29  O   UNL     1       2.306  12.374  18.706  0.00  0.00    +0.000 OA
BRANCH  28  30
ATOM     30  O   UNL     1       2.161  12.998  20.919  0.00  0.00    +0.000 OA
BRANCH  30  32
ATOM     31  C   UNL     1       2.852  15.096  21.904  0.00  0.00    +0.000 C 
ATOM     32  C   UNL     1       3.228  13.954  20.981  0.00  0.00    +0.000 C 
ENDBRANCH  30  32
ENDBRANCH  28  30
ENDBRANCH   1  28
BRANCH  15  33
ATOM     33  O   UNL     1      -0.671  13.215  17.457  0.00  0.00    +0.000 OA
ATOM     34  H   UNL     1       0.197  13.236  17.023  0.00  0.00    +0.000 HD
ENDBRANCH  15  33
TORSDOF 7
ENDMDL
MODEL 9
REMARK VINA RESULT:      -6.4      0.929      1.280
REMARK  Name = 
REMARK  8 active torsions:
REMARK  status: ('A' for Active; 'I' for Inactive)
REMARK    1  A    between atoms: C_1  and  C_2
REMARK    2  A    between atoms: C_2  and  O_3
REMARK    3  A    between atoms: O_3  and  C_4
REMARK    4  A    between atoms: C_4  and  C_6
REMARK    5  A    between atoms: C_7  and  C_8
REMARK    6  A    between atoms: C_11  and  O_12
REMARK    7  A    between atoms: C_27  and  O_28
REMARK    8  A    between atoms: C_27  and  C_29
REMARK                            x       y       z     vdW  Elec       q    Type
REMARK                         _______ _______ _______ _____ _____    ______ ____
ROOT
ATOM      1  C   UNL     1      -0.966  13.499  20.090  0.00  0.00    +0.000 C 
ATOM      2  C   UNL     1      -1.671  12.196  20.539  0.00  0.00    +0.000 C 
ATOM      3  C   UNL     1      -0.706  11.033  20.446  0.00  0.00    +0.000 A 
ATOM      4  C   UNL     1       0.349  11.124  19.625  0.00  0.00    +0.000 A 
ATOM      5  C   UNL     1       1.058   9.902  19.317  0.00  0.00    +0.000 A 
ATOM      6  C   UNL     1       1.314   9.441  18.027  0.00  0.00    +0.000 A 
ATOM      7  C   UNL     1       1.889   8.178  17.848  0.00  0.00    +0.000 A 
ATOM      8  C   UNL     1       2.258   7.404  18.955  0.00  0.00    +0.000 A 
ATOM      9  C   UNL     1       1.955   7.845  20.243  0.00  0.00    +0.000 A 
ATOM     10  C   UNL     1       1.280   9.048  20.391  0.00  0.00    +0.000 A 
ATOM     11  O   UNL     1       0.677   9.339  21.625  0.00  0.00    +0.000 OA
ATOM     12  C   UNL     1      -0.432  10.193  21.652  0.00  0.00    +0.000 A 
ATOM     13  O   UNL     1      -1.056  10.387  22.692  0.00  0.00    +0.000 OA
ATOM     14  O   UNL     1       0.934  12.348  19.306  0.00  0.00    +0.000 OA
ATOM     15  C   UNL     1       0.553  13.391  20.305  0.00  0.00    +0.000 C 
ENDROOT
BRANCH   2  16
ATOM     16  C   UNL     1      -2.895  11.985  19.642  0.00  0.00    +0.000 A 
ATOM     17  C   UNL     1      -2.755  11.460  18.339  0.00  0.00    +0.000 A 
ATOM     18  C   UNL     1      -3.812  11.490  17.431  0.00  0.00    +0.000 A 
ATOM     19  C   UNL     1      -5.029  12.023  17.829  0.00  0.00    +0.000 A 
ATOM     20  C   UNL     1      -5.217  12.475  19.130  0.00  0.00    +0.000 A 
ATOM     21  C   UNL     1      -4.154  12.457  20.039  0.00  0.00    +0.000 A 
BRANCH  19  22
ATOM     22  O   UNL     1      -6.062  12.147  16.949  0.00  0.00    +0.000 OA
ATOM     23  H   UNL     1      -6.076  13.060  16.617  0.00  0.00    +0.000 HD
ENDBRANCH  19  22
ENDBRANCH   2  16
BRANCH  15  24
ATOM     24  C   UNL     1       1.310  14.733  20.007  0.00  0.00    +0.000 C 
ATOM     25  F   UNL     1       1.204  15.623  21.020  0.00  0.00    +0.000 F 
ATOM     26  F   UNL     1       2.637  14.526  19.808  0.00  0.00    +0.000 F 
ATOM     27  F   UNL     1       0.843  15.347  18.895  0.00  0.00    +0.000 F 
ENDBRANCH  15  24
BRANCH   1  28
ATOM     28  C   UNL     1      -1.658  14.693  20.701  0.00  0.00    +0.000 C 
ATOM     29  O   UNL     1      -2.099  15.627  20.071  0.00  0.00    +0.000 OA
BRANCH  28  30
ATOM     30  O   UNL     1      -1.652  14.551  22.058  0.00  0.00    +0.000 OA
BRANCH  30  32
ATOM     31  C   UNL     1      -3.504  13.868  23.457  0.00  0.00    +0.000 C 
ATOM     32  C   UNL     1      -2.788  15.027  22.794  0.00  0.00    +0.000 C 
ENDBRANCH  30  32
ENDBRANCH  28  30
ENDBRANCH   1  28
BRANCH  15  33
ATOM     33  O   UNL     1       0.949  12.926  21.621  0.00  0.00    +0.000 OA
ATOM     34  H   UNL     1       0.990  13.654  22.262  0.00  0.00    +0.000 HD
ENDBRANCH  15  33
TORSDOF 7
ENDMDL
