MODEL 1
REMARK VINA RESULT:      -7.8      0.000      0.000
REMARK  Name = 
REMARK  12 active torsions:
REMARK  status: ('A' for Active; 'I' for Inactive)
REMARK    1  A    between atoms: C_1  and  C_2
REMARK    2  A    between atoms: C_2  and  C_3
REMARK    3  A    between atoms: C_3  and  O_4
REMARK    4  A    between atoms: O_4  and  C_5
REMARK    5  A    between atoms: C_5  and  C_6
REMARK    6  A    between atoms: C_6  and  N_7
REMARK    7  A    between atoms: N_11  and  C_12
REMARK    8  A    between atoms: C_12  and  C_13
REMARK    9  A    between atoms: C_13  and  N_14
REMARK   10  A    between atoms: C_24  and  C_25
REMARK   11  A    between atoms: C_28  and  O_29
REMARK   12  A    between atoms: O_29  and  C_30
REMARK                            x       y       z     vdW  Elec       q    Type
REMARK                         _______ _______ _______ _____ _____    ______ ____
ROOT
ATOM      1  N   UNL     1       0.645   9.838  19.495  0.00  0.00    +0.000 N 
ATOM      2  C   UNL     1       1.455   8.745  19.179  0.00  0.00    +0.000 A 
ATOM      3  O   UNL     1       1.895   8.484  18.064  0.00  0.00    +0.000 OA
ATOM      4  C   UNL     1       1.754   7.738  20.309  0.00  0.00    +0.000 A 
ATOM      5  N   UNL     1       2.486   6.596  19.988  0.00  0.00    +0.000 N 
ATOM      6  N   UNL     1       1.297   7.925  21.517  0.00  0.00    +0.000 NA
ATOM      7  C   UNL     1       0.525   9.057  21.792  0.00  0.00    +0.000 A 
ATOM      8  C   UNL     1       0.035   9.247  23.081  0.00  0.00    +0.000 A 
ATOM      9  N   UNL     1      -0.716  10.301  23.486  0.00  0.00    +0.000 NA
ATOM     10  C   UNL     1      -0.998  11.246  22.560  0.00  0.00    +0.000 A 
ATOM     11  C   UNL     1      -0.588  11.112  21.231  0.00  0.00    +0.000 A 
ATOM     12  C   UNL     1       0.182  10.015  20.831  0.00  0.00    +0.000 A 
ATOM     13  H   UNL     1       2.572   6.451  18.981  0.00  0.00    +0.000 HD
ENDROOT
BRANCH  10  14
ATOM     14  C   UNL     1      -1.735  12.428  23.036  0.00  0.00    +0.000 A 
ATOM     15  C   UNL     1      -1.121  13.667  23.264  0.00  0.00    +0.000 A 
ATOM     16  C   UNL     1      -1.868  14.751  23.731  0.00  0.00    +0.000 A 
ATOM     17  C   UNL     1      -3.222  14.571  23.957  0.00  0.00    +0.000 A 
ATOM     18  N   UNL     1      -3.861  13.406  23.746  0.00  0.00    +0.000 NA
ATOM     19  C   UNL     1      -3.111  12.379  23.285  0.00  0.00    +0.000 A 
BRANCH  17  20
ATOM     20  O   UNL     1      -3.935  15.663  24.407  0.00  0.00    +0.000 OA
ATOM     21  C   UNL     1      -3.114  16.610  25.086  0.00  0.00    +0.000 C 
ENDBRANCH  17  20
ENDBRANCH  10  14
BRANCH   1  22
ATOM     22  C   UNL     1       0.185  10.673  18.383  0.00  0.00    +0.000 C 
BRANCH  22  23
ATOM     23  C   UNL     1      -1.107  10.127  17.767  0.00  0.00    +0.000 C 
BRANCH  23  24
ATOM     24  O   UNL     1      -2.187  11.041  17.969  0.00  0.00    +0.000 OA
BRANCH  24  25
ATOM     25  C   UNL     1      -2.933  11.198  16.759  0.00  0.00    +0.000 C 
BRANCH  25  27
ATOM     26  C   UNL     1      -3.359  10.169  14.513  0.00  0.00    +0.000 C 
ATOM     27  C   UNL     1      -2.803   9.942  15.910  0.00  0.00    +0.000 C 
ENDBRANCH  25  27
ENDBRANCH  24  25
ENDBRANCH  23  24
ENDBRANCH  22  23
ENDBRANCH   1  22
BRANCH   5  28
ATOM     28  C   UNL     1       2.256   5.390  20.781  0.00  0.00    +0.000 C 
BRANCH  28  29
ATOM     29  C   UNL     1       1.312   4.353  20.127  0.00  0.00    +0.000 C 
BRANCH  29  30
ATOM     30  N   UNL     1       1.914   3.002  20.125  0.00  0.00    +0.000 NA
ATOM     31  C   UNL     1       3.384   2.984  20.294  0.00  0.00    +0.000 C 
ATOM     32  C   UNL     1       4.178   3.277  19.012  0.00  0.00    +0.000 C 
ATOM     33  O   UNL     1       3.824   2.361  17.973  0.00  0.00    +0.000 OA
ATOM     34  C   UNL     1       2.425   2.457  17.686  0.00  0.00    +0.000 C 
ATOM     35  C   UNL     1       1.564   2.195  18.936  0.00  0.00    +0.000 C 
ENDBRANCH  29  30
ENDBRANCH  28  29
ENDBRANCH   5  28
TORSDOF 10
ENDMDL
MODEL 2
REMARK VINA RESULT:      -7.8      0.887      1.124
REMARK  Name = 
REMARK  12 active torsions:
REMARK  status: ('A' for Active; 'I' for Inactive)
REMARK    1  A    between atoms: C_1  and  C_2
REMARK    2  A    between atoms: C_2  and  C_3
REMARK    3  A    between atoms: C_3  and  O_4
REMARK    4  A    between atoms: O_4  and  C_5
REMARK    5  A    between atoms: C_5  and  C_6
REMARK    6  A    between atoms: C_6  and  N_7
REMARK    7  A    between atoms: N_11  and  C_12
REMARK    8  A    between atoms: C_12  and  C_13
REMARK    9  A    between atoms: C_13  and  N_14
REMARK   10  A    between atoms: C_24  and  C_25
REMARK   11  A    between atoms: C_28  and  O_29
REMARK   12  A    between atoms: O_29  and  C_30
REMARK                            x       y       z     vdW  Elec       q    Type
REMARK                         _______ _______ _______ _____ _____    ______ ____
ROOT
ATOM      1  N   UNL     1       0.460  10.480  19.256  0.00  0.00    +0.000 N 
ATOM      2  C   UNL     1       1.308   9.490  18.751  0.00  0.00    +0.000 A 
ATOM      3  O   UNL     1       1.696   9.410  17.591  0.00  0.00    +0.000 OA
ATOM      4  C   UNL     1       1.723   8.359  19.715  0.00  0.00    +0.000 A 
ATOM      5  N   UNL     1       2.494   7.317  19.203  0.00  0.00    +0.000 N 
ATOM      6  N   UNL     1       1.326   8.353  20.959  0.00  0.00    +0.000 NA
ATOM      7  C   UNL     1       0.511   9.389  21.425  0.00  0.00    +0.000 A 
ATOM      8  C   UNL     1       0.086   9.371  22.750  0.00  0.00    +0.000 A 
ATOM      9  N   UNL     1      -0.694  10.313  23.334  0.00  0.00    +0.000 NA
ATOM     10  C   UNL     1      -1.079  11.357  22.564  0.00  0.00    +0.000 A 
ATOM     11  C   UNL     1      -0.738  11.430  21.210  0.00  0.00    +0.000 A 
ATOM     12  C   UNL     1       0.065  10.446  20.625  0.00  0.00    +0.000 A 
ATOM     13  H   UNL     1       2.531   7.316  18.183  0.00  0.00    +0.000 HD
ENDROOT
BRANCH  10  14
ATOM     14  C   UNL     1      -1.848  12.417  23.235  0.00  0.00    +0.000 A 
ATOM     15  C   UNL     1      -3.183  12.256  23.630  0.00  0.00    +0.000 A 
ATOM     16  C   UNL     1      -3.869  13.302  24.250  0.00  0.00    +0.000 A 
ATOM     17  C   UNL     1      -3.198  14.494  24.467  0.00  0.00    +0.000 A 
ATOM     18  N   UNL     1      -1.915  14.697  24.116  0.00  0.00    +0.000 NA
ATOM     19  C   UNL     1      -1.277  13.660  23.526  0.00  0.00    +0.000 A 
BRANCH  17  20
ATOM     20  O   UNL     1      -3.898  15.505  25.092  0.00  0.00    +0.000 OA
ATOM     21  C   UNL     1      -3.218  16.756  25.035  0.00  0.00    +0.000 C 
ENDBRANCH  17  20
ENDBRANCH  10  14
BRANCH   1  22
ATOM     22  C   UNL     1      -0.105  11.429  18.294  0.00  0.00    +0.000 C 
BRANCH  22  23
ATOM     23  C   UNL     1      -1.614  11.223  18.122  0.00  0.00    +0.000 C 
BRANCH  23  24
ATOM     24  O   UNL     1      -1.886   9.938  17.559  0.00  0.00    +0.000 OA
BRANCH  24  25
ATOM     25  C   UNL     1      -3.064   9.993  16.750  0.00  0.00    +0.000 C 
BRANCH  25  27
ATOM     26  C   UNL     1      -3.658  10.109  14.317  0.00  0.00    +0.000 C 
ATOM     27  C   UNL     1      -2.732  10.627  15.407  0.00  0.00    +0.000 C 
ENDBRANCH  25  27
ENDBRANCH  24  25
ENDBRANCH  23  24
ENDBRANCH  22  23
ENDBRANCH   1  22
BRANCH   5  28
ATOM     28  C   UNL     1       2.374   6.003  19.831  0.00  0.00    +0.000 C 
BRANCH  28  29
ATOM     29  C   UNL     1       1.873   4.879  18.894  0.00  0.00    +0.000 C 
BRANCH  29  30
ATOM     30  N   UNL     1       1.822   3.577  19.592  0.00  0.00    +0.000 NA
ATOM     31  C   UNL     1       3.008   3.281  20.426  0.00  0.00    +0.000 C 
ATOM     32  C   UNL     1       4.221   2.751  19.647  0.00  0.00    +0.000 C 
ATOM     33  O   UNL     1       3.878   1.578  18.906  0.00  0.00    +0.000 OA
ATOM     34  C   UNL     1       2.823   1.869  17.983  0.00  0.00    +0.000 C 
ATOM     35  C   UNL     1       1.577   2.427  18.694  0.00  0.00    +0.000 C 
ENDBRANCH  29  30
ENDBRANCH  28  29
ENDBRANCH   5  28
TORSDOF 10
ENDMDL
MODEL 3
REMARK VINA RESULT:      -7.7      1.117      1.563
REMARK  Name = 
REMARK  12 active torsions:
REMARK  status: ('A' for Active; 'I' for Inactive)
REMARK    1  A    between atoms: C_1  and  C_2
REMARK    2  A    between atoms: C_2  and  C_3
REMARK    3  A    between atoms: C_3  and  O_4
REMARK    4  A    between atoms: O_4  and  C_5
REMARK    5  A    between atoms: C_5  and  C_6
REMARK    6  A    between atoms: C_6  and  N_7
REMARK    7  A    between atoms: N_11  and  C_12
REMARK    8  A    between atoms: C_12  and  C_13
REMARK    9  A    between atoms: C_13  and  N_14
REMARK   10  A    between atoms: C_24  and  C_25
REMARK   11  A    between atoms: C_28  and  O_29
REMARK   12  A    between atoms: O_29  and  C_30
REMARK                            x       y       z     vdW  Elec       q    Type
REMARK                         _______ _______ _______ _____ _____    ______ ____
ROOT
ATOM      1  N   UNL     1       0.262  10.114  19.238  0.00  0.00    +0.000 N 
ATOM      2  C   UNL     1       1.135   9.132  18.765  0.00  0.00    +0.000 A 
ATOM      3  O   UNL     1       1.410   8.932  17.586  0.00  0.00    +0.000 OA
ATOM      4  C   UNL     1       1.739   8.165  19.805  0.00  0.00    +0.000 A 
ATOM      5  N   UNL     1       2.541   7.125  19.339  0.00  0.00    +0.000 N 
ATOM      6  N   UNL     1       1.472   8.290  21.076  0.00  0.00    +0.000 NA
ATOM      7  C   UNL     1       0.624   9.316  21.503  0.00  0.00    +0.000 A 
ATOM      8  C   UNL     1       0.337   9.438  22.859  0.00  0.00    +0.000 A 
ATOM      9  N   UNL     1      -0.458  10.389  23.409  0.00  0.00    +0.000 NA
ATOM     10  C   UNL     1      -1.005  11.294  22.567  0.00  0.00    +0.000 A 
ATOM     11  C   UNL     1      -0.810  11.218  21.185  0.00  0.00    +0.000 A 
ATOM     12  C   UNL     1       0.011  10.227  20.636  0.00  0.00    +0.000 A 
ATOM     13  H   UNL     1       2.474   6.996  18.328  0.00  0.00    +0.000 HD
ENDROOT
BRANCH  10  14
ATOM     14  C   UNL     1      -1.790  12.374  23.187  0.00  0.00    +0.000 A 
ATOM     15  C   UNL     1      -3.110  12.202  23.624  0.00  0.00    +0.000 A 
ATOM     16  C   UNL     1      -3.812  13.266  24.193  0.00  0.00    +0.000 A 
ATOM     17  C   UNL     1      -3.172  14.488  24.317  0.00  0.00    +0.000 A 
ATOM     18  N   UNL     1      -1.903  14.704  23.922  0.00  0.00    +0.000 NA
ATOM     19  C   UNL     1      -1.249  13.649  23.384  0.00  0.00    +0.000 A 
BRANCH  17  20
ATOM     20  O   UNL     1      -3.887  15.518  24.892  0.00  0.00    +0.000 OA
ATOM     21  C   UNL     1      -3.084  16.669  25.140  0.00  0.00    +0.000 C 
ENDBRANCH  17  20
ENDBRANCH  10  14
BRANCH   1  22
ATOM     22  C   UNL     1      -0.476  10.890  18.238  0.00  0.00    +0.000 C 
BRANCH  22  23
ATOM     23  C   UNL     1      -1.814  10.229  17.889  0.00  0.00    +0.000 C 
BRANCH  23  24
ATOM     24  O   UNL     1      -2.001  10.186  16.472  0.00  0.00    +0.000 OA
BRANCH  24  25
ATOM     25  C   UNL     1      -3.310  10.650  16.133  0.00  0.00    +0.000 C 
BRANCH  25  27
ATOM     26  C   UNL     1      -5.230  11.965  17.065  0.00  0.00    +0.000 C 
ATOM     27  C   UNL     1      -4.048  11.067  17.396  0.00  0.00    +0.000 C 
ENDBRANCH  25  27
ENDBRANCH  24  25
ENDBRANCH  23  24
ENDBRANCH  22  23
ENDBRANCH   1  22
BRANCH   5  28
ATOM     28  C   UNL     1       2.596   5.896  20.129  0.00  0.00    +0.000 C 
BRANCH  28  29
ATOM     29  C   UNL     1       3.578   4.826  19.598  0.00  0.00    +0.000 C 
BRANCH  29  30
ATOM     30  N   UNL     1       3.260   3.487  20.138  0.00  0.00    +0.000 NA
ATOM     31  C   UNL     1       3.563   2.367  19.219  0.00  0.00    +0.000 C 
ATOM     32  C   UNL     1       2.500   2.121  18.139  0.00  0.00    +0.000 C 
ATOM     33  O   UNL     1       1.217   1.895  18.730  0.00  0.00    +0.000 OA
ATOM     34  C   UNL     1       0.829   3.028  19.515  0.00  0.00    +0.000 C 
ATOM     35  C   UNL     1       1.865   3.348  20.609  0.00  0.00    +0.000 C 
ENDBRANCH  29  30
ENDBRANCH  28  29
ENDBRANCH   5  28
TORSDOF 10
ENDMDL
MODEL 4
REMARK VINA RESULT:      -7.5      0.898      1.045
REMARK  Name = 
REMARK  12 active torsions:
REMARK  status: ('A' for Active; 'I' for Inactive)
REMARK    1  A    between atoms: C_1  and  C_2
REMARK    2  A    between atoms: C_2  and  C_3
REMARK    3  A    between atoms: C_3  and  O_4
REMARK    4  A    between atoms: O_4  and  C_5
REMARK    5  A    between atoms: C_5  and  C_6
REMARK    6  A    between atoms: C_6  and  N_7
REMARK    7  A    between atoms: N_11  and  C_12
REMARK    8  A    between atoms: C_12  and  C_13
REMARK    9  A    between atoms: C_13  and  N_14
REMARK   10  A    between atoms: C_24  and  C_25
REMARK   11  A    between atoms: C_28  and  O_29
REMARK   12  A    between atoms: O_29  and  C_30
REMARK                            x       y       z     vdW  Elec       q    Type
REMARK                         _______ _______ _______ _____ _____    ______ ____
ROOT
ATOM      1  N   UNL     1       0.394  10.596  19.416  0.00  0.00    +0.000 N 
ATOM      2  C   UNL     1       1.198   9.550  18.957  0.00  0.00    +0.000 A 
ATOM      3  O   UNL     1       1.608   9.419  17.808  0.00  0.00    +0.000 OA
ATOM      4  C   UNL     1       1.527   8.422  19.957  0.00  0.00    +0.000 A 
ATOM      5  N   UNL     1       2.251   7.327  19.490  0.00  0.00    +0.000 N 
ATOM      6  N   UNL     1       1.101   8.469  21.190  0.00  0.00    +0.000 NA
ATOM      7  C   UNL     1       0.334   9.559  21.612  0.00  0.00    +0.000 A 
ATOM      8  C   UNL     1      -0.123   9.598  22.925  0.00  0.00    +0.000 A 
ATOM      9  N   UNL     1      -0.864  10.596  23.467  0.00  0.00    +0.000 NA
ATOM     10  C   UNL     1      -1.172  11.639  22.662  0.00  0.00    +0.000 A 
ATOM     11  C   UNL     1      -0.796  11.659  21.317  0.00  0.00    +0.000 A 
ATOM     12  C   UNL     1      -0.034  10.618  20.775  0.00  0.00    +0.000 A 
ATOM     13  H   UNL     1       2.312   7.298  18.471  0.00  0.00    +0.000 HD
ENDROOT
BRANCH  10  14
ATOM     14  C   UNL     1      -1.897  12.755  23.289  0.00  0.00    +0.000 A 
ATOM     15  C   UNL     1      -1.280  13.963  23.643  0.00  0.00    +0.000 A 
ATOM     16  C   UNL     1      -2.015  14.983  24.248  0.00  0.00    +0.000 A 
ATOM     17  C   UNL     1      -3.364  14.774  24.485  0.00  0.00    +0.000 A 
ATOM     18  N   UNL     1      -4.006  13.638  24.156  0.00  0.00    +0.000 NA
ATOM     19  C   UNL     1      -3.267  12.674  23.563  0.00  0.00    +0.000 A 
BRANCH  17  20
ATOM     20  O   UNL     1      -4.066  15.804  25.074  0.00  0.00    +0.000 OA
ATOM     21  C   UNL     1      -3.434  17.069  24.895  0.00  0.00    +0.000 C 
ENDBRANCH  17  20
ENDBRANCH  10  14
BRANCH   1  22
ATOM     22  C   UNL     1      -0.095  11.551  18.418  0.00  0.00    +0.000 C 
BRANCH  22  23
ATOM     23  C   UNL     1      -1.609  11.422  18.212  0.00  0.00    +0.000 C 
BRANCH  23  24
ATOM     24  O   UNL     1      -1.907  10.337  17.332  0.00  0.00    +0.000 OA
BRANCH  24  25
ATOM     25  C   UNL     1      -2.483  10.829  16.120  0.00  0.00    +0.000 C 
BRANCH  25  27
ATOM     26  C   UNL     1      -3.584  10.152  13.972  0.00  0.00    +0.000 C 
ATOM     27  C   UNL     1      -3.007   9.666  15.292  0.00  0.00    +0.000 C 
ENDBRANCH  25  27
ENDBRANCH  24  25
ENDBRANCH  23  24
ENDBRANCH  22  23
ENDBRANCH   1  22
BRANCH   5  28
ATOM     28  C   UNL     1       2.043   6.037  20.145  0.00  0.00    +0.000 C 
BRANCH  28  29
ATOM     29  C   UNL     1       3.173   5.005  19.921  0.00  0.00    +0.000 C 
BRANCH  29  30
ATOM     30  N   UNL     1       2.844   3.702  20.538  0.00  0.00    +0.000 NA
ATOM     31  C   UNL     1       3.627   2.561  20.016  0.00  0.00    +0.000 C 
ATOM     32  C   UNL     1       3.118   1.993  18.683  0.00  0.00    +0.000 C 
ATOM     33  O   UNL     1       1.748   1.599  18.787  0.00  0.00    +0.000 OA
ATOM     34  C   UNL     1       0.938   2.722  19.154  0.00  0.00    +0.000 C 
ATOM     35  C   UNL     1       1.407   3.358  20.476  0.00  0.00    +0.000 C 
ENDBRANCH  29  30
ENDBRANCH  28  29
ENDBRANCH   5  28
TORSDOF 10
ENDMDL
MODEL 5
REMARK VINA RESULT:      -7.5      1.206      1.595
REMARK  Name = 
REMARK  12 active torsions:
REMARK  status: ('A' for Active; 'I' for Inactive)
REMARK    1  A    between atoms: C_1  and  C_2
REMARK    2  A    between atoms: C_2  and  C_3
REMARK    3  A    between atoms: C_3  and  O_4
REMARK    4  A    between atoms: O_4  and  C_5
REMARK    5  A    between atoms: C_5  and  C_6
REMARK    6  A    between atoms: C_6  and  N_7
REMARK    7  A    between atoms: N_11  and  C_12
REMARK    8  A    between atoms: C_12  and  C_13
REMARK    9  A    between atoms: C_13  and  N_14
REMARK   10  A    between atoms: C_24  and  C_25
REMARK   11  A    between atoms: C_28  and  O_29
REMARK   12  A    between atoms: O_29  and  C_30
REMARK                            x       y       z     vdW  Elec       q    Type
REMARK                         _______ _______ _______ _____ _____    ______ ____
ROOT
ATOM      1  N   UNL     1       0.356  10.624  19.215  0.00  0.00    +0.000 N 
ATOM      2  C   UNL     1       1.175   9.617  18.700  0.00  0.00    +0.000 A 
ATOM      3  O   UNL     1       1.492   9.489  17.522  0.00  0.00    +0.000 OA
ATOM      4  C   UNL     1       1.654   8.527  19.682  0.00  0.00    +0.000 A 
ATOM      5  N   UNL     1       2.398   7.467  19.167  0.00  0.00    +0.000 N 
ATOM      6  N   UNL     1       1.335   8.571  20.947  0.00  0.00    +0.000 NA
ATOM      7  C   UNL     1       0.546   9.624  21.420  0.00  0.00    +0.000 A 
ATOM      8  C   UNL     1       0.203   9.660  22.768  0.00  0.00    +0.000 A 
ATOM      9  N   UNL     1      -0.544  10.624  23.360  0.00  0.00    +0.000 NA
ATOM     10  C   UNL     1      -0.980  11.634  22.572  0.00  0.00    +0.000 A 
ATOM     11  C   UNL     1      -0.725  11.652  21.199  0.00  0.00    +0.000 A 
ATOM     12  C   UNL     1       0.046  10.646  20.606  0.00  0.00    +0.000 A 
ATOM     13  H   UNL     1       2.372   7.424  18.147  0.00  0.00    +0.000 HD
ENDROOT
BRANCH  10  14
ATOM     14  C   UNL     1      -1.712  12.719  23.246  0.00  0.00    +0.000 A 
ATOM     15  C   UNL     1      -1.132  13.959  23.544  0.00  0.00    +0.000 A 
ATOM     16  C   UNL     1      -1.871  14.947  24.198  0.00  0.00    +0.000 A 
ATOM     17  C   UNL     1      -3.185  14.673  24.539  0.00  0.00    +0.000 A 
ATOM     18  N   UNL     1      -3.791  13.502  24.267  0.00  0.00    +0.000 NA
ATOM     19  C   UNL     1      -3.051  12.571  23.625  0.00  0.00    +0.000 A 
BRANCH  17  20
ATOM     20  O   UNL     1      -3.892  15.672  25.174  0.00  0.00    +0.000 OA
ATOM     21  C   UNL     1      -4.897  16.244  24.341  0.00  0.00    +0.000 C 
ENDBRANCH  17  20
ENDBRANCH  10  14
BRANCH   1  22
ATOM     22  C   UNL     1      -0.273  11.532  18.252  0.00  0.00    +0.000 C 
BRANCH  22  23
ATOM     23  C   UNL     1      -1.797  11.371  18.240  0.00  0.00    +0.000 C 
BRANCH  23  24
ATOM     24  O   UNL     1      -2.159  10.016  17.968  0.00  0.00    +0.000 OA
BRANCH  24  25
ATOM     25  C   UNL     1      -2.092   9.760  16.563  0.00  0.00    +0.000 C 
BRANCH  25  27
ATOM     26  C   UNL     1      -3.272  10.149  14.386  0.00  0.00    +0.000 C 
ATOM     27  C   UNL     1      -3.167  10.562  15.845  0.00  0.00    +0.000 C 
ENDBRANCH  25  27
ENDBRANCH  24  25
ENDBRANCH  23  24
ENDBRANCH  22  23
ENDBRANCH   1  22
BRANCH   5  28
ATOM     28  C   UNL     1       2.322   6.179  19.854  0.00  0.00    +0.000 C 
BRANCH  28  29
ATOM     29  C   UNL     1       3.536   5.249  19.625  0.00  0.00    +0.000 C 
BRANCH  29  30
ATOM     30  N   UNL     1       3.106   3.886  19.245  0.00  0.00    +0.000 NA
ATOM     31  C   UNL     1       1.648   3.736  19.039  0.00  0.00    +0.000 C 
ATOM     32  C   UNL     1       0.834   3.571  20.331  0.00  0.00    +0.000 C 
ATOM     33  O   UNL     1       1.307   2.456  21.091  0.00  0.00    +0.000 OA
ATOM     34  C   UNL     1       2.686   2.638  21.430  0.00  0.00    +0.000 C 
ATOM     35  C   UNL     1       3.562   2.834  20.179  0.00  0.00    +0.000 C 
ENDBRANCH  29  30
ENDBRANCH  28  29
ENDBRANCH   5  28
TORSDOF 10
ENDMDL
MODEL 6
REMARK VINA RESULT:      -7.4      1.404      1.852
REMARK  Name = 
REMARK  12 active torsions:
REMARK  status: ('A' for Active; 'I' for Inactive)
REMARK    1  A    between atoms: C_1  and  C_2
REMARK    2  A    between atoms: C_2  and  C_3
REMARK    3  A    between atoms: C_3  and  O_4
REMARK    4  A    between atoms: O_4  and  C_5
REMARK    5  A    between atoms: C_5  and  C_6
REMARK    6  A    between atoms: C_6  and  N_7
REMARK    7  A    between atoms: N_11  and  C_12
REMARK    8  A    between atoms: C_12  and  C_13
REMARK    9  A    between atoms: C_13  and  N_14
REMARK   10  A    between atoms: C_24  and  C_25
REMARK   11  A    between atoms: C_28  and  O_29
REMARK   12  A    between atoms: O_29  and  C_30
REMARK                            x       y       z     vdW  Elec       q    Type
REMARK                         _______ _______ _______ _____ _____    ______ ____
ROOT
ATOM      1  N   UNL     1       0.224  10.544  19.077  0.00  0.00    +0.000 N 
ATOM      2  C   UNL     1       1.103   9.610  18.524  0.00  0.00    +0.000 A 
ATOM      3  O   UNL     1       1.365   9.499  17.330  0.00  0.00    +0.000 OA
ATOM      4  C   UNL     1       1.733   8.579  19.484  0.00  0.00    +0.000 A 
ATOM      5  N   UNL     1       2.541   7.586  18.934  0.00  0.00    +0.000 N 
ATOM      6  N   UNL     1       1.481   8.608  20.764  0.00  0.00    +0.000 NA
ATOM      7  C   UNL     1       0.626   9.590  21.274  0.00  0.00    +0.000 A 
ATOM      8  C   UNL     1       0.357   9.609  22.639  0.00  0.00    +0.000 A 
ATOM      9  N   UNL     1      -0.442  10.508  23.266  0.00  0.00    +0.000 NA
ATOM     10  C   UNL     1      -1.012  11.465  22.498  0.00  0.00    +0.000 A 
ATOM     11  C   UNL     1      -0.835  11.491  21.112  0.00  0.00    +0.000 A 
ATOM     12  C   UNL     1      -0.009  10.553  20.483  0.00  0.00    +0.000 A 
ATOM     13  H   UNL     1       2.463   7.529  17.917  0.00  0.00    +0.000 HD
ENDROOT
BRANCH  10  14
ATOM     14  C   UNL     1      -1.801  12.486  23.205  0.00  0.00    +0.000 A 
ATOM     15  C   UNL     1      -3.135  12.289  23.587  0.00  0.00    +0.000 A 
ATOM     16  C   UNL     1      -3.841  13.299  24.243  0.00  0.00    +0.000 A 
ATOM     17  C   UNL     1      -3.191  14.493  24.508  0.00  0.00    +0.000 A 
ATOM     18  N   UNL     1      -1.909  14.730  24.171  0.00  0.00    +0.000 NA
ATOM     19  C   UNL     1      -1.253  13.727  23.546  0.00  0.00    +0.000 A 
BRANCH  17  20
ATOM     20  O   UNL     1      -3.910  15.468  25.167  0.00  0.00    +0.000 OA
ATOM     21  C   UNL     1      -4.832  16.140  24.312  0.00  0.00    +0.000 C 
ENDBRANCH  17  20
ENDBRANCH  10  14
BRANCH   1  22
ATOM     22  C   UNL     1      -0.537  11.380  18.145  0.00  0.00    +0.000 C 
BRANCH  22  23
ATOM     23  C   UNL     1      -1.799  10.666  17.652  0.00  0.00    +0.000 C 
BRANCH  23  24
ATOM     24  O   UNL     1      -2.653  11.575  16.954  0.00  0.00    +0.000 OA
BRANCH  24  25
ATOM     25  C   UNL     1      -3.824  10.897  16.492  0.00  0.00    +0.000 C 
BRANCH  25  27
ATOM     26  C   UNL     1      -5.548  10.938  18.311  0.00  0.00    +0.000 C 
ATOM     27  C   UNL     1      -5.065  11.595  17.028  0.00  0.00    +0.000 C 
ENDBRANCH  25  27
ENDBRANCH  24  25
ENDBRANCH  23  24
ENDBRANCH  22  23
ENDBRANCH   1  22
BRANCH   5  28
ATOM     28  C   UNL     1       2.622   6.304  19.632  0.00  0.00    +0.000 C 
BRANCH  28  29
ATOM     29  C   UNL     1       2.530   5.060  18.719  0.00  0.00    +0.000 C 
BRANCH  29  30
ATOM     30  N   UNL     1       1.341   4.242  19.039  0.00  0.00    +0.000 NA
ATOM     31  C   UNL     1       0.970   4.232  20.471  0.00  0.00    +0.000 C 
ATOM     32  C   UNL     1       1.795   3.269  21.338  0.00  0.00    +0.000 C 
ATOM     33  O   UNL     1       1.714   1.933  20.834  0.00  0.00    +0.000 OA
ATOM     34  C   UNL     1       2.203   1.883  19.489  0.00  0.00    +0.000 C 
ATOM     35  C   UNL     1       1.433   2.844  18.564  0.00  0.00    +0.000 C 
ENDBRANCH  29  30
ENDBRANCH  28  29
ENDBRANCH   5  28
TORSDOF 10
ENDMDL
MODEL 7
REMARK VINA RESULT:      -7.3      1.450      2.178
REMARK  Name = 
REMARK  12 active torsions:
REMARK  status: ('A' for Active; 'I' for Inactive)
REMARK    1  A    between atoms: C_1  and  C_2
REMARK    2  A    between atoms: C_2  and  C_3
REMARK    3  A    between atoms: C_3  and  O_4
REMARK    4  A    between atoms: O_4  and  C_5
REMARK    5  A    between atoms: C_5  and  C_6
REMARK    6  A    between atoms: C_6  and  N_7
REMARK    7  A    between atoms: N_11  and  C_12
REMARK    8  A    between atoms: C_12  and  C_13
REMARK    9  A    between atoms: C_13  and  N_14
REMARK   10  A    between atoms: C_24  and  C_25
REMARK   11  A    between atoms: C_28  and  O_29
REMARK   12  A    between atoms: O_29  and  C_30
REMARK                            x       y       z     vdW  Elec       q    Type
REMARK                         _______ _______ _______ _____ _____    ______ ____
ROOT
ATOM      1  N   UNL     1       0.145  10.214  19.183  0.00  0.00    +0.000 N 
ATOM      2  C   UNL     1       1.027   9.254  18.681  0.00  0.00    +0.000 A 
ATOM      3  O   UNL     1       1.268   9.061  17.494  0.00  0.00    +0.000 OA
ATOM      4  C   UNL     1       1.691   8.305  19.700  0.00  0.00    +0.000 A 
ATOM      5  N   UNL     1       2.503   7.286  19.207  0.00  0.00    +0.000 N 
ATOM      6  N   UNL     1       1.462   8.423  20.979  0.00  0.00    +0.000 NA
ATOM      7  C   UNL     1       0.602   9.426  21.435  0.00  0.00    +0.000 A 
ATOM      8  C   UNL     1       0.358   9.541  22.799  0.00  0.00    +0.000 A 
ATOM      9  N   UNL     1      -0.443  10.471  23.376  0.00  0.00    +0.000 NA
ATOM     10  C   UNL     1      -1.041  11.362  22.552  0.00  0.00    +0.000 A 
ATOM     11  C   UNL     1      -0.891  11.290  21.165  0.00  0.00    +0.000 A 
ATOM     12  C   UNL     1      -0.062  10.321  20.589  0.00  0.00    +0.000 A 
ATOM     13  H   UNL     1       2.407   7.154  18.199  0.00  0.00    +0.000 HD
ENDROOT
BRANCH  10  14
ATOM     14  C   UNL     1      -1.833  12.421  23.199  0.00  0.00    +0.000 A 
ATOM     15  C   UNL     1      -3.144  12.222  23.655  0.00  0.00    +0.000 A 
ATOM     16  C   UNL     1      -3.853  13.268  24.248  0.00  0.00    +0.000 A 
ATOM     17  C   UNL     1      -3.231  14.498  24.377  0.00  0.00    +0.000 A 
ATOM     18  N   UNL     1      -1.972  14.739  23.965  0.00  0.00    +0.000 NA
ATOM     19  C   UNL     1      -1.311  13.702  23.404  0.00  0.00    +0.000 A 
BRANCH  17  20
ATOM     20  O   UNL     1      -3.953  15.508  24.977  0.00  0.00    +0.000 OA
ATOM     21  C   UNL     1      -5.003  15.997  24.147  0.00  0.00    +0.000 C 
ENDBRANCH  17  20
ENDBRANCH  10  14
BRANCH   1  22
ATOM     22  C   UNL     1      -0.646  10.970  18.208  0.00  0.00    +0.000 C 
BRANCH  22  23
ATOM     23  C   UNL     1      -1.639  10.066  17.468  0.00  0.00    +0.000 C 
BRANCH  23  24
ATOM     24  O   UNL     1      -2.980  10.519  17.670  0.00  0.00    +0.000 OA
BRANCH  24  25
ATOM     25  C   UNL     1      -2.980  11.750  18.397  0.00  0.00    +0.000 C 
BRANCH  25  27
ATOM     26  C   UNL     1      -4.283  12.873  20.220  0.00  0.00    +0.000 C 
ATOM     27  C   UNL     1      -4.364  12.002  18.976  0.00  0.00    +0.000 C 
ENDBRANCH  25  27
ENDBRANCH  24  25
ENDBRANCH  23  24
ENDBRANCH  22  23
ENDBRANCH   1  22
BRANCH   5  28
ATOM     28  C   UNL     1       2.617   6.059  19.994  0.00  0.00    +0.000 C 
BRANCH  28  29
ATOM     29  C   UNL     1       3.723   5.086  19.525  0.00  0.00    +0.000 C 
BRANCH  29  30
ATOM     30  N   UNL     1       3.170   3.753  19.206  0.00  0.00    +0.000 NA
ATOM     31  C   UNL     1       1.707   3.732  18.983  0.00  0.00    +0.000 C 
ATOM     32  C   UNL     1       0.865   3.711  20.268  0.00  0.00    +0.000 C 
ATOM     33  O   UNL     1       1.219   2.597  21.090  0.00  0.00    +0.000 OA
ATOM     34  C   UNL     1       2.605   2.664  21.443  0.00  0.00    +0.000 C 
ATOM     35  C   UNL     1       3.512   2.711  20.199  0.00  0.00    +0.000 C 
ENDBRANCH  29  30
ENDBRANCH  28  29
ENDBRANCH   5  28
TORSDOF 10
ENDMDL
MODEL 8
REMARK VINA RESULT:      -7.3      1.187      1.438
REMARK  Name = 
REMARK  12 active torsions:
REMARK  status: ('A' for Active; 'I' for Inactive)
REMARK    1  A    between atoms: C_1  and  C_2
REMARK    2  A    between atoms: C_2  and  C_3
REMARK    3  A    between atoms: C_3  and  O_4
REMARK    4  A    between atoms: O_4  and  C_5
REMARK    5  A    between atoms: C_5  and  C_6
REMARK    6  A    between atoms: C_6  and  N_7
REMARK    7  A    between atoms: N_11  and  C_12
REMARK    8  A    between atoms: C_12  and  C_13
REMARK    9  A    between atoms: C_13  and  N_14
REMARK   10  A    between atoms: C_24  and  C_25
REMARK   11  A    between atoms: C_28  and  O_29
REMARK   12  A    between atoms: O_29  and  C_30
REMARK                            x       y       z     vdW  Elec       q    Type
REMARK                         _______ _______ _______ _____ _____    ______ ____
ROOT
ATOM      1  N   UNL     1       0.189  10.408  19.300  0.00  0.00    +0.000 N 
ATOM      2  C   UNL     1       1.045   9.389  18.876  0.00  0.00    +0.000 A 
ATOM      3  O   UNL     1       1.386   9.182  17.716  0.00  0.00    +0.000 OA
ATOM      4  C   UNL     1       1.538   8.391  19.945  0.00  0.00    +0.000 A 
ATOM      5  N   UNL     1       2.320   7.318  19.524  0.00  0.00    +0.000 N 
ATOM      6  N   UNL     1       1.195   8.522  21.198  0.00  0.00    +0.000 NA
ATOM      7  C   UNL     1       0.369   9.583  21.578  0.00  0.00    +0.000 A 
ATOM      8  C   UNL     1       0.001   9.711  22.913  0.00  0.00    +0.000 A 
ATOM      9  N   UNL     1      -0.784  10.695  23.419  0.00  0.00    +0.000 NA
ATOM     10  C   UNL     1      -1.234  11.628  22.550  0.00  0.00    +0.000 A 
ATOM     11  C   UNL     1      -0.955  11.550  21.183  0.00  0.00    +0.000 A 
ATOM     12  C   UNL     1      -0.146  10.526  20.680  0.00  0.00    +0.000 A 
ATOM     13  H   UNL     1       2.313   7.197  18.510  0.00  0.00    +0.000 HD
ENDROOT
BRANCH  10  14
ATOM     14  C   UNL     1      -2.009  12.739  23.127  0.00  0.00    +0.000 A 
ATOM     15  C   UNL     1      -1.410  13.882  23.673  0.00  0.00    +0.000 A 
ATOM     16  C   UNL     1      -2.195  14.899  24.221  0.00  0.00    +0.000 A 
ATOM     17  C   UNL     1      -3.572  14.751  24.207  0.00  0.00    +0.000 A 
ATOM     18  N   UNL     1      -4.196  13.678  23.688  0.00  0.00    +0.000 NA
ATOM     19  C   UNL     1      -3.407  12.716  23.157  0.00  0.00    +0.000 A 
BRANCH  17  20
ATOM     20  O   UNL     1      -4.320  15.776  24.746  0.00  0.00    +0.000 OA
ATOM     21  C   UNL     1      -5.579  15.933  24.096  0.00  0.00    +0.000 C 
ENDBRANCH  17  20
ENDBRANCH  10  14
BRANCH   1  22
ATOM     22  C   UNL     1      -0.448  11.221  18.261  0.00  0.00    +0.000 C 
BRANCH  22  23
ATOM     23  C   UNL     1      -1.692  10.530  17.690  0.00  0.00    +0.000 C 
BRANCH  23  24
ATOM     24  O   UNL     1      -2.638  11.497  17.228  0.00  0.00    +0.000 OA
BRANCH  24  25
ATOM     25  C   UNL     1      -3.930  10.900  17.099  0.00  0.00    +0.000 C 
BRANCH  25  27
ATOM     26  C   UNL     1      -6.142  10.930  18.277  0.00  0.00    +0.000 C 
ATOM     27  C   UNL     1      -4.967  11.766  17.798  0.00  0.00    +0.000 C 
ENDBRANCH  25  27
ENDBRANCH  24  25
ENDBRANCH  23  24
ENDBRANCH  22  23
ENDBRANCH   1  22
BRANCH   5  28
ATOM     28  C   UNL     1       2.270   6.084  20.306  0.00  0.00    +0.000 C 
BRANCH  28  29
ATOM     29  C   UNL     1       3.298   5.008  19.889  0.00  0.00    +0.000 C 
BRANCH  29  30
ATOM     30  N   UNL     1       2.863   3.656  20.302  0.00  0.00    +0.000 NA
ATOM     31  C   UNL     1       3.705   2.555  19.783  0.00  0.00    +0.000 C 
ATOM     32  C   UNL     1       3.402   2.148  18.334  0.00  0.00    +0.000 C 
ATOM     33  O   UNL     1       2.027   1.784  18.183  0.00  0.00    +0.000 OA
ATOM     34  C   UNL     1       1.184   2.884  18.543  0.00  0.00    +0.000 C 
ATOM     35  C   UNL     1       1.449   3.362  19.983  0.00  0.00    +0.000 C 
ENDBRANCH  29  30
ENDBRANCH  28  29
ENDBRANCH   5  28
TORSDOF 10
ENDMDL
MODEL 9
REMARK VINA RESULT:      -7.3      1.112      1.505
REMARK  Name = 
REMARK  12 active torsions:
REMARK  status: ('A' for Active; 'I' for Inactive)
REMARK    1  A    between atoms: C_1  and  C_2
REMARK    2  A    between atoms: C_2  and  C_3
REMARK    3  A    between atoms: C_3  and  O_4
REMARK    4  A    between atoms: O_4  and  C_5
REMARK    5  A    between atoms: C_5  and  C_6
REMARK    6  A    between atoms: C_6  and  N_7
REMARK    7  A    between atoms: N_11  and  C_12
REMARK    8  A    between atoms: C_12  and  C_13
REMARK    9  A    between atoms: C_13  and  N_14
REMARK   10  A    between atoms: C_24  and  C_25
REMARK   11  A    between atoms: C_28  and  O_29
REMARK   12  A    between atoms: O_29  and  C_30
REMARK                            x       y       z     vdW  Elec       q    Type
REMARK                         _______ _______ _______ _____ _____    ______ ____
ROOT
ATOM      1  N   UNL     1       0.402  10.293  19.555  0.00  0.00    +0.000 N 
ATOM      2  C   UNL     1       1.246   9.247  19.174  0.00  0.00    +0.000 A 
ATOM      3  O   UNL     1       1.679   9.059  18.042  0.00  0.00    +0.000 OA
ATOM      4  C   UNL     1       1.597   8.196  20.248  0.00  0.00    +0.000 A 
ATOM      5  N   UNL     1       2.365   7.100  19.861  0.00  0.00    +0.000 N 
ATOM      6  N   UNL     1       1.150   8.306  21.470  0.00  0.00    +0.000 NA
ATOM      7  C   UNL     1       0.341   9.393  21.811  0.00  0.00    +0.000 A 
ATOM      8  C   UNL     1      -0.137   9.499  23.113  0.00  0.00    +0.000 A 
ATOM      9  N   UNL     1      -0.920  10.503  23.581  0.00  0.00    +0.000 NA
ATOM     10  C   UNL     1      -1.249  11.482  22.708  0.00  0.00    +0.000 A 
ATOM     11  C   UNL     1      -0.853  11.431  21.369  0.00  0.00    +0.000 A 
ATOM     12  C   UNL     1      -0.049  10.385  20.904  0.00  0.00    +0.000 A 
ATOM     13  H   UNL     1       2.443   7.009  18.847  0.00  0.00    +0.000 HD
ENDROOT
BRANCH  10  14
ATOM     14  C   UNL     1      -2.021  12.611  23.252  0.00  0.00    +0.000 A 
ATOM     15  C   UNL     1      -3.397  12.540  23.507  0.00  0.00    +0.000 A 
ATOM     16  C   UNL     1      -4.082  13.648  24.011  0.00  0.00    +0.000 A 
ATOM     17  C   UNL     1      -3.369  14.811  24.254  0.00  0.00    +0.000 A 
ATOM     18  N   UNL     1      -2.046  14.928  24.035  0.00  0.00    +0.000 NA
ATOM     19  C   UNL     1      -1.412  13.833  23.556  0.00  0.00    +0.000 A 
BRANCH  17  20
ATOM     20  O   UNL     1      -4.070  15.884  24.761  0.00  0.00    +0.000 OA
ATOM     21  C   UNL     1      -3.248  17.034  24.950  0.00  0.00    +0.000 C 
ENDBRANCH  17  20
ENDBRANCH  10  14
BRANCH   1  22
ATOM     22  C   UNL     1      -0.104  11.165  18.493  0.00  0.00    +0.000 C 
BRANCH  22  23
ATOM     23  C   UNL     1      -1.461  10.684  17.968  0.00  0.00    +0.000 C 
BRANCH  23  24
ATOM     24  O   UNL     1      -2.405  11.757  17.955  0.00  0.00    +0.000 OA
BRANCH  24  25
ATOM     25  C   UNL     1      -3.733  11.246  18.104  0.00  0.00    +0.000 C 
BRANCH  25  27
ATOM     26  C   UNL     1      -5.784  12.337  17.163  0.00  0.00    +0.000 C 
ATOM     27  C   UNL     1      -4.535  11.531  16.843  0.00  0.00    +0.000 C 
ENDBRANCH  25  27
ENDBRANCH  24  25
ENDBRANCH  23  24
ENDBRANCH  22  23
ENDBRANCH   1  22
BRANCH   5  28
ATOM     28  C   UNL     1       2.190   5.848  20.594  0.00  0.00    +0.000 C 
BRANCH  28  29
ATOM     29  C   UNL     1       2.190   4.575  19.715  0.00  0.00    +0.000 C 
BRANCH  29  30
ATOM     30  N   UNL     1       3.544   3.990  19.611  0.00  0.00    +0.000 NA
ATOM     31  C   UNL     1       4.250   4.298  18.348  0.00  0.00    +0.000 C 
ATOM     32  C   UNL     1       3.842   3.419  17.157  0.00  0.00    +0.000 C 
ATOM     33  O   UNL     1       4.025   2.034  17.459  0.00  0.00    +0.000 OA
ATOM     34  C   UNL     1       3.238   1.669  18.598  0.00  0.00    +0.000 C 
ATOM     35  C   UNL     1       3.580   2.528  19.830  0.00  0.00    +0.000 C 
ENDBRANCH  29  30
ENDBRANCH  28  29
ENDBRANCH   5  28
TORSDOF 10
ENDMDL
