MODEL 1
REMARK VINA RESULT:      -7.4      0.000      0.000
REMARK  Name = 
REMARK  3 active torsions:
REMARK  status: ('A' for Active; 'I' for Inactive)
REMARK    1  A    between atoms: O_1  and  C_2
REMARK    2  A    between atoms: C_5  and  C_6
REMARK    3  A    between atoms: C_6  and  N_7
REMARK                            x       y       z     vdW  Elec       q    Type
REMARK                         _______ _______ _______ _____ _____    ______ ____
ROOT
ATOM      1  C   UNL     1       1.309  11.863  19.628  0.00  0.00    +0.000 A 
ATOM      2  C   UNL     1       1.841  11.571  18.381  0.00  0.00    +0.000 A 
ATOM      3  C   UNL     1       1.958  10.249  17.985  0.00  0.00    +0.000 A 
ATOM      4  C   UNL     1       1.537   9.195  18.815  0.00  0.00    +0.000 A 
ATOM      5  C   UNL     1       0.921   9.514  20.087  0.00  0.00    +0.000 A 
ATOM      6  C   UNL     1       0.376   8.582  21.007  0.00  0.00    +0.000 A 
ATOM      7  C   UNL     1      -0.229   9.004  22.201  0.00  0.00    +0.000 A 
ATOM      8  C   UNL     1      -0.253  10.353  22.475  0.00  0.00    +0.000 A 
ATOM      9  N   UNL     1       0.267  11.270  21.660  0.00  0.00    +0.000 NA
ATOM     10  C   UNL     1       0.818  10.876  20.489  0.00  0.00    +0.000 A 
ENDROOT
BRANCH   1  11
ATOM     11  O   UNL     1       1.271  13.181  20.028  0.00  0.00    +0.000 OA
ATOM     12  H   UNL     1       1.993  13.339  20.654  0.00  0.00    +0.000 HD
ENDBRANCH   1  11
BRANCH   4  13
ATOM     13  C   UNL     1       1.860   7.793  18.285  0.00  0.00    +0.000 C 
BRANCH  13  14
ATOM     14  N   UNL     1       3.021   7.168  18.970  0.00  0.00    +0.000 NA
ATOM     15  C   UNL     1       3.957   6.545  18.026  0.00  0.00    +0.000 C 
ATOM     16  C   UNL     1       3.438   5.238  17.414  0.00  0.00    +0.000 C 
ATOM     17  C   UNL     1       2.916   4.235  18.459  0.00  0.00    +0.000 C 
ATOM     18  C   UNL     1       2.166   3.079  17.777  0.00  0.00    +0.000 C 
ATOM     19  C   UNL     1       1.312   2.195  18.694  0.00  0.00    +0.000 C 
ATOM     20  C   UNL     1       0.660   2.905  19.880  0.00  0.00    +0.000 C 
ATOM     21  C   UNL     1       1.597   3.912  20.545  0.00  0.00    +0.000 C 
ATOM     22  C   UNL     1       2.012   4.934  19.482  0.00  0.00    +0.000 C 
ATOM     23  C   UNL     1       2.672   6.200  20.034  0.00  0.00    +0.000 C 
ENDBRANCH  13  14
ENDBRANCH   4  13
TORSDOF 3
ENDMDL
MODEL 2
REMARK VINA RESULT:      -7.0      1.826      3.326
REMARK  Name = 
REMARK  3 active torsions:
REMARK  status: ('A' for Active; 'I' for Inactive)
REMARK    1  A    between atoms: O_1  and  C_2
REMARK    2  A    between atoms: C_5  and  C_6
REMARK    3  A    between atoms: C_6  and  N_7
REMARK                            x       y       z     vdW  Elec       q    Type
REMARK                         _______ _______ _______ _____ _____    ______ ____
ROOT
ATOM      1  C   UNL     1      -0.487  10.853  19.289  0.00  0.00    +0.000 A 
ATOM      2  C   UNL     1       0.090  10.278  18.167  0.00  0.00    +0.000 A 
ATOM      3  C   UNL     1       0.993   9.240  18.324  0.00  0.00    +0.000 A 
ATOM      4  C   UNL     1       1.329   8.747  19.596  0.00  0.00    +0.000 A 
ATOM      5  C   UNL     1       0.670   9.309  20.757  0.00  0.00    +0.000 A 
ATOM      6  C   UNL     1       0.834   8.881  22.100  0.00  0.00    +0.000 A 
ATOM      7  C   UNL     1       0.118   9.478  23.149  0.00  0.00    +0.000 A 
ATOM      8  C   UNL     1      -0.730  10.519  22.846  0.00  0.00    +0.000 A 
ATOM      9  N   UNL     1      -0.903  10.979  21.607  0.00  0.00    +0.000 NA
ATOM     10  C   UNL     1      -0.247  10.385  20.584  0.00  0.00    +0.000 A 
ENDROOT
BRANCH   1  11
ATOM     11  O   UNL     1      -1.326  11.932  19.110  0.00  0.00    +0.000 OA
ATOM     12  H   UNL     1      -2.198  11.713  19.470  0.00  0.00    +0.000 HD
ENDBRANCH   1  11
BRANCH   4  13
ATOM     13  C   UNL     1       2.441   7.691  19.603  0.00  0.00    +0.000 C 
BRANCH  13  14
ATOM     14  N   UNL     1       2.406   6.807  18.409  0.00  0.00    +0.000 NA
ATOM     15  C   UNL     1       2.392   5.384  18.768  0.00  0.00    +0.000 C 
ATOM     16  C   UNL     1       3.740   4.864  19.286  0.00  0.00    +0.000 C 
ATOM     17  C   UNL     1       4.926   5.219  18.371  0.00  0.00    +0.000 C 
ATOM     18  C   UNL     1       6.262   4.918  19.071  0.00  0.00    +0.000 C 
ATOM     19  C   UNL     1       7.513   5.525  18.426  0.00  0.00    +0.000 C 
ATOM     20  C   UNL     1       7.319   6.883  17.752  0.00  0.00    +0.000 C 
ATOM     21  C   UNL     1       6.012   6.963  16.965  0.00  0.00    +0.000 C 
ATOM     22  C   UNL     1       4.864   6.690  17.942  0.00  0.00    +0.000 C 
ATOM     23  C   UNL     1       3.473   7.057  17.415  0.00  0.00    +0.000 C 
ENDBRANCH  13  14
ENDBRANCH   4  13
TORSDOF 3
ENDMDL
MODEL 3
REMARK VINA RESULT:      -6.8      2.125      2.369
REMARK  Name = 
REMARK  3 active torsions:
REMARK  status: ('A' for Active; 'I' for Inactive)
REMARK    1  A    between atoms: O_1  and  C_2
REMARK    2  A    between atoms: C_5  and  C_6
REMARK    3  A    between atoms: C_6  and  N_7
REMARK                            x       y       z     vdW  Elec       q    Type
REMARK                         _______ _______ _______ _____ _____    ______ ____
ROOT
ATOM      1  C   UNL     1       0.170  12.392  19.017  0.00  0.00    +0.000 A 
ATOM      2  C   UNL     1       1.499  11.998  19.041  0.00  0.00    +0.000 A 
ATOM      3  C   UNL     1       1.837  10.725  18.612  0.00  0.00    +0.000 A 
ATOM      4  C   UNL     1       0.863   9.828  18.139  0.00  0.00    +0.000 A 
ATOM      5  C   UNL     1      -0.512  10.275  18.054  0.00  0.00    +0.000 A 
ATOM      6  C   UNL     1      -1.602   9.530  17.533  0.00  0.00    +0.000 A 
ATOM      7  C   UNL     1      -2.893  10.074  17.469  0.00  0.00    +0.000 A 
ATOM      8  C   UNL     1      -3.087  11.347  17.955  0.00  0.00    +0.000 A 
ATOM      9  N   UNL     1      -2.106  12.082  18.480  0.00  0.00    +0.000 NA
ATOM     10  C   UNL     1      -0.850  11.581  18.510  0.00  0.00    +0.000 A 
ENDROOT
BRANCH   1  11
ATOM     11  O   UNL     1      -0.149  13.636  19.518  0.00  0.00    +0.000 OA
ATOM     12  H   UNL     1       0.641  14.022  19.925  0.00  0.00    +0.000 HD
ENDBRANCH   1  11
BRANCH   4  13
ATOM     13  C   UNL     1       1.384   8.419  17.830  0.00  0.00    +0.000 C 
BRANCH  13  14
ATOM     14  N   UNL     1       2.590   8.062  18.621  0.00  0.00    +0.000 NA
ATOM     15  C   UNL     1       3.642   7.459  17.793  0.00  0.00    +0.000 C 
ATOM     16  C   UNL     1       3.333   6.021  17.354  0.00  0.00    +0.000 C 
ATOM     17  C   UNL     1       2.911   5.102  18.515  0.00  0.00    +0.000 C 
ATOM     18  C   UNL     1       2.356   3.771  17.981  0.00  0.00    +0.000 C 
ATOM     19  C   UNL     1       1.594   2.904  18.991  0.00  0.00    +0.000 C 
ATOM     20  C   UNL     1       0.801   3.666  20.053  0.00  0.00    +0.000 C 
ATOM     21  C   UNL     1       1.562   4.875  20.595  0.00  0.00    +0.000 C 
ATOM     22  C   UNL     1       1.877   5.795  19.412  0.00  0.00    +0.000 C 
ATOM     23  C   UNL     1       2.333   7.205  19.799  0.00  0.00    +0.000 C 
ENDBRANCH  13  14
ENDBRANCH   4  13
TORSDOF 3
ENDMDL
MODEL 4
REMARK VINA RESULT:      -6.7      5.040      6.933
REMARK  Name = 
REMARK  3 active torsions:
REMARK  status: ('A' for Active; 'I' for Inactive)
REMARK    1  A    between atoms: O_1  and  C_2
REMARK    2  A    between atoms: C_5  and  C_6
REMARK    3  A    between atoms: C_6  and  N_7
REMARK                            x       y       z     vdW  Elec       q    Type
REMARK                         _______ _______ _______ _____ _____    ______ ____
ROOT
ATOM      1  C   UNL     1       7.074   5.074  14.608  0.00  0.00    +0.000 A 
ATOM      2  C   UNL     1       6.261   4.065  14.113  0.00  0.00    +0.000 A 
ATOM      3  C   UNL     1       5.398   3.405  14.972  0.00  0.00    +0.000 A 
ATOM      4  C   UNL     1       5.319   3.744  16.334  0.00  0.00    +0.000 A 
ATOM      5  C   UNL     1       6.123   4.844  16.826  0.00  0.00    +0.000 A 
ATOM      6  C   UNL     1       6.109   5.364  18.146  0.00  0.00    +0.000 A 
ATOM      7  C   UNL     1       6.909   6.458  18.508  0.00  0.00    +0.000 A 
ATOM      8  C   UNL     1       7.738   7.001  17.552  0.00  0.00    +0.000 A 
ATOM      9  N   UNL     1       7.811   6.536  16.305  0.00  0.00    +0.000 NA
ATOM     10  C   UNL     1       7.015   5.507  15.936  0.00  0.00    +0.000 A 
ENDROOT
BRANCH   1  11
ATOM     11  O   UNL     1       7.975   5.665  13.748  0.00  0.00    +0.000 OA
ATOM     12  H   UNL     1       7.507   6.314  13.202  0.00  0.00    +0.000 HD
ENDBRANCH   1  11
BRANCH   4  13
ATOM     13  C   UNL     1       4.416   2.830  17.172  0.00  0.00    +0.000 C 
BRANCH  13  14
ATOM     14  N   UNL     1       2.970   3.123  16.992  0.00  0.00    +0.000 NA
ATOM     15  C   UNL     1       2.681   4.561  17.045  0.00  0.00    +0.000 C 
ATOM     16  C   UNL     1       2.769   5.156  18.457  0.00  0.00    +0.000 C 
ATOM     17  C   UNL     1       1.968   4.365  19.507  0.00  0.00    +0.000 C 
ATOM     18  C   UNL     1       2.313   4.841  20.928  0.00  0.00    +0.000 C 
ATOM     19  C   UNL     1       1.856   3.932  22.074  0.00  0.00    +0.000 C 
ATOM     20  C   UNL     1       1.859   2.432  21.773  0.00  0.00    +0.000 C 
ATOM     21  C   UNL     1       1.337   2.117  20.372  0.00  0.00    +0.000 C 
ATOM     22  C   UNL     1       2.224   2.858  19.368  0.00  0.00    +0.000 C 
ATOM     23  C   UNL     1       2.068   2.401  17.915  0.00  0.00    +0.000 C 
ENDBRANCH  13  14
ENDBRANCH   4  13
TORSDOF 3
ENDMDL
MODEL 5
REMARK VINA RESULT:      -6.7      3.711      6.323
REMARK  Name = 
REMARK  3 active torsions:
REMARK  status: ('A' for Active; 'I' for Inactive)
REMARK    1  A    between atoms: O_1  and  C_2
REMARK    2  A    between atoms: C_5  and  C_6
REMARK    3  A    between atoms: C_6  and  N_7
REMARK                            x       y       z     vdW  Elec       q    Type
REMARK                         _______ _______ _______ _____ _____    ______ ____
ROOT
ATOM      1  C   UNL     1       1.950   6.375  20.168  0.00  0.00    +0.000 A 
ATOM      2  C   UNL     1       2.582   7.355  19.417  0.00  0.00    +0.000 A 
ATOM      3  C   UNL     1       3.244   6.997  18.254  0.00  0.00    +0.000 A 
ATOM      4  C   UNL     1       3.278   5.664  17.810  0.00  0.00    +0.000 A 
ATOM      5  C   UNL     1       2.556   4.661  18.565  0.00  0.00    +0.000 A 
ATOM      6  C   UNL     1       2.424   3.290  18.220  0.00  0.00    +0.000 A 
ATOM      7  C   UNL     1       1.672   2.408  19.010  0.00  0.00    +0.000 A 
ATOM      8  C   UNL     1       1.087   2.899  20.155  0.00  0.00    +0.000 A 
ATOM      9  N   UNL     1       1.201   4.170  20.542  0.00  0.00    +0.000 NA
ATOM     10  C   UNL     1       1.891   5.037  19.766  0.00  0.00    +0.000 A 
ENDROOT
BRANCH   1  11
ATOM     11  O   UNL     1       1.361   6.745  21.358  0.00  0.00    +0.000 OA
ATOM     12  H   UNL     1       1.881   6.381  22.090  0.00  0.00    +0.000 HD
ENDBRANCH   1  11
BRANCH   4  13
ATOM     13  C   UNL     1       4.162   5.419  16.582  0.00  0.00    +0.000 C 
BRANCH  13  14
ATOM     14  N   UNL     1       5.218   4.402  16.823  0.00  0.00    +0.000 NA
ATOM     15  C   UNL     1       6.512   5.010  17.157  0.00  0.00    +0.000 C 
ATOM     16  C   UNL     1       7.217   5.660  15.959  0.00  0.00    +0.000 C 
ATOM     17  C   UNL     1       7.310   4.741  14.728  0.00  0.00    +0.000 C 
ATOM     18  C   UNL     1       7.770   5.531  13.492  0.00  0.00    +0.000 C 
ATOM     19  C   UNL     1       7.586   4.833  12.139  0.00  0.00    +0.000 C 
ATOM     20  C   UNL     1       6.365   3.921  12.024  0.00  0.00    +0.000 C 
ATOM     21  C   UNL     1       6.139   3.085  13.283  0.00  0.00    +0.000 C 
ATOM     22  C   UNL     1       5.965   4.053  14.458  0.00  0.00    +0.000 C 
ATOM     23  C   UNL     1       5.399   3.419  15.732  0.00  0.00    +0.000 C 
ENDBRANCH  13  14
ENDBRANCH   4  13
TORSDOF 3
ENDMDL
MODEL 6
REMARK VINA RESULT:      -6.7      1.517      2.346
REMARK  Name = 
REMARK  3 active torsions:
REMARK  status: ('A' for Active; 'I' for Inactive)
REMARK    1  A    between atoms: O_1  and  C_2
REMARK    2  A    between atoms: C_5  and  C_6
REMARK    3  A    between atoms: C_6  and  N_7
REMARK                            x       y       z     vdW  Elec       q    Type
REMARK                         _______ _______ _______ _____ _____    ______ ____
ROOT
ATOM      1  C   UNL     1       0.008  10.245  22.209  0.00  0.00    +0.000 A 
ATOM      2  C   UNL     1       0.945   9.252  22.453  0.00  0.00    +0.000 A 
ATOM      3  C   UNL     1       1.476   8.543  21.388  0.00  0.00    +0.000 A 
ATOM      4  C   UNL     1       1.096   8.816  20.063  0.00  0.00    +0.000 A 
ATOM      5  C   UNL     1       0.169   9.901  19.815  0.00  0.00    +0.000 A 
ATOM      6  C   UNL     1      -0.261  10.357  18.542  0.00  0.00    +0.000 A 
ATOM      7  C   UNL     1      -1.142  11.442  18.414  0.00  0.00    +0.000 A 
ATOM      8  C   UNL     1      -1.608  12.038  19.564  0.00  0.00    +0.000 A 
ATOM      9  N   UNL     1      -1.260  11.634  20.786  0.00  0.00    +0.000 NA
ATOM     10  C   UNL     1      -0.381  10.614  20.918  0.00  0.00    +0.000 A 
ENDROOT
BRANCH   1  11
ATOM     11  O   UNL     1      -0.559  10.885  23.290  0.00  0.00    +0.000 OA
ATOM     12  H   UNL     1      -1.310  11.414  22.981  0.00  0.00    +0.000 HD
ENDBRANCH   1  11
BRANCH   4  13
ATOM     13  C   UNL     1       1.674   7.854  19.018  0.00  0.00    +0.000 C 
BRANCH  13  14
ATOM     14  N   UNL     1       2.882   7.135  19.499  0.00  0.00    +0.000 NA
ATOM     15  C   UNL     1       3.730   6.669  18.396  0.00  0.00    +0.000 C 
ATOM     16  C   UNL     1       3.149   5.470  17.634  0.00  0.00    +0.000 C 
ATOM     17  C   UNL     1       2.707   4.316  18.553  0.00  0.00    +0.000 C 
ATOM     18  C   UNL     1       1.892   3.277  17.766  0.00  0.00    +0.000 C 
ATOM     19  C   UNL     1       1.109   2.259  18.604  0.00  0.00    +0.000 C 
ATOM     20  C   UNL     1       0.564   2.775  19.936  0.00  0.00    +0.000 C 
ATOM     21  C   UNL     1       1.562   3.671  20.668  0.00  0.00    +0.000 C 
ATOM     22  C   UNL     1       1.897   4.845  19.744  0.00  0.00    +0.000 C 
ATOM     23  C   UNL     1       2.613   6.014  20.426  0.00  0.00    +0.000 C 
ENDBRANCH  13  14
ENDBRANCH   4  13
TORSDOF 3
ENDMDL
MODEL 7
REMARK VINA RESULT:      -6.6      2.438      4.355
REMARK  Name = 
REMARK  3 active torsions:
REMARK  status: ('A' for Active; 'I' for Inactive)
REMARK    1  A    between atoms: O_1  and  C_2
REMARK    2  A    between atoms: C_5  and  C_6
REMARK    3  A    between atoms: C_6  and  N_7
REMARK                            x       y       z     vdW  Elec       q    Type
REMARK                         _______ _______ _______ _____ _____    ______ ____
ROOT
ATOM      1  C   UNL     1       0.843   8.305  21.154  0.00  0.00    +0.000 A 
ATOM      2  C   UNL     1       1.202   6.973  21.302  0.00  0.00    +0.000 A 
ATOM      3  C   UNL     1       1.879   6.335  20.275  0.00  0.00    +0.000 A 
ATOM      4  C   UNL     1       2.222   7.011  19.092  0.00  0.00    +0.000 A 
ATOM      5  C   UNL     1       1.903   8.419  18.977  0.00  0.00    +0.000 A 
ATOM      6  C   UNL     1       2.241   9.266  17.889  0.00  0.00    +0.000 A 
ATOM      7  C   UNL     1       1.909  10.629  17.896  0.00  0.00    +0.000 A 
ATOM      8  C   UNL     1       1.213  11.123  18.975  0.00  0.00    +0.000 A 
ATOM      9  N   UNL     1       0.846  10.368  20.011  0.00  0.00    +0.000 NA
ATOM     10  C   UNL     1       1.196   9.061  20.032  0.00  0.00    +0.000 A 
ENDROOT
BRANCH   1  11
ATOM     11  O   UNL     1       0.107   8.896  22.158  0.00  0.00    +0.000 OA
ATOM     12  H   UNL     1       0.321   9.841  22.188  0.00  0.00    +0.000 HD
ENDBRANCH   1  11
BRANCH   4  13
ATOM     13  C   UNL     1       2.847   6.126  18.006  0.00  0.00    +0.000 C 
BRANCH  13  14
ATOM     14  N   UNL     1       3.648   5.005  18.563  0.00  0.00    +0.000 NA
ATOM     15  C   UNL     1       4.873   5.469  19.225  0.00  0.00    +0.000 C 
ATOM     16  C   UNL     1       5.959   5.945  18.250  0.00  0.00    +0.000 C 
ATOM     17  C   UNL     1       6.255   4.938  17.123  0.00  0.00    +0.000 C 
ATOM     18  C   UNL     1       7.137   5.579  16.039  0.00  0.00    +0.000 C 
ATOM     19  C   UNL     1       7.233   4.820  14.711  0.00  0.00    +0.000 C 
ATOM     20  C   UNL     1       5.975   4.059  14.289  0.00  0.00    +0.000 C 
ATOM     21  C   UNL     1       5.304   3.346  15.462  0.00  0.00    +0.000 C 
ATOM     22  C   UNL     1       4.953   4.405  16.511  0.00  0.00    +0.000 C 
ATOM     23  C   UNL     1       3.981   3.936  17.597  0.00  0.00    +0.000 C 
ENDBRANCH  13  14
ENDBRANCH   4  13
TORSDOF 3
ENDMDL
MODEL 8
REMARK VINA RESULT:      -6.6      1.784      2.829
REMARK  Name = 
REMARK  3 active torsions:
REMARK  status: ('A' for Active; 'I' for Inactive)
REMARK    1  A    between atoms: O_1  and  C_2
REMARK    2  A    between atoms: C_5  and  C_6
REMARK    3  A    between atoms: C_6  and  N_7
REMARK                            x       y       z     vdW  Elec       q    Type
REMARK                         _______ _______ _______ _____ _____    ______ ____
ROOT
ATOM      1  C   UNL     1      -0.841  11.206  22.510  0.00  0.00    +0.000 A 
ATOM      2  C   UNL     1      -0.371  10.121  23.233  0.00  0.00    +0.000 A 
ATOM      3  C   UNL     1       0.034   8.980  22.559  0.00  0.00    +0.000 A 
ATOM      4  C   UNL     1      -0.007   8.905  21.156  0.00  0.00    +0.000 A 
ATOM      5  C   UNL     1      -0.435  10.069  20.408  0.00  0.00    +0.000 A 
ATOM      6  C   UNL     1      -0.465  10.189  18.994  0.00  0.00    +0.000 A 
ATOM      7  C   UNL     1      -0.869  11.380  18.372  0.00  0.00    +0.000 A 
ATOM      8  C   UNL     1      -1.269  12.427  19.170  0.00  0.00    +0.000 A 
ATOM      9  N   UNL     1      -1.287  12.361  20.502  0.00  0.00    +0.000 NA
ATOM     10  C   UNL     1      -0.862  11.231  21.112  0.00  0.00    +0.000 A 
ENDROOT
BRANCH   1  11
ATOM     11  O   UNL     1      -1.307  12.301  23.207  0.00  0.00    +0.000 OA
ATOM     12  H   UNL     1      -1.013  12.234  24.128  0.00  0.00    +0.000 HD
ENDBRANCH   1  11
BRANCH   4  13
ATOM     13  C   UNL     1       0.349   7.530  20.576  0.00  0.00    +0.000 C 
BRANCH  13  14
ATOM     14  N   UNL     1       1.810   7.262  20.578  0.00  0.00    +0.000 NA
ATOM     15  C   UNL     1       2.420   7.488  19.263  0.00  0.00    +0.000 C 
ATOM     16  C   UNL     1       2.082   6.404  18.230  0.00  0.00    +0.000 C 
ATOM     17  C   UNL     1       2.323   4.972  18.743  0.00  0.00    +0.000 C 
ATOM     18  C   UNL     1       1.713   3.940  17.780  0.00  0.00    +0.000 C 
ATOM     19  C   UNL     1       1.580   2.510  18.319  0.00  0.00    +0.000 C 
ATOM     20  C   UNL     1       1.290   2.391  19.816  0.00  0.00    +0.000 C 
ATOM     21  C   UNL     1       2.097   3.386  20.649  0.00  0.00    +0.000 C 
ATOM     22  C   UNL     1       1.751   4.794  20.155  0.00  0.00    +0.000 C 
ATOM     23  C   UNL     1       2.199   5.927  21.083  0.00  0.00    +0.000 C 
ENDBRANCH  13  14
ENDBRANCH   4  13
TORSDOF 3
ENDMDL
MODEL 9
REMARK VINA RESULT:      -6.5      1.386      2.693
REMARK  Name = 
REMARK  3 active torsions:
REMARK  status: ('A' for Active; 'I' for Inactive)
REMARK    1  A    between atoms: O_1  and  C_2
REMARK    2  A    between atoms: C_5  and  C_6
REMARK    3  A    between atoms: C_6  and  N_7
REMARK                            x       y       z     vdW  Elec       q    Type
REMARK                         _______ _______ _______ _____ _____    ______ ____
ROOT
ATOM      1  C   UNL     1      -0.520  11.304  22.456  0.00  0.00    +0.000 A 
ATOM      2  C   UNL     1      -0.578   9.968  22.819  0.00  0.00    +0.000 A 
ATOM      3  C   UNL     1      -0.119   9.004  21.936  0.00  0.00    +0.000 A 
ATOM      4  C   UNL     1       0.416   9.352  20.684  0.00  0.00    +0.000 A 
ATOM      5  C   UNL     1       0.534  10.754  20.343  0.00  0.00    +0.000 A 
ATOM      6  C   UNL     1       1.116  11.280  19.160  0.00  0.00    +0.000 A 
ATOM      7  C   UNL     1       1.208  12.664  18.945  0.00  0.00    +0.000 A 
ATOM      8  C   UNL     1       0.687  13.506  19.902  0.00  0.00    +0.000 A 
ATOM      9  N   UNL     1       0.106  13.067  21.018  0.00  0.00    +0.000 NA
ATOM     10  C   UNL     1       0.048  11.736  21.253  0.00  0.00    +0.000 A 
ENDROOT
BRANCH   1  11
ATOM     11  O   UNL     1      -1.049  12.238  23.320  0.00  0.00    +0.000 OA
ATOM     12  H   UNL     1      -1.428  11.778  24.084  0.00  0.00    +0.000 HD
ENDBRANCH   1  11
BRANCH   4  13
ATOM     13  C   UNL     1       0.752   8.162  19.777  0.00  0.00    +0.000 C 
BRANCH  13  14
ATOM     14  N   UNL     1       2.124   7.637  19.996  0.00  0.00    +0.000 NA
ATOM     15  C   UNL     1       2.869   7.480  18.741  0.00  0.00    +0.000 C 
ATOM     16  C   UNL     1       2.401   6.292  17.889  0.00  0.00    +0.000 C 
ATOM     17  C   UNL     1       2.307   4.972  18.675  0.00  0.00    +0.000 C 
ATOM     18  C   UNL     1       1.578   3.898  17.851  0.00  0.00    +0.000 C 
ATOM     19  C   UNL     1       1.117   2.654  18.619  0.00  0.00    +0.000 C 
ATOM     20  C   UNL     1       0.692   2.891  20.069  0.00  0.00    +0.000 C 
ATOM     21  C   UNL     1       1.616   3.867  20.797  0.00  0.00    +0.000 C 
ATOM     22  C   UNL     1       1.601   5.187  20.021  0.00  0.00    +0.000 C 
ATOM     23  C   UNL     1       2.195   6.380  20.775  0.00  0.00    +0.000 C 
ENDBRANCH  13  14
ENDBRANCH   4  13
TORSDOF 3
ENDMDL
