MODEL 1
REMARK VINA RESULT:      -6.4      0.000      0.000
REMARK  Name = 
REMARK  5 active torsions:
REMARK  status: ('A' for Active; 'I' for Inactive)
REMARK    1  A    between atoms: C_1  and  N_2
REMARK    2  A    between atoms: N_2  and  C_3
REMARK    3  A    between atoms: C_4  and  C_6
REMARK    4  A    between atoms: C_6  and  N_7
REMARK    5  A    between atoms: C_10  and  C_11
REMARK                            x       y       z     vdW  Elec       q    Type
REMARK                         _______ _______ _______ _____ _____    ______ ____
ROOT
ATOM      1  N   UNL     1       3.155   5.017  17.633  0.00  0.00    +0.000 N 
ATOM      2  C   UNL     1       3.609   3.851  17.117  0.00  0.00    +0.000 A 
ATOM      3  C   UNL     1       4.905   3.747  16.621  0.00  0.00    +0.000 A 
ATOM      4  C   UNL     1       5.737   4.863  16.646  0.00  0.00    +0.000 A 
ATOM      5  C   UNL     1       5.218   6.077  17.100  0.00  0.00    +0.000 A 
ATOM      6  C   UNL     1       3.917   6.134  17.580  0.00  0.00    +0.000 A 
ENDROOT
BRANCH   4   7
ATOM      7  C   UNL     1       7.173   4.828  16.262  0.00  0.00    +0.000 C 
ATOM      8  N   UNL     1       7.538   5.261  15.022  0.00  0.00    +0.000 N 
ATOM      9  O   UNL     1       8.006   4.378  17.039  0.00  0.00    +0.000 OA
ATOM     10  H   UNL     1       6.928   5.563  14.281  0.00  0.00    +0.000 HD
ATOM     11  H   UNL     1       8.519   5.154  14.783  0.00  0.00    +0.000 HD
ENDBRANCH   4   7
BRANCH   1  12
ATOM     12  C   UNL     1       1.836   5.064  18.317  0.00  0.00    +0.000 C 
BRANCH  12  16
ATOM     13  C   UNL     1       1.505   2.696  21.307  0.00  0.00    +0.000 C 
ATOM     14  N   UNL     1       1.408   3.232  19.953  0.00  0.00    +0.000 N 
ATOM     15  C   UNL     1       0.745   2.419  18.941  0.00  0.00    +0.000 C 
ATOM     16  C   UNL     1       1.943   4.487  19.719  0.00  0.00    +0.000 C 
ATOM     17  O   UNL     1       2.495   5.141  20.611  0.00  0.00    +0.000 OA
ENDBRANCH  12  16
ENDBRANCH   1  12
TORSDOF 3
ENDMDL
MODEL 2
REMARK VINA RESULT:      -6.2      1.258      1.517
REMARK  Name = 
REMARK  5 active torsions:
REMARK  status: ('A' for Active; 'I' for Inactive)
REMARK    1  A    between atoms: C_1  and  N_2
REMARK    2  A    between atoms: N_2  and  C_3
REMARK    3  A    between atoms: C_4  and  C_6
REMARK    4  A    between atoms: C_6  and  N_7
REMARK    5  A    between atoms: C_10  and  C_11
REMARK                            x       y       z     vdW  Elec       q    Type
REMARK                         _______ _______ _______ _____ _____    ______ ____
ROOT
ATOM      1  N   UNL     1       2.940   4.643  17.552  0.00  0.00    +0.000 N 
ATOM      2  C   UNL     1       3.680   3.651  17.002  0.00  0.00    +0.000 A 
ATOM      3  C   UNL     1       5.031   3.840  16.722  0.00  0.00    +0.000 A 
ATOM      4  C   UNL     1       5.620   5.071  17.001  0.00  0.00    +0.000 A 
ATOM      5  C   UNL     1       4.816   6.106  17.483  0.00  0.00    +0.000 A 
ATOM      6  C   UNL     1       3.473   5.872  17.742  0.00  0.00    +0.000 A 
ENDROOT
BRANCH   4   7
ATOM      7  C   UNL     1       7.076   5.338  16.861  0.00  0.00    +0.000 C 
ATOM      8  N   UNL     1       7.495   6.607  16.594  0.00  0.00    +0.000 N 
ATOM      9  O   UNL     1       7.879   4.417  16.945  0.00  0.00    +0.000 OA
ATOM     10  H   UNL     1       6.917   7.412  16.418  0.00  0.00    +0.000 HD
ATOM     11  H   UNL     1       8.491   6.725  16.440  0.00  0.00    +0.000 HD
ENDBRANCH   4   7
BRANCH   1  12
ATOM     12  C   UNL     1       1.552   4.369  18.007  0.00  0.00    +0.000 C 
BRANCH  12  16
ATOM     13  C   UNL     1       1.657   2.808  21.500  0.00  0.00    +0.000 C 
ATOM     14  N   UNL     1       1.644   3.802  20.433  0.00  0.00    +0.000 N 
ATOM     15  C   UNL     1       1.739   5.208  20.806  0.00  0.00    +0.000 C 
ATOM     16  C   UNL     1       1.552   3.345  19.129  0.00  0.00    +0.000 C 
ATOM     17  O   UNL     1       1.475   2.141  18.860  0.00  0.00    +0.000 OA
ENDBRANCH  12  16
ENDBRANCH   1  12
TORSDOF 3
ENDMDL
MODEL 3
REMARK VINA RESULT:      -6.2      1.316      1.955
REMARK  Name = 
REMARK  5 active torsions:
REMARK  status: ('A' for Active; 'I' for Inactive)
REMARK    1  A    between atoms: C_1  and  N_2
REMARK    2  A    between atoms: N_2  and  C_3
REMARK    3  A    between atoms: C_4  and  C_6
REMARK    4  A    between atoms: C_6  and  N_7
REMARK    5  A    between atoms: C_10  and  C_11
REMARK                            x       y       z     vdW  Elec       q    Type
REMARK                         _______ _______ _______ _____ _____    ______ ____
ROOT
ATOM      1  N   UNL     1       3.064   4.637  17.572  0.00  0.00    +0.000 N 
ATOM      2  C   UNL     1       3.492   5.900  17.810  0.00  0.00    +0.000 A 
ATOM      3  C   UNL     1       4.756   6.314  17.400  0.00  0.00    +0.000 A 
ATOM      4  C   UNL     1       5.592   5.411  16.749  0.00  0.00    +0.000 A 
ATOM      5  C   UNL     1       5.164   4.090  16.596  0.00  0.00    +0.000 A 
ATOM      6  C   UNL     1       3.897   3.722  17.025  0.00  0.00    +0.000 A 
ENDROOT
BRANCH   4   7
ATOM      7  C   UNL     1       6.905   5.782  16.158  0.00  0.00    +0.000 C 
ATOM      8  N   UNL     1       7.341   5.125  15.046  0.00  0.00    +0.000 N 
ATOM      9  O   UNL     1       7.598   6.639  16.691  0.00  0.00    +0.000 OA
ATOM     10  H   UNL     1       6.895   4.349  14.586  0.00  0.00    +0.000 HD
ATOM     11  H   UNL     1       8.273   5.367  14.722  0.00  0.00    +0.000 HD
ENDBRANCH   4   7
BRANCH   1  12
ATOM     12  C   UNL     1       1.654   4.265  17.857  0.00  0.00    +0.000 C 
BRANCH  12  16
ATOM     13  C   UNL     1       1.456   2.732  21.359  0.00  0.00    +0.000 C 
ATOM     14  N   UNL     1       1.503   3.718  20.284  0.00  0.00    +0.000 N 
ATOM     15  C   UNL     1       1.466   5.129  20.648  0.00  0.00    +0.000 C 
ATOM     16  C   UNL     1       1.590   3.249  18.985  0.00  0.00    +0.000 C 
ATOM     17  O   UNL     1       1.620   2.040  18.724  0.00  0.00    +0.000 OA
ENDBRANCH  12  16
ENDBRANCH   1  12
TORSDOF 3
ENDMDL
MODEL 4
REMARK VINA RESULT:      -6.2      0.806      1.301
REMARK  Name = 
REMARK  5 active torsions:
REMARK  status: ('A' for Active; 'I' for Inactive)
REMARK    1  A    between atoms: C_1  and  N_2
REMARK    2  A    between atoms: N_2  and  C_3
REMARK    3  A    between atoms: C_4  and  C_6
REMARK    4  A    between atoms: C_6  and  N_7
REMARK    5  A    between atoms: C_10  and  C_11
REMARK                            x       y       z     vdW  Elec       q    Type
REMARK                         _______ _______ _______ _____ _____    ______ ____
ROOT
ATOM      1  N   UNL     1       3.298   4.620  18.095  0.00  0.00    +0.000 N 
ATOM      2  C   UNL     1       4.250   5.183  18.876  0.00  0.00    +0.000 A 
ATOM      3  C   UNL     1       5.582   5.208  18.470  0.00  0.00    +0.000 A 
ATOM      4  C   UNL     1       5.935   4.634  17.252  0.00  0.00    +0.000 A 
ATOM      5  C   UNL     1       4.951   3.980  16.507  0.00  0.00    +0.000 A 
ATOM      6  C   UNL     1       3.637   3.976  16.954  0.00  0.00    +0.000 A 
ENDROOT
BRANCH   4   7
ATOM      7  C   UNL     1       7.299   4.718  16.666  0.00  0.00    +0.000 C 
ATOM      8  N   UNL     1       7.468   5.343  15.467  0.00  0.00    +0.000 N 
ATOM      9  O   UNL     1       8.246   4.194  17.239  0.00  0.00    +0.000 OA
ATOM     10  H   UNL     1       6.749   5.725  14.875  0.00  0.00    +0.000 HD
ATOM     11  H   UNL     1       8.406   5.314  15.077  0.00  0.00    +0.000 HD
ENDBRANCH   4   7
BRANCH   1  12
ATOM     12  C   UNL     1       1.863   4.757  18.458  0.00  0.00    +0.000 C 
BRANCH  12  16
ATOM     13  C   UNL     1       1.358   2.706  21.650  0.00  0.00    +0.000 C 
ATOM     14  N   UNL     1       1.580   3.046  20.249  0.00  0.00    +0.000 N 
ATOM     15  C   UNL     1       1.708   1.954  19.292  0.00  0.00    +0.000 C 
ATOM     16  C   UNL     1       1.646   4.389  19.916  0.00  0.00    +0.000 C 
ATOM     17  O   UNL     1       1.530   5.281  20.764  0.00  0.00    +0.000 OA
ENDBRANCH  12  16
ENDBRANCH   1  12
TORSDOF 3
ENDMDL
MODEL 5
REMARK VINA RESULT:      -6.1      2.037      2.567
REMARK  Name = 
REMARK  5 active torsions:
REMARK  status: ('A' for Active; 'I' for Inactive)
REMARK    1  A    between atoms: C_1  and  N_2
REMARK    2  A    between atoms: N_2  and  C_3
REMARK    3  A    between atoms: C_4  and  C_6
REMARK    4  A    between atoms: C_6  and  N_7
REMARK    5  A    between atoms: C_10  and  C_11
REMARK                            x       y       z     vdW  Elec       q    Type
REMARK                         _______ _______ _______ _____ _____    ______ ____
ROOT
ATOM      1  N   UNL     1       5.440   4.601  18.019  0.00  0.00    +0.000 N 
ATOM      2  C   UNL     1       6.778   4.702  17.831  0.00  0.00    +0.000 A 
ATOM      3  C   UNL     1       7.323   4.667  16.551  0.00  0.00    +0.000 A 
ATOM      4  C   UNL     1       6.479   4.511  15.454  0.00  0.00    +0.000 A 
ATOM      5  C   UNL     1       5.114   4.318  15.679  0.00  0.00    +0.000 A 
ATOM      6  C   UNL     1       4.617   4.356  16.974  0.00  0.00    +0.000 A 
ENDROOT
BRANCH   4   7
ATOM      7  C   UNL     1       6.940   4.588  14.042  0.00  0.00    +0.000 C 
ATOM      8  N   UNL     1       6.477   3.675  13.143  0.00  0.00    +0.000 N 
ATOM      9  O   UNL     1       7.757   5.438  13.709  0.00  0.00    +0.000 OA
ATOM     10  H   UNL     1       5.879   2.888  13.331  0.00  0.00    +0.000 HD
ATOM     11  H   UNL     1       6.874   3.728  12.209  0.00  0.00    +0.000 HD
ENDBRANCH   4   7
BRANCH   1  12
ATOM     12  C   UNL     1       4.861   4.817  19.371  0.00  0.00    +0.000 C 
BRANCH  12  16
ATOM     13  C   UNL     1       2.003   2.529  20.489  0.00  0.00    +0.000 C 
ATOM     14  N   UNL     1       2.729   3.714  20.043  0.00  0.00    +0.000 N 
ATOM     15  C   UNL     1       1.979   4.952  19.871  0.00  0.00    +0.000 C 
ATOM     16  C   UNL     1       4.090   3.588  19.821  0.00  0.00    +0.000 C 
ATOM     17  O   UNL     1       4.685   2.516  19.983  0.00  0.00    +0.000 OA
ENDBRANCH  12  16
ENDBRANCH   1  12
TORSDOF 3
ENDMDL
MODEL 6
REMARK VINA RESULT:      -6.0      0.441      1.281
REMARK  Name = 
REMARK  5 active torsions:
REMARK  status: ('A' for Active; 'I' for Inactive)
REMARK    1  A    between atoms: C_1  and  N_2
REMARK    2  A    between atoms: N_2  and  C_3
REMARK    3  A    between atoms: C_4  and  C_6
REMARK    4  A    between atoms: C_6  and  N_7
REMARK    5  A    between atoms: C_10  and  C_11
REMARK                            x       y       z     vdW  Elec       q    Type
REMARK                         _______ _______ _______ _____ _____    ______ ____
ROOT
ATOM      1  N   UNL     1       3.213   5.098  17.846  0.00  0.00    +0.000 N 
ATOM      2  C   UNL     1       3.818   6.267  17.528  0.00  0.00    +0.000 A 
ATOM      3  C   UNL     1       5.040   6.279  16.862  0.00  0.00    +0.000 A 
ATOM      4  C   UNL     1       5.650   5.072  16.533  0.00  0.00    +0.000 A 
ATOM      5  C   UNL     1       5.052   3.881  16.952  0.00  0.00    +0.000 A 
ATOM      6  C   UNL     1       3.834   3.919  17.618  0.00  0.00    +0.000 A 
ENDROOT
BRANCH   4   7
ATOM      7  C   UNL     1       6.887   4.970  15.713  0.00  0.00    +0.000 C 
ATOM      8  N   UNL     1       6.860   5.393  14.418  0.00  0.00    +0.000 N 
ATOM      9  O   UNL     1       7.899   4.473  16.189  0.00  0.00    +0.000 OA
ATOM     10  H   UNL     1       6.061   5.731  13.907  0.00  0.00    +0.000 HD
ATOM     11  H   UNL     1       7.708   5.239  13.881  0.00  0.00    +0.000 HD
ENDBRANCH   4   7
BRANCH   1  12
ATOM     12  C   UNL     1       1.831   5.102  18.396  0.00  0.00    +0.000 C 
BRANCH  12  16
ATOM     13  C   UNL     1       1.305   2.766  21.383  0.00  0.00    +0.000 C 
ATOM     14  N   UNL     1       1.321   3.277  20.016  0.00  0.00    +0.000 N 
ATOM     15  C   UNL     1       0.801   2.420  18.958  0.00  0.00    +0.000 C 
ATOM     16  C   UNL     1       1.822   4.552  19.812  0.00  0.00    +0.000 C 
ATOM     17  O   UNL     1       2.251   5.244  20.742  0.00  0.00    +0.000 OA
ENDBRANCH  12  16
ENDBRANCH   1  12
TORSDOF 3
ENDMDL
MODEL 7
REMARK VINA RESULT:      -6.0      1.875      5.912
REMARK  Name = 
REMARK  5 active torsions:
REMARK  status: ('A' for Active; 'I' for Inactive)
REMARK    1  A    between atoms: C_1  and  N_2
REMARK    2  A    between atoms: N_2  and  C_3
REMARK    3  A    between atoms: C_4  and  C_6
REMARK    4  A    between atoms: C_6  and  N_7
REMARK    5  A    between atoms: C_10  and  C_11
REMARK                            x       y       z     vdW  Elec       q    Type
REMARK                         _______ _______ _______ _____ _____    ______ ____
ROOT
ATOM      1  N   UNL     1       3.996   5.657  17.952  0.00  0.00    +0.000 N 
ATOM      2  C   UNL     1       3.200   6.076  18.965  0.00  0.00    +0.000 A 
ATOM      3  C   UNL     1       2.150   5.283  19.420  0.00  0.00    +0.000 A 
ATOM      4  C   UNL     1       1.912   4.052  18.815  0.00  0.00    +0.000 A 
ATOM      5  C   UNL     1       2.688   3.683  17.714  0.00  0.00    +0.000 A 
ATOM      6  C   UNL     1       3.721   4.509  17.292  0.00  0.00    +0.000 A 
ENDROOT
BRANCH   4   7
ATOM      7  C   UNL     1       0.903   3.075  19.305  0.00  0.00    +0.000 C 
ATOM      8  N   UNL     1       0.650   2.997  20.642  0.00  0.00    +0.000 N 
ATOM      9  O   UNL     1       0.341   2.326  18.516  0.00  0.00    +0.000 OA
ATOM     10  H   UNL     1       1.118   3.500  21.378  0.00  0.00    +0.000 HD
ATOM     11  H   UNL     1       0.005   2.269  20.932  0.00  0.00    +0.000 HD
ENDBRANCH   4   7
BRANCH   1  12
ATOM     12  C   UNL     1       5.215   6.431  17.597  0.00  0.00    +0.000 C 
BRANCH  12  16
ATOM     13  C   UNL     1       7.109   4.899  14.644  0.00  0.00    +0.000 C 
ATOM     14  N   UNL     1       6.685   5.193  16.009  0.00  0.00    +0.000 N 
ATOM     15  C   UNL     1       7.376   4.518  17.101  0.00  0.00    +0.000 C 
ATOM     16  C   UNL     1       5.657   6.104  16.181  0.00  0.00    +0.000 C 
ATOM     17  O   UNL     1       5.102   6.654  15.222  0.00  0.00    +0.000 OA
ENDBRANCH  12  16
ENDBRANCH   1  12
TORSDOF 3
ENDMDL
MODEL 8
REMARK VINA RESULT:      -6.0      1.327      1.851
REMARK  Name = 
REMARK  5 active torsions:
REMARK  status: ('A' for Active; 'I' for Inactive)
REMARK    1  A    between atoms: C_1  and  N_2
REMARK    2  A    between atoms: N_2  and  C_3
REMARK    3  A    between atoms: C_4  and  C_6
REMARK    4  A    between atoms: C_6  and  N_7
REMARK    5  A    between atoms: C_10  and  C_11
REMARK                            x       y       z     vdW  Elec       q    Type
REMARK                         _______ _______ _______ _____ _____    ______ ____
ROOT
ATOM      1  N   UNL     1       3.676   5.535  18.405  0.00  0.00    +0.000 N 
ATOM      2  C   UNL     1       4.044   6.415  17.444  0.00  0.00    +0.000 A 
ATOM      3  C   UNL     1       5.266   6.286  16.789  0.00  0.00    +0.000 A 
ATOM      4  C   UNL     1       6.122   5.246  17.140  0.00  0.00    +0.000 A 
ATOM      5  C   UNL     1       5.760   4.406  18.196  0.00  0.00    +0.000 A 
ATOM      6  C   UNL     1       4.534   4.576  18.823  0.00  0.00    +0.000 A 
ENDROOT
BRANCH   4   7
ATOM      7  C   UNL     1       7.387   4.941  16.420  0.00  0.00    +0.000 C 
ATOM      8  N   UNL     1       7.561   5.419  15.155  0.00  0.00    +0.000 N 
ATOM      9  O   UNL     1       8.238   4.236  16.947  0.00  0.00    +0.000 OA
ATOM     10  H   UNL     1       6.892   5.928  14.601  0.00  0.00    +0.000 HD
ATOM     11  H   UNL     1       8.411   5.127  14.682  0.00  0.00    +0.000 HD
ENDBRANCH   4   7
BRANCH   1  12
ATOM     12  C   UNL     1       2.301   5.581  18.968  0.00  0.00    +0.000 C 
BRANCH  12  16
ATOM     13  C   UNL     1       0.501   2.212  19.215  0.00  0.00    +0.000 C 
ATOM     14  N   UNL     1       1.229   3.419  19.592  0.00  0.00    +0.000 N 
ATOM     15  C   UNL     1       1.598   3.585  20.992  0.00  0.00    +0.000 C 
ATOM     16  C   UNL     1       1.531   4.327  18.591  0.00  0.00    +0.000 C 
ATOM     17  O   UNL     1       1.197   4.141  17.415  0.00  0.00    +0.000 OA
ENDBRANCH  12  16
ENDBRANCH   1  12
TORSDOF 3
ENDMDL
MODEL 9
REMARK VINA RESULT:      -6.0      1.910      2.410
REMARK  Name = 
REMARK  5 active torsions:
REMARK  status: ('A' for Active; 'I' for Inactive)
REMARK    1  A    between atoms: C_1  and  N_2
REMARK    2  A    between atoms: N_2  and  C_3
REMARK    3  A    between atoms: C_4  and  C_6
REMARK    4  A    between atoms: C_6  and  N_7
REMARK    5  A    between atoms: C_10  and  C_11
REMARK                            x       y       z     vdW  Elec       q    Type
REMARK                         _______ _______ _______ _____ _____    ______ ____
ROOT
ATOM      1  N   UNL     1       5.223   5.210  18.172  0.00  0.00    +0.000 N 
ATOM      2  C   UNL     1       4.550   5.703  17.106  0.00  0.00    +0.000 A 
ATOM      3  C   UNL     1       5.083   5.614  15.823  0.00  0.00    +0.000 A 
ATOM      4  C   UNL     1       6.330   5.021  15.642  0.00  0.00    +0.000 A 
ATOM      5  C   UNL     1       7.044   4.602  16.766  0.00  0.00    +0.000 A 
ATOM      6  C   UNL     1       6.475   4.717  18.027  0.00  0.00    +0.000 A 
ENDROOT
BRANCH   4   7
ATOM      7  C   UNL     1       6.932   4.760  14.307  0.00  0.00    +0.000 C 
ATOM      8  N   UNL     1       6.499   3.689  13.583  0.00  0.00    +0.000 N 
ATOM      9  O   UNL     1       7.832   5.477  13.889  0.00  0.00    +0.000 OA
ATOM     10  H   UNL     1       5.834   2.991  13.871  0.00  0.00    +0.000 HD
ATOM     11  H   UNL     1       6.988   3.514  12.710  0.00  0.00    +0.000 HD
ENDBRANCH   4   7
BRANCH   1  12
ATOM     12  C   UNL     1       4.566   5.155  19.505  0.00  0.00    +0.000 C 
BRANCH  12  16
ATOM     13  C   UNL     1       1.481   2.989  20.175  0.00  0.00    +0.000 C 
ATOM     14  N   UNL     1       2.359   4.151  20.087  0.00  0.00    +0.000 N 
ATOM     15  C   UNL     1       1.841   5.437  20.539  0.00  0.00    +0.000 C 
ATOM     16  C   UNL     1       3.636   3.956  19.588  0.00  0.00    +0.000 C 
ATOM     17  O   UNL     1       4.033   2.845  19.219  0.00  0.00    +0.000 OA
ENDBRANCH  12  16
ENDBRANCH   1  12
TORSDOF 3
ENDMDL
