MODEL 1
REMARK VINA RESULT:      -8.4      0.000      0.000
REMARK  Name = 
REMARK  3 active torsions:
REMARK  status: ('A' for Active; 'I' for Inactive)
REMARK    1  A    between atoms: C_1  and  N_2
REMARK    2  A    between atoms: C_12  and  S_13
REMARK    3  A    between atoms: S_13  and  C_14
REMARK                            x       y       z     vdW  Elec       q    Type
REMARK                         _______ _______ _______ _____ _____    ______ ____
ROOT
ATOM      1  C   UNL     1       0.307  11.100  18.911  0.00  0.00    +0.000 A 
ATOM      2  N   UNL     1      -0.588  10.585  18.092  0.00  0.00    +0.000 NA
ATOM      3  C   UNL     1      -1.839  10.975  18.260  0.00  0.00    +0.000 A 
ATOM      4  N   UNL     1      -2.770  10.513  17.363  0.00  0.00    +0.000 N 
ATOM      5  C   UNL     1      -2.373   9.608  16.293  0.00  0.00    +0.000 C 
ATOM      6  C   UNL     1      -2.838  10.192  14.962  0.00  0.00    +0.000 C 
ATOM      7  C   UNL     1      -4.337  10.489  14.985  0.00  0.00    +0.000 C 
ATOM      8  C   UNL     1      -4.721  11.360  16.185  0.00  0.00    +0.000 C 
ATOM      9  C   UNL     1      -4.189  10.792  17.504  0.00  0.00    +0.000 C 
ATOM     10  N   UNL     1      -2.197  11.819  19.223  0.00  0.00    +0.000 NA
ATOM     11  C   UNL     1      -1.249  12.278  20.037  0.00  0.00    +0.000 A 
ATOM     12  N   UNL     1      -1.613  13.127  21.061  0.00  0.00    +0.000 N 
ATOM     13  C   UNL     1      -0.635  13.638  22.009  0.00  0.00    +0.000 C 
ATOM     14  C   UNL     1      -1.167  13.417  23.427  0.00  0.00    +0.000 C 
ATOM     15  C   UNL     1      -2.574  13.995  23.604  0.00  0.00    +0.000 C 
ATOM     16  C   UNL     1      -3.525  13.508  22.509  0.00  0.00    +0.000 C 
ATOM     17  C   UNL     1      -2.938  13.721  21.113  0.00  0.00    +0.000 C 
ATOM     18  N   UNL     1       0.029  11.937  19.906  0.00  0.00    +0.000 NA
ENDROOT
BRANCH   1  19
ATOM     19  S   UNL     1       2.014  10.682  18.652  0.00  0.00    +0.000 S 
BRANCH  19  31
ATOM     20  C   UNL     1       4.106   5.737  17.173  0.00  0.00    +0.000 C 
ATOM     21  N   UNL     1       3.333   5.740  18.393  0.00  0.00    +0.000 N 
ATOM     22  C   UNL     1       3.096   4.650  19.214  0.00  0.00    +0.000 A 
ATOM     23  C   UNL     1       3.506   3.308  19.123  0.00  0.00    +0.000 A 
ATOM     24  C   UNL     1       3.104   2.421  20.127  0.00  0.00    +0.000 A 
ATOM     25  C   UNL     1       2.317   2.850  21.191  0.00  0.00    +0.000 A 
ATOM     26  C   UNL     1       1.910   4.187  21.278  0.00  0.00    +0.000 A 
ATOM     27  C   UNL     1       2.301   5.103  20.276  0.00  0.00    +0.000 A 
ATOM     28  C   UNL     1       2.070   6.490  20.062  0.00  0.00    +0.000 A 
ATOM     29  N   UNL     1       1.373   7.409  20.773  0.00  0.00    +0.000 NA
ATOM     30  N   UNL     1       1.365   8.654  20.287  0.00  0.00    +0.000 NA
ATOM     31  C   UNL     1       2.015   8.964  19.130  0.00  0.00    +0.000 A 
ATOM     32  N   UNL     1       2.744   8.106  18.375  0.00  0.00    +0.000 NA
ATOM     33  C   UNL     1       2.721   6.862  18.899  0.00  0.00    +0.000 A 
ENDBRANCH  19  31
ENDBRANCH   1  19
TORSDOF 2
ENDMDL
MODEL 2
REMARK VINA RESULT:      -8.3      2.336      5.362
REMARK  Name = 
REMARK  3 active torsions:
REMARK  status: ('A' for Active; 'I' for Inactive)
REMARK    1  A    between atoms: C_1  and  N_2
REMARK    2  A    between atoms: C_12  and  S_13
REMARK    3  A    between atoms: S_13  and  C_14
REMARK                            x       y       z     vdW  Elec       q    Type
REMARK                         _______ _______ _______ _____ _____    ______ ____
ROOT
ATOM      1  C   UNL     1      -2.281  12.806  21.391  0.00  0.00    +0.000 A 
ATOM      2  N   UNL     1      -3.208  13.645  21.810  0.00  0.00    +0.000 NA
ATOM      3  C   UNL     1      -4.326  13.691  21.108  0.00  0.00    +0.000 A 
ATOM      4  N   UNL     1      -5.334  14.496  21.579  0.00  0.00    +0.000 N 
ATOM      5  C   UNL     1      -5.142  15.277  22.793  0.00  0.00    +0.000 C 
ATOM      6  C   UNL     1      -6.284  14.969  23.757  0.00  0.00    +0.000 C 
ATOM      7  C   UNL     1      -7.642  15.196  23.094  0.00  0.00    +0.000 C 
ATOM      8  C   UNL     1      -7.756  14.434  21.770  0.00  0.00    +0.000 C 
ATOM      9  C   UNL     1      -6.568  14.705  20.843  0.00  0.00    +0.000 C 
ATOM     10  N   UNL     1      -4.508  12.960  20.012  0.00  0.00    +0.000 NA
ATOM     11  C   UNL     1      -3.520  12.157  19.624  0.00  0.00    +0.000 A 
ATOM     12  N   UNL     1      -3.683  11.420  18.471  0.00  0.00    +0.000 N 
ATOM     13  C   UNL     1      -2.631  10.551  17.968  0.00  0.00    +0.000 C 
ATOM     14  C   UNL     1      -2.417  10.851  16.482  0.00  0.00    +0.000 C 
ATOM     15  C   UNL     1      -3.725  10.773  15.691  0.00  0.00    +0.000 C 
ATOM     16  C   UNL     1      -4.825  11.620  16.336  0.00  0.00    +0.000 C 
ATOM     17  C   UNL     1      -4.981  11.308  17.825  0.00  0.00    +0.000 C 
ATOM     18  N   UNL     1      -2.379  12.054  20.299  0.00  0.00    +0.000 NA
ENDROOT
BRANCH   1  19
ATOM     19  S   UNL     1      -0.805  12.638  22.364  0.00  0.00    +0.000 S 
BRANCH  19  31
ATOM     20  C   UNL     1       1.867  10.368  18.037  0.00  0.00    +0.000 C 
ATOM     21  N   UNL     1       1.597   9.470  19.136  0.00  0.00    +0.000 N 
ATOM     22  C   UNL     1       1.959   8.135  19.209  0.00  0.00    +0.000 A 
ATOM     23  C   UNL     1       2.650   7.305  18.308  0.00  0.00    +0.000 A 
ATOM     24  C   UNL     1       2.874   5.972  18.670  0.00  0.00    +0.000 A 
ATOM     25  C   UNL     1       2.424   5.474  19.889  0.00  0.00    +0.000 A 
ATOM     26  C   UNL     1       1.735   6.303  20.782  0.00  0.00    +0.000 A 
ATOM     27  C   UNL     1       1.495   7.653  20.441  0.00  0.00    +0.000 A 
ATOM     28  C   UNL     1       0.846   8.736  21.096  0.00  0.00    +0.000 A 
ATOM     29  N   UNL     1       0.225   8.822  22.296  0.00  0.00    +0.000 NA
ATOM     30  N   UNL     1      -0.282  10.018  22.617  0.00  0.00    +0.000 NA
ATOM     31  C   UNL     1      -0.183  11.078  21.766  0.00  0.00    +0.000 A 
ATOM     32  N   UNL     1       0.436  11.072  20.560  0.00  0.00    +0.000 NA
ATOM     33  C   UNL     1       0.927   9.847  20.275  0.00  0.00    +0.000 A 
ENDBRANCH  19  31
ENDBRANCH   1  19
TORSDOF 2
ENDMDL
MODEL 3
REMARK VINA RESULT:      -8.2      1.852      2.714
REMARK  Name = 
REMARK  3 active torsions:
REMARK  status: ('A' for Active; 'I' for Inactive)
REMARK    1  A    between atoms: C_1  and  N_2
REMARK    2  A    between atoms: C_12  and  S_13
REMARK    3  A    between atoms: S_13  and  C_14
REMARK                            x       y       z     vdW  Elec       q    Type
REMARK                         _______ _______ _______ _____ _____    ______ ____
ROOT
ATOM      1  C   UNL     1      -1.523  12.489  20.890  0.00  0.00    +0.000 A 
ATOM      2  N   UNL     1      -1.861  11.709  19.882  0.00  0.00    +0.000 NA
ATOM      3  C   UNL     1      -3.086  11.849  19.409  0.00  0.00    +0.000 A 
ATOM      4  N   UNL     1      -3.426  11.105  18.307  0.00  0.00    +0.000 N 
ATOM      5  C   UNL     1      -2.463  10.184  17.717  0.00  0.00    +0.000 C 
ATOM      6  C   UNL     1      -2.331  10.502  16.230  0.00  0.00    +0.000 C 
ATOM      7  C   UNL     1      -3.694  10.484  15.540  0.00  0.00    +0.000 C 
ATOM      8  C   UNL     1      -4.701  11.389  16.256  0.00  0.00    +0.000 C 
ATOM      9  C   UNL     1      -4.771  11.099  17.759  0.00  0.00    +0.000 C 
ATOM     10  N   UNL     1      -3.957  12.707  19.934  0.00  0.00    +0.000 NA
ATOM     11  C   UNL     1      -3.564  13.442  20.971  0.00  0.00    +0.000 A 
ATOM     12  N   UNL     1      -4.468  14.309  21.546  0.00  0.00    +0.000 N 
ATOM     13  C   UNL     1      -4.118  15.117  22.704  0.00  0.00    +0.000 C 
ATOM     14  C   UNL     1      -5.213  14.955  23.762  0.00  0.00    +0.000 C 
ATOM     15  C   UNL     1      -6.603  15.246  23.192  0.00  0.00    +0.000 C 
ATOM     16  C   UNL     1      -6.865  14.451  21.912  0.00  0.00    +0.000 C 
ATOM     17  C   UNL     1      -5.732  14.618  20.898  0.00  0.00    +0.000 C 
ATOM     18  N   UNL     1      -2.338  13.359  21.479  0.00  0.00    +0.000 NA
ENDROOT
BRANCH   1  19
ATOM     19  S   UNL     1       0.147  12.406  21.488  0.00  0.00    +0.000 S 
BRANCH  19  31
ATOM     20  C   UNL     1       2.293   9.110  17.543  0.00  0.00    +0.000 C 
ATOM     21  N   UNL     1       1.971   8.453  18.789  0.00  0.00    +0.000 N 
ATOM     22  C   UNL     1       2.168   7.114  19.082  0.00  0.00    +0.000 A 
ATOM     23  C   UNL     1       2.705   6.062  18.318  0.00  0.00    +0.000 A 
ATOM     24  C   UNL     1       2.780   4.791  18.899  0.00  0.00    +0.000 A 
ATOM     25  C   UNL     1       2.335   4.569  20.199  0.00  0.00    +0.000 A 
ATOM     26  C   UNL     1       1.801   5.618  20.955  0.00  0.00    +0.000 A 
ATOM     27  C   UNL     1       1.712   6.911  20.392  0.00  0.00    +0.000 A 
ATOM     28  C   UNL     1       1.236   8.164  20.867  0.00  0.00    +0.000 A 
ATOM     29  N   UNL     1       0.693   8.532  22.052  0.00  0.00    +0.000 NA
ATOM     30  N   UNL     1       0.355   9.820  22.176  0.00  0.00    +0.000 NA
ATOM     31  C   UNL     1       0.540  10.699  21.151  0.00  0.00    +0.000 A 
ATOM     32  N   UNL     1       1.090  10.410  19.947  0.00  0.00    +0.000 NA
ATOM     33  C   UNL     1       1.412   9.101  19.865  0.00  0.00    +0.000 A 
ENDBRANCH  19  31
ENDBRANCH   1  19
TORSDOF 2
ENDMDL
MODEL 4
REMARK VINA RESULT:      -8.2      2.163      3.209
REMARK  Name = 
REMARK  3 active torsions:
REMARK  status: ('A' for Active; 'I' for Inactive)
REMARK    1  A    between atoms: C_1  and  N_2
REMARK    2  A    between atoms: C_12  and  S_13
REMARK    3  A    between atoms: S_13  and  C_14
REMARK                            x       y       z     vdW  Elec       q    Type
REMARK                         _______ _______ _______ _____ _____    ______ ____
ROOT
ATOM      1  C   UNL     1       0.180   9.956  20.251  0.00  0.00    +0.000 A 
ATOM      2  N   UNL     1      -0.871   9.819  19.467  0.00  0.00    +0.000 NA
ATOM      3  C   UNL     1      -1.245  10.886  18.784  0.00  0.00    +0.000 A 
ATOM      4  N   UNL     1      -2.285  10.737  17.900  0.00  0.00    +0.000 N 
ATOM      5  C   UNL     1      -2.950   9.449  17.759  0.00  0.00    +0.000 C 
ATOM      6  C   UNL     1      -2.945   9.057  16.284  0.00  0.00    +0.000 C 
ATOM      7  C   UNL     1      -3.557  10.158  15.419  0.00  0.00    +0.000 C 
ATOM      8  C   UNL     1      -2.893  11.513  15.678  0.00  0.00    +0.000 C 
ATOM      9  C   UNL     1      -2.848  11.859  17.169  0.00  0.00    +0.000 C 
ATOM     10  N   UNL     1      -0.622  12.055  18.897  0.00  0.00    +0.000 NA
ATOM     11  C   UNL     1       0.413  12.136  19.730  0.00  0.00    +0.000 A 
ATOM     12  N   UNL     1       1.044  13.352  19.882  0.00  0.00    +0.000 N 
ATOM     13  C   UNL     1       2.158  13.521  20.803  0.00  0.00    +0.000 C 
ATOM     14  C   UNL     1       1.890  14.751  21.674  0.00  0.00    +0.000 C 
ATOM     15  C   UNL     1       1.580  15.990  20.831  0.00  0.00    +0.000 C 
ATOM     16  C   UNL     1       0.479  15.713  19.806  0.00  0.00    +0.000 C 
ATOM     17  C   UNL     1       0.775  14.459  18.980  0.00  0.00    +0.000 C 
ATOM     18  N   UNL     1       0.847  11.092  20.430  0.00  0.00    +0.000 NA
ENDROOT
BRANCH   1  19
ATOM     19  S   UNL     1       0.778   8.518  21.106  0.00  0.00    +0.000 S 
BRANCH  19  31
ATOM     20  C   UNL     1       3.462   3.831  19.749  0.00  0.00    +0.000 C 
ATOM     21  N   UNL     1       3.627   4.927  18.823  0.00  0.00    +0.000 N 
ATOM     22  C   UNL     1       4.358   4.901  17.647  0.00  0.00    +0.000 A 
ATOM     23  C   UNL     1       5.106   3.878  17.036  0.00  0.00    +0.000 A 
ATOM     24  C   UNL     1       5.744   4.156  15.823  0.00  0.00    +0.000 A 
ATOM     25  C   UNL     1       5.647   5.412  15.232  0.00  0.00    +0.000 A 
ATOM     26  C   UNL     1       4.904   6.428  15.844  0.00  0.00    +0.000 A 
ATOM     27  C   UNL     1       4.250   6.174  17.070  0.00  0.00    +0.000 A 
ATOM     28  C   UNL     1       3.438   6.957  17.936  0.00  0.00    +0.000 A 
ATOM     29  N   UNL     1       3.019   8.243  17.862  0.00  0.00    +0.000 NA
ATOM     30  N   UNL     1       2.241   8.672  18.861  0.00  0.00    +0.000 NA
ATOM     31  C   UNL     1       1.908   7.853  19.898  0.00  0.00    +0.000 A 
ATOM     32  N   UNL     1       2.274   6.555  20.033  0.00  0.00    +0.000 NA
ATOM     33  C   UNL     1       3.060   6.166  19.006  0.00  0.00    +0.000 A 
ENDBRANCH  19  31
ENDBRANCH   1  19
TORSDOF 2
ENDMDL
MODEL 5
REMARK VINA RESULT:      -8.1      1.310      1.708
REMARK  Name = 
REMARK  3 active torsions:
REMARK  status: ('A' for Active; 'I' for Inactive)
REMARK    1  A    between atoms: C_1  and  N_2
REMARK    2  A    between atoms: C_12  and  S_13
REMARK    3  A    between atoms: S_13  and  C_14
REMARK                            x       y       z     vdW  Elec       q    Type
REMARK                         _______ _______ _______ _____ _____    ______ ____
ROOT
ATOM      1  C   UNL     1      -0.706  11.971  20.404  0.00  0.00    +0.000 A 
ATOM      2  N   UNL     1      -1.265  11.281  19.430  0.00  0.00    +0.000 NA
ATOM      3  C   UNL     1      -2.539  11.529  19.183  0.00  0.00    +0.000 A 
ATOM      4  N   UNL     1      -3.114  10.880  18.118  0.00  0.00    +0.000 N 
ATOM      5  C   UNL     1      -2.335   9.941  17.324  0.00  0.00    +0.000 C 
ATOM      6  C   UNL     1      -2.432  10.345  15.855  0.00  0.00    +0.000 C 
ATOM      7  C   UNL     1      -3.890  10.459  15.411  0.00  0.00    +0.000 C 
ATOM      8  C   UNL     1      -4.691  11.378  16.337  0.00  0.00    +0.000 C 
ATOM      9  C   UNL     1      -4.529  10.996  17.811  0.00  0.00    +0.000 C 
ATOM     10  N   UNL     1      -3.243  12.404  19.895  0.00  0.00    +0.000 NA
ATOM     11  C   UNL     1      -2.627  13.044  20.886  0.00  0.00    +0.000 A 
ATOM     12  N   UNL     1      -3.356  13.928  21.654  0.00  0.00    +0.000 N 
ATOM     13  C   UNL     1      -2.756  14.635  22.775  0.00  0.00    +0.000 C 
ATOM     14  C   UNL     1      -3.666  14.476  23.996  0.00  0.00    +0.000 C 
ATOM     15  C   UNL     1      -5.107  14.891  23.692  0.00  0.00    +0.000 C 
ATOM     16  C   UNL     1      -5.639  14.199  22.435  0.00  0.00    +0.000 C 
ATOM     17  C   UNL     1      -4.684  14.359  21.251  0.00  0.00    +0.000 C 
ATOM     18  N   UNL     1      -1.343  12.851  21.170  0.00  0.00    +0.000 NA
ENDROOT
BRANCH   1  19
ATOM     19  S   UNL     1       1.031  11.743  20.699  0.00  0.00    +0.000 S 
BRANCH  19  31
ATOM     20  C   UNL     1       3.166   7.816  17.376  0.00  0.00    +0.000 C 
ATOM     21  N   UNL     1       2.544   7.330  18.585  0.00  0.00    +0.000 N 
ATOM     22  C   UNL     1       2.458   6.007  18.985  0.00  0.00    +0.000 A 
ATOM     23  C   UNL     1       2.917   4.820  18.387  0.00  0.00    +0.000 A 
ATOM     24  C   UNL     1       2.679   3.609  19.046  0.00  0.00    +0.000 A 
ATOM     25  C   UNL     1       2.004   3.574  20.262  0.00  0.00    +0.000 A 
ATOM     26  C   UNL     1       1.547   4.757  20.853  0.00  0.00    +0.000 A 
ATOM     27  C   UNL     1       1.773   5.994  20.208  0.00  0.00    +0.000 A 
ATOM     28  C   UNL     1       1.453   7.344  20.522  0.00  0.00    +0.000 A 
ATOM     29  N   UNL     1       0.802   7.895  21.574  0.00  0.00    +0.000 NA
ATOM     30  N   UNL     1       0.677   9.226  21.563  0.00  0.00    +0.000 NA
ATOM     31  C   UNL     1       1.170   9.973  20.535  0.00  0.00    +0.000 A 
ATOM     32  N   UNL     1       1.845   9.495  19.460  0.00  0.00    +0.000 NA
ATOM     33  C   UNL     1       1.944   8.150  19.510  0.00  0.00    +0.000 A 
ENDBRANCH  19  31
ENDBRANCH   1  19
TORSDOF 2
ENDMDL
MODEL 6
REMARK VINA RESULT:      -8.1      1.279      4.661
REMARK  Name = 
REMARK  3 active torsions:
REMARK  status: ('A' for Active; 'I' for Inactive)
REMARK    1  A    between atoms: C_1  and  N_2
REMARK    2  A    between atoms: C_12  and  S_13
REMARK    3  A    between atoms: S_13  and  C_14
REMARK                            x       y       z     vdW  Elec       q    Type
REMARK                         _______ _______ _______ _____ _____    ______ ____
ROOT
ATOM      1  C   UNL     1      -0.641  12.022  20.377  0.00  0.00    +0.000 A 
ATOM      2  N   UNL     1      -1.344  12.836  21.138  0.00  0.00    +0.000 NA
ATOM      3  C   UNL     1      -2.628  12.957  20.851  0.00  0.00    +0.000 A 
ATOM      4  N   UNL     1      -3.391  13.735  21.685  0.00  0.00    +0.000 N 
ATOM      5  C   UNL     1      -2.780  14.413  22.821  0.00  0.00    +0.000 C 
ATOM      6  C   UNL     1      -3.554  14.044  24.083  0.00  0.00    +0.000 C 
ATOM      7  C   UNL     1      -5.043  14.344  23.924  0.00  0.00    +0.000 C 
ATOM      8  C   UNL     1      -5.617  13.693  22.662  0.00  0.00    +0.000 C 
ATOM      9  C   UNL     1      -4.790  14.021  21.416  0.00  0.00    +0.000 C 
ATOM     10  N   UNL     1      -3.190  12.319  19.828  0.00  0.00    +0.000 NA
ATOM     11  C   UNL     1      -2.418  11.536  19.078  0.00  0.00    +0.000 A 
ATOM     12  N   UNL     1      -2.981  10.898  17.994  0.00  0.00    +0.000 N 
ATOM     13  C   UNL     1      -2.189  10.057  17.110  0.00  0.00    +0.000 C 
ATOM     14  C   UNL     1      -2.463  10.473  15.662  0.00  0.00    +0.000 C 
ATOM     15  C   UNL     1      -3.961  10.479  15.346  0.00  0.00    +0.000 C 
ATOM     16  C   UNL     1      -4.752  11.287  16.377  0.00  0.00    +0.000 C 
ATOM     17  C   UNL     1      -4.422  10.857  17.808  0.00  0.00    +0.000 C 
ATOM     18  N   UNL     1      -1.124  11.361  19.328  0.00  0.00    +0.000 NA
ENDROOT
BRANCH   1  19
ATOM     19  S   UNL     1       1.064  11.753  20.793  0.00  0.00    +0.000 S 
BRANCH  19  31
ATOM     20  C   UNL     1       3.165   7.835  17.438  0.00  0.00    +0.000 C 
ATOM     21  N   UNL     1       2.529   7.344  18.639  0.00  0.00    +0.000 N 
ATOM     22  C   UNL     1       2.423   6.017  19.024  0.00  0.00    +0.000 A 
ATOM     23  C   UNL     1       2.870   4.831  18.415  0.00  0.00    +0.000 A 
ATOM     24  C   UNL     1       2.612   3.616  19.059  0.00  0.00    +0.000 A 
ATOM     25  C   UNL     1       1.930   3.577  20.271  0.00  0.00    +0.000 A 
ATOM     26  C   UNL     1       1.486   4.760  20.873  0.00  0.00    +0.000 A 
ATOM     27  C   UNL     1       1.732   6.000  20.243  0.00  0.00    +0.000 A 
ATOM     28  C   UNL     1       1.428   7.351  20.570  0.00  0.00    +0.000 A 
ATOM     29  N   UNL     1       0.779   7.899  21.624  0.00  0.00    +0.000 NA
ATOM     30  N   UNL     1       0.672   9.232  21.627  0.00  0.00    +0.000 NA
ATOM     31  C   UNL     1       1.181   9.983  20.610  0.00  0.00    +0.000 A 
ATOM     32  N   UNL     1       1.854   9.508  19.534  0.00  0.00    +0.000 NA
ATOM     33  C   UNL     1       1.935   8.161  19.570  0.00  0.00    +0.000 A 
ENDBRANCH  19  31
ENDBRANCH   1  19
TORSDOF 2
ENDMDL
MODEL 7
REMARK VINA RESULT:      -8.0      2.175      5.016
REMARK  Name = 
REMARK  3 active torsions:
REMARK  status: ('A' for Active; 'I' for Inactive)
REMARK    1  A    between atoms: C_1  and  N_2
REMARK    2  A    between atoms: C_12  and  S_13
REMARK    3  A    between atoms: S_13  and  C_14
REMARK                            x       y       z     vdW  Elec       q    Type
REMARK                         _______ _______ _______ _____ _____    ______ ____
ROOT
ATOM      1  C   UNL     1       0.225  10.191  20.560  0.00  0.00    +0.000 A 
ATOM      2  N   UNL     1       0.953  11.290  20.572  0.00  0.00    +0.000 NA
ATOM      3  C   UNL     1       0.604  12.241  19.725  0.00  0.00    +0.000 A 
ATOM      4  N   UNL     1       1.298  13.424  19.784  0.00  0.00    +0.000 N 
ATOM      5  C   UNL     1       2.390  13.588  20.733  0.00  0.00    +0.000 C 
ATOM      6  C   UNL     1       2.134  14.845  21.560  0.00  0.00    +0.000 C 
ATOM      7  C   UNL     1       1.920  16.062  20.660  0.00  0.00    +0.000 C 
ATOM      8  C   UNL     1       0.833  15.804  19.613  0.00  0.00    +0.000 C 
ATOM      9  C   UNL     1       1.072  14.504  18.839  0.00  0.00    +0.000 C 
ATOM     10  N   UNL     1      -0.408  12.099  18.874  0.00  0.00    +0.000 NA
ATOM     11  C   UNL     1      -1.083  10.952  18.890  0.00  0.00    +0.000 A 
ATOM     12  N   UNL     1      -2.111  10.779  17.988  0.00  0.00    +0.000 N 
ATOM     13  C   UNL     1      -2.867   9.537  17.925  0.00  0.00    +0.000 C 
ATOM     14  C   UNL     1      -2.930   9.076  16.467  0.00  0.00    +0.000 C 
ATOM     15  C   UNL     1      -3.455  10.178  15.543  0.00  0.00    +0.000 C 
ATOM     16  C   UNL     1      -2.693  11.490  15.740  0.00  0.00    +0.000 C 
ATOM     17  C   UNL     1      -2.630  11.894  17.214  0.00  0.00    +0.000 C 
ATOM     18  N   UNL     1      -0.790   9.965  19.732  0.00  0.00    +0.000 NA
ENDROOT
BRANCH   1  19
ATOM     19  S   UNL     1       0.596   8.929  21.753  0.00  0.00    +0.000 S 
BRANCH  19  31
ATOM     20  C   UNL     1       1.780   3.499  21.401  0.00  0.00    +0.000 C 
ATOM     21  N   UNL     1       2.244   4.305  20.295  0.00  0.00    +0.000 N 
ATOM     22  C   UNL     1       2.918   3.846  19.176  0.00  0.00    +0.000 A 
ATOM     23  C   UNL     1       3.326   2.555  18.797  0.00  0.00    +0.000 A 
ATOM     24  C   UNL     1       4.001   2.402  17.580  0.00  0.00    +0.000 A 
ATOM     25  C   UNL     1       4.265   3.497  16.763  0.00  0.00    +0.000 A 
ATOM     26  C   UNL     1       3.858   4.781  17.145  0.00  0.00    +0.000 A 
ATOM     27  C   UNL     1       3.177   4.963  18.369  0.00  0.00    +0.000 A 
ATOM     28  C   UNL     1       2.640   6.097  19.041  0.00  0.00    +0.000 A 
ATOM     29  N   UNL     1       2.613   7.410  18.712  0.00  0.00    +0.000 NA
ATOM     30  N   UNL     1       2.009   8.227  19.582  0.00  0.00    +0.000 NA
ATOM     31  C   UNL     1       1.466   7.750  20.738  0.00  0.00    +0.000 A 
ATOM     32  N   UNL     1       1.440   6.451  21.125  0.00  0.00    +0.000 NA
ATOM     33  C   UNL     1       2.064   5.665  20.222  0.00  0.00    +0.000 A 
ENDBRANCH  19  31
ENDBRANCH   1  19
TORSDOF 2
ENDMDL
MODEL 8
REMARK VINA RESULT:      -7.9      1.898      5.147
REMARK  Name = 
REMARK  3 active torsions:
REMARK  status: ('A' for Active; 'I' for Inactive)
REMARK    1  A    between atoms: C_1  and  N_2
REMARK    2  A    between atoms: C_12  and  S_13
REMARK    3  A    between atoms: S_13  and  C_14
REMARK                            x       y       z     vdW  Elec       q    Type
REMARK                         _______ _______ _______ _____ _____    ______ ____
ROOT
ATOM      1  C   UNL     1       0.069  10.098  20.134  0.00  0.00    +0.000 A 
ATOM      2  N   UNL     1       0.570  11.299  20.343  0.00  0.00    +0.000 NA
ATOM      3  C   UNL     1       0.006  12.300  19.691  0.00  0.00    +0.000 A 
ATOM      4  N   UNL     1       0.460  13.566  19.962  0.00  0.00    +0.000 N 
ATOM      5  C   UNL     1       1.542  13.770  20.915  0.00  0.00    +0.000 C 
ATOM      6  C   UNL     1       1.086  14.781  21.963  0.00  0.00    +0.000 C 
ATOM      7  C   UNL     1       0.600  16.073  21.307  0.00  0.00    +0.000 C 
ATOM      8  C   UNL     1      -0.464  15.797  20.241  0.00  0.00    +0.000 C 
ATOM      9  C   UNL     1      -0.014  14.732  19.237  0.00  0.00    +0.000 C 
ATOM     10  N   UNL     1      -0.998  12.115  18.838  0.00  0.00    +0.000 NA
ATOM     11  C   UNL     1      -1.436  10.873  18.647  0.00  0.00    +0.000 A 
ATOM     12  N   UNL     1      -2.453  10.665  17.739  0.00  0.00    +0.000 N 
ATOM     13  C   UNL     1      -2.956   9.330  17.453  0.00  0.00    +0.000 C 
ATOM     14  C   UNL     1      -2.995   9.136  15.935  0.00  0.00    +0.000 C 
ATOM     15  C   UNL     1      -3.766  10.259  15.237  0.00  0.00    +0.000 C 
ATOM     16  C   UNL     1      -3.263  11.639  15.667  0.00  0.00    +0.000 C 
ATOM     17  C   UNL     1      -3.212  11.775  17.189  0.00  0.00    +0.000 C 
ATOM     18  N   UNL     1      -0.921   9.829  19.288  0.00  0.00    +0.000 NA
ENDROOT
BRANCH   1  19
ATOM     19  S   UNL     1       0.732   8.741  21.069  0.00  0.00    +0.000 S 
BRANCH  19  31
ATOM     20  C   UNL     1       3.355   3.988  19.829  0.00  0.00    +0.000 C 
ATOM     21  N   UNL     1       3.543   5.062  18.881  0.00  0.00    +0.000 N 
ATOM     22  C   UNL     1       4.282   5.001  17.711  0.00  0.00    +0.000 A 
ATOM     23  C   UNL     1       5.018   3.954  17.127  0.00  0.00    +0.000 A 
ATOM     24  C   UNL     1       5.669   4.198  15.913  0.00  0.00    +0.000 A 
ATOM     25  C   UNL     1       5.595   5.442  15.295  0.00  0.00    +0.000 A 
ATOM     26  C   UNL     1       4.862   6.482  15.881  0.00  0.00    +0.000 A 
ATOM     27  C   UNL     1       4.196   6.263  17.107  0.00  0.00    +0.000 A 
ATOM     28  C   UNL     1       3.390   7.076  17.951  0.00  0.00    +0.000 A 
ATOM     29  N   UNL     1       2.991   8.366  17.848  0.00  0.00    +0.000 NA
ATOM     30  N   UNL     1       2.212   8.827  18.832  0.00  0.00    +0.000 NA
ATOM     31  C   UNL     1       1.860   8.035  19.883  0.00  0.00    +0.000 A 
ATOM     32  N   UNL     1       2.206   6.734  20.047  0.00  0.00    +0.000 NA
ATOM     33  C   UNL     1       2.993   6.312  19.035  0.00  0.00    +0.000 A 
ENDBRANCH  19  31
ENDBRANCH   1  19
TORSDOF 2
ENDMDL
MODEL 9
REMARK VINA RESULT:      -7.8      1.939      3.201
REMARK  Name = 
REMARK  3 active torsions:
REMARK  status: ('A' for Active; 'I' for Inactive)
REMARK    1  A    between atoms: C_1  and  N_2
REMARK    2  A    between atoms: C_12  and  S_13
REMARK    3  A    between atoms: S_13  and  C_14
REMARK                            x       y       z     vdW  Elec       q    Type
REMARK                         _______ _______ _______ _____ _____    ______ ____
ROOT
ATOM      1  C   UNL     1      -0.681  13.372  19.779  0.00  0.00    +0.000 A 
ATOM      2  N   UNL     1      -1.641  12.656  19.228  0.00  0.00    +0.000 NA
ATOM      3  C   UNL     1      -2.823  12.698  19.816  0.00  0.00    +0.000 A 
ATOM      4  N   UNL     1      -3.854  12.026  19.208  0.00  0.00    +0.000 N 
ATOM      5  C   UNL     1      -3.622  11.282  17.978  0.00  0.00    +0.000 C 
ATOM      6  C   UNL     1      -4.623  11.751  16.927  0.00  0.00    +0.000 C 
ATOM      7  C   UNL     1      -6.057  11.641  17.444  0.00  0.00    +0.000 C 
ATOM      8  C   UNL     1      -6.226  12.353  18.789  0.00  0.00    +0.000 C 
ATOM      9  C   UNL     1      -5.172  11.918  19.811  0.00  0.00    +0.000 C 
ATOM     10  N   UNL     1      -3.040  13.397  20.927  0.00  0.00    +0.000 NA
ATOM     11  C   UNL     1      -2.020  14.073  21.450  0.00  0.00    +0.000 A 
ATOM     12  N   UNL     1      -2.223  14.773  22.620  0.00  0.00    +0.000 N 
ATOM     13  C   UNL     1      -1.144  15.503  23.268  0.00  0.00    +0.000 C 
ATOM     14  C   UNL     1      -1.113  15.119  24.749  0.00  0.00    +0.000 C 
ATOM     15  C   UNL     1      -2.480  15.300  25.414  0.00  0.00    +0.000 C 
ATOM     16  C   UNL     1      -3.589  14.604  24.622  0.00  0.00    +0.000 C 
ATOM     17  C   UNL     1      -3.561  14.994  23.143  0.00  0.00    +0.000 C 
ATOM     18  N   UNL     1      -0.812  14.084  20.894  0.00  0.00    +0.000 NA
ENDROOT
BRANCH   1  19
ATOM     19  S   UNL     1       0.896  13.425  18.961  0.00  0.00    +0.000 S 
BRANCH  19  31
ATOM     20  C   UNL     1       0.615   8.864  22.145  0.00  0.00    +0.000 C 
ATOM     21  N   UNL     1       1.167   8.663  20.825  0.00  0.00    +0.000 N 
ATOM     22  C   UNL     1       1.598   7.459  20.295  0.00  0.00    +0.000 A 
ATOM     23  C   UNL     1       1.627   6.159  20.832  0.00  0.00    +0.000 A 
ATOM     24  C   UNL     1       2.126   5.123  20.037  0.00  0.00    +0.000 A 
ATOM     25  C   UNL     1       2.587   5.365  18.747  0.00  0.00    +0.000 A 
ATOM     26  C   UNL     1       2.558   6.660  18.216  0.00  0.00    +0.000 A 
ATOM     27  C   UNL     1       2.059   7.725  18.998  0.00  0.00    +0.000 A 
ATOM     28  C   UNL     1       1.893   9.121  18.775  0.00  0.00    +0.000 A 
ATOM     29  N   UNL     1       2.173   9.902  17.705  0.00  0.00    +0.000 NA
ATOM     30  N   UNL     1       1.879  11.201  17.825  0.00  0.00    +0.000 NA
ATOM     31  C   UNL     1       1.339  11.699  18.974  0.00  0.00    +0.000 A 
ATOM     32  N   UNL     1       1.018  10.978  20.076  0.00  0.00    +0.000 NA
ATOM     33  C   UNL     1       1.335   9.676  19.912  0.00  0.00    +0.000 A 
ENDBRANCH  19  31
ENDBRANCH   1  19
TORSDOF 2
ENDMDL
