MODEL 1
REMARK VINA RESULT:      -8.4      0.000      0.000
REMARK  Name = 
REMARK  6 active torsions:
REMARK  status: ('A' for Active; 'I' for Inactive)
REMARK    1  A    between atoms: C_1  and  C_2
REMARK    2  A    between atoms: C_2  and  O_3
REMARK    3  A    between atoms: C_2  and  C_4
REMARK    4  A    between atoms: C_8  and  C_9
REMARK    5  A    between atoms: C_12  and  C_13
REMARK    6  A    between atoms: N_20  and  C_21
REMARK                            x       y       z     vdW  Elec       q    Type
REMARK                         _______ _______ _______ _____ _____    ______ ____
ROOT
ATOM      1  C   UNL     1       5.031   4.687  16.645  0.00  0.00    +0.000 C 
ATOM      2  C   UNL     1       4.143   3.914  17.622  0.00  0.00    +0.000 C 
ATOM      3  O   UNL     1       3.463   2.918  17.507  0.00  0.00    +0.000 OA
ATOM      4  N   UNL     1       4.301   4.859  18.603  0.00  0.00    +0.000 N 
ATOM      5  C   UNL     1       3.200   5.611  19.005  0.00  0.00    +0.000 C 
ATOM      6  C   UNL     1       3.275   6.866  18.524  0.00  0.00    +0.000 C 
ATOM      7  C   UNL     1       4.506   7.090  17.713  0.00  0.00    +0.000 C 
ATOM      8  C   UNL     1       5.192   5.728  17.785  0.00  0.00    +0.000 C 
ENDROOT
BRANCH   6   9
ATOM      9  C   UNL     1       2.272   7.919  18.638  0.00  0.00    +0.000 A 
ATOM     10  C   UNL     1       1.942   8.708  17.535  0.00  0.00    +0.000 A 
ATOM     11  C   UNL     1       1.038   9.769  17.650  0.00  0.00    +0.000 A 
ATOM     12  C   UNL     1       0.491  10.019  18.914  0.00  0.00    +0.000 A 
ATOM     13  N   UNL     1      -0.357  11.018  19.328  0.00  0.00    +0.000 N 
ATOM     14  C   UNL     1      -0.626  10.900  20.671  0.00  0.00    +0.000 A 
ATOM     15  C   UNL     1      -1.415  11.678  21.510  0.00  0.00    +0.000 A 
ATOM     16  N   UNL     1      -1.487  11.325  22.807  0.00  0.00    +0.000 N 
ATOM     17  C   UNL     1      -2.329  12.108  23.726  0.00  0.00    +0.000 C 
ATOM     18  C   UNL     1      -0.807  10.269  23.306  0.00  0.00    +0.000 A 
ATOM     19  C   UNL     1      -0.004   9.477  22.497  0.00  0.00    +0.000 A 
ATOM     20  C   UNL     1       0.083   9.801  21.140  0.00  0.00    +0.000 A 
ATOM     21  C   UNL     1       0.792   9.246  20.031  0.00  0.00    +0.000 A 
ATOM     22  C   UNL     1       1.691   8.172  19.888  0.00  0.00    +0.000 A 
ATOM     23  H   UNL     1      -0.694  11.746  18.713  0.00  0.00    +0.000 HD
ENDBRANCH   6   9
BRANCH   5  24
ATOM     24  C   UNL     1       2.023   4.979  19.840  0.00  0.00    +0.000 C 
ATOM     25  O   UNL     1       2.139   5.098  21.093  0.00  0.00    +0.000 OA
ATOM     26  O   UNL     1       1.090   4.446  19.167  0.00  0.00    +0.000 OA
ENDBRANCH   5  24
BRANCH   1  28
ATOM     27  C   UNL     1       6.989   4.828  15.075  0.00  0.00    +0.000 C 
ATOM     28  C   UNL     1       6.277   3.988  16.125  0.00  0.00    +0.000 C 
BRANCH  28  29
ATOM     29  O   UNL     1       5.979   2.700  15.592  0.00  0.00    +0.000 OA
ATOM     30  H   UNL     1       6.134   2.720  14.628  0.00  0.00    +0.000 HD
ENDBRANCH  28  29
ENDBRANCH   1  28
TORSDOF 4
ENDMDL
MODEL 2
REMARK VINA RESULT:      -8.3      2.948      8.740
REMARK  Name = 
REMARK  6 active torsions:
REMARK  status: ('A' for Active; 'I' for Inactive)
REMARK    1  A    between atoms: C_1  and  C_2
REMARK    2  A    between atoms: C_2  and  O_3
REMARK    3  A    between atoms: C_2  and  C_4
REMARK    4  A    between atoms: C_8  and  C_9
REMARK    5  A    between atoms: C_12  and  C_13
REMARK    6  A    between atoms: N_20  and  C_21
REMARK                            x       y       z     vdW  Elec       q    Type
REMARK                         _______ _______ _______ _____ _____    ______ ____
ROOT
ATOM      1  C   UNL     1      -0.952  10.733  22.268  0.00  0.00    +0.000 C 
ATOM      2  C   UNL     1      -0.800  11.229  20.828  0.00  0.00    +0.000 C 
ATOM      3  O   UNL     1      -1.597  11.605  19.998  0.00  0.00    +0.000 OA
ATOM      4  N   UNL     1       0.540  10.938  20.810  0.00  0.00    +0.000 N 
ATOM      5  C   UNL     1       1.005   9.935  19.965  0.00  0.00    +0.000 C 
ATOM      6  C   UNL     1       1.317   8.826  20.663  0.00  0.00    +0.000 C 
ATOM      7  C   UNL     1       1.084   8.994  22.126  0.00  0.00    +0.000 C 
ATOM      8  C   UNL     1       0.569  10.429  22.209  0.00  0.00    +0.000 C 
ENDROOT
BRANCH   6   9
ATOM      9  C   UNL     1       1.738   7.535  20.132  0.00  0.00    +0.000 A 
ATOM     10  C   UNL     1       1.379   6.350  20.778  0.00  0.00    +0.000 A 
ATOM     11  C   UNL     1       1.839   5.111  20.321  0.00  0.00    +0.000 A 
ATOM     12  C   UNL     1       2.684   5.105  19.206  0.00  0.00    +0.000 A 
ATOM     13  N   UNL     1       3.328   4.058  18.591  0.00  0.00    +0.000 N 
ATOM     14  C   UNL     1       4.084   4.507  17.533  0.00  0.00    +0.000 A 
ATOM     15  C   UNL     1       4.896   3.818  16.642  0.00  0.00    +0.000 A 
ATOM     16  N   UNL     1       5.534   4.532  15.696  0.00  0.00    +0.000 N 
ATOM     17  C   UNL     1       6.387   3.839  14.716  0.00  0.00    +0.000 C 
ATOM     18  C   UNL     1       5.424   5.876  15.609  0.00  0.00    +0.000 A 
ATOM     19  C   UNL     1       4.627   6.596  16.489  0.00  0.00    +0.000 A 
ATOM     20  C   UNL     1       3.934   5.888  17.476  0.00  0.00    +0.000 A 
ATOM     21  C   UNL     1       3.053   6.266  18.535  0.00  0.00    +0.000 A 
ATOM     22  C   UNL     1       2.564   7.502  19.000  0.00  0.00    +0.000 A 
ATOM     23  H   UNL     1       3.263   3.103  18.915  0.00  0.00    +0.000 HD
ENDBRANCH   6   9
BRANCH   5  24
ATOM     24  C   UNL     1       1.049  10.119  18.401  0.00  0.00    +0.000 C 
ATOM     25  O   UNL     1       2.101  10.668  17.963  0.00  0.00    +0.000 OA
ATOM     26  O   UNL     1       0.046   9.682  17.763  0.00  0.00    +0.000 OA
ENDBRANCH   5  24
BRANCH   1  28
ATOM     27  C   UNL     1      -2.893  12.132  23.043  0.00  0.00    +0.000 C 
ATOM     28  C   UNL     1      -1.449  11.728  23.305  0.00  0.00    +0.000 C 
BRANCH  28  29
ATOM     29  O   UNL     1      -0.625  12.891  23.361  0.00  0.00    +0.000 OA
ATOM     30  H   UNL     1      -0.002  12.866  22.609  0.00  0.00    +0.000 HD
ENDBRANCH  28  29
ENDBRANCH   1  28
TORSDOF 4
ENDMDL
MODEL 3
REMARK VINA RESULT:      -8.1      2.030      2.918
REMARK  Name = 
REMARK  6 active torsions:
REMARK  status: ('A' for Active; 'I' for Inactive)
REMARK    1  A    between atoms: C_1  and  C_2
REMARK    2  A    between atoms: C_2  and  O_3
REMARK    3  A    between atoms: C_2  and  C_4
REMARK    4  A    between atoms: C_8  and  C_9
REMARK    5  A    between atoms: C_12  and  C_13
REMARK    6  A    between atoms: N_20  and  C_21
REMARK                            x       y       z     vdW  Elec       q    Type
REMARK                         _______ _______ _______ _____ _____    ______ ____
ROOT
ATOM      1  C   UNL     1       4.534   3.477  19.538  0.00  0.00    +0.000 C 
ATOM      2  C   UNL     1       5.488   4.193  18.580  0.00  0.00    +0.000 C 
ATOM      3  O   UNL     1       6.671   4.446  18.631  0.00  0.00    +0.000 OA
ATOM      4  N   UNL     1       4.466   4.556  17.742  0.00  0.00    +0.000 N 
ATOM      5  C   UNL     1       4.145   5.904  17.605  0.00  0.00    +0.000 C 
ATOM      6  C   UNL     1       3.002   6.193  18.257  0.00  0.00    +0.000 C 
ATOM      7  C   UNL     1       2.412   4.997  18.924  0.00  0.00    +0.000 C 
ATOM      8  C   UNL     1       3.407   3.899  18.558  0.00  0.00    +0.000 C 
ENDROOT
BRANCH   6   9
ATOM      9  C   UNL     1       2.394   7.506  18.436  0.00  0.00    +0.000 A 
ATOM     10  C   UNL     1       2.592   8.515  17.492  0.00  0.00    +0.000 A 
ATOM     11  C   UNL     1       2.076   9.800  17.689  0.00  0.00    +0.000 A 
ATOM     12  C   UNL     1       1.371  10.040  18.873  0.00  0.00    +0.000 A 
ATOM     13  N   UNL     1       0.821  11.204  19.354  0.00  0.00    +0.000 N 
ATOM     14  C   UNL     1       0.234  10.993  20.580  0.00  0.00    +0.000 A 
ATOM     15  C   UNL     1      -0.429  11.869  21.430  0.00  0.00    +0.000 A 
ATOM     16  N   UNL     1      -0.900  11.378  22.591  0.00  0.00    +0.000 N 
ATOM     17  C   UNL     1      -1.629  12.266  23.513  0.00  0.00    +0.000 C 
ATOM     18  C   UNL     1      -0.727  10.087  22.952  0.00  0.00    +0.000 A 
ATOM     19  C   UNL     1      -0.063   9.188  22.129  0.00  0.00    +0.000 A 
ATOM     20  C   UNL     1       0.426   9.656  20.905  0.00  0.00    +0.000 A 
ATOM     21  C   UNL     1       1.148   9.054  19.830  0.00  0.00    +0.000 A 
ATOM     22  C   UNL     1       1.660   7.763  19.603  0.00  0.00    +0.000 A 
ATOM     23  H   UNL     1       0.883  12.087  18.866  0.00  0.00    +0.000 HD
ENDBRANCH   6   9
BRANCH   5  24
ATOM     24  C   UNL     1       5.090   6.910  16.847  0.00  0.00    +0.000 C 
ATOM     25  O   UNL     1       5.886   7.550  17.590  0.00  0.00    +0.000 OA
ATOM     26  O   UNL     1       4.962   6.948  15.586  0.00  0.00    +0.000 OA
ENDBRANCH   5  24
BRANCH   1  28
ATOM     27  C   UNL     1       3.695   1.148  19.100  0.00  0.00    +0.000 C 
ATOM     28  C   UNL     1       4.763   1.994  19.779  0.00  0.00    +0.000 C 
BRANCH  28  29
ATOM     29  O   UNL     1       4.812   1.684  21.170  0.00  0.00    +0.000 OA
ATOM     30  H   UNL     1       4.321   0.853  21.320  0.00  0.00    +0.000 HD
ENDBRANCH  28  29
ENDBRANCH   1  28
TORSDOF 4
ENDMDL
MODEL 4
REMARK VINA RESULT:      -8.0      1.082      1.307
REMARK  Name = 
REMARK  6 active torsions:
REMARK  status: ('A' for Active; 'I' for Inactive)
REMARK    1  A    between atoms: C_1  and  C_2
REMARK    2  A    between atoms: C_2  and  O_3
REMARK    3  A    between atoms: C_2  and  C_4
REMARK    4  A    between atoms: C_8  and  C_9
REMARK    5  A    between atoms: C_12  and  C_13
REMARK    6  A    between atoms: N_20  and  C_21
REMARK                            x       y       z     vdW  Elec       q    Type
REMARK                         _______ _______ _______ _____ _____    ______ ____
ROOT
ATOM      1  C   UNL     1       5.917   4.926  17.462  0.00  0.00    +0.000 C 
ATOM      2  C   UNL     1       4.701   3.996  17.485  0.00  0.00    +0.000 C 
ATOM      3  O   UNL     1       4.239   3.223  16.676  0.00  0.00    +0.000 OA
ATOM      4  N   UNL     1       4.275   4.491  18.691  0.00  0.00    +0.000 N 
ATOM      5  C   UNL     1       3.081   5.204  18.749  0.00  0.00    +0.000 C 
ATOM      6  C   UNL     1       3.317   6.522  18.894  0.00  0.00    +0.000 C 
ATOM      7  C   UNL     1       4.774   6.834  18.959  0.00  0.00    +0.000 C 
ATOM      8  C   UNL     1       5.406   5.450  18.831  0.00  0.00    +0.000 C 
ENDROOT
BRANCH   6   9
ATOM      9  C   UNL     1       2.337   7.602  18.892  0.00  0.00    +0.000 A 
ATOM     10  C   UNL     1       2.079   8.324  17.726  0.00  0.00    +0.000 A 
ATOM     11  C   UNL     1       1.197   9.410  17.729  0.00  0.00    +0.000 A 
ATOM     12  C   UNL     1       0.598   9.754  18.946  0.00  0.00    +0.000 A 
ATOM     13  N   UNL     1      -0.243  10.797  19.253  0.00  0.00    +0.000 N 
ATOM     14  C   UNL     1      -0.578  10.773  20.587  0.00  0.00    +0.000 A 
ATOM     15  C   UNL     1      -1.386  11.621  21.334  0.00  0.00    +0.000 A 
ATOM     16  N   UNL     1      -1.527  11.355  22.646  0.00  0.00    +0.000 N 
ATOM     17  C   UNL     1      -2.393  12.214  23.471  0.00  0.00    +0.000 C 
ATOM     18  C   UNL     1      -0.899  10.319  23.244  0.00  0.00    +0.000 A 
ATOM     19  C   UNL     1      -0.078   9.458  22.529  0.00  0.00    +0.000 A 
ATOM     20  C   UNL     1       0.080   9.691  21.159  0.00  0.00    +0.000 A 
ATOM     21  C   UNL     1       0.827   9.049  20.123  0.00  0.00    +0.000 A 
ATOM     22  C   UNL     1       1.704   7.949  20.094  0.00  0.00    +0.000 A 
ATOM     23  H   UNL     1      -0.532  11.490  18.578  0.00  0.00    +0.000 HD
ENDBRANCH   6   9
BRANCH   5  24
ATOM     24  C   UNL     1       1.683   4.500  18.573  0.00  0.00    +0.000 C 
ATOM     25  O   UNL     1       1.303   4.373  17.374  0.00  0.00    +0.000 OA
ATOM     26  O   UNL     1       1.114   4.124  19.640  0.00  0.00    +0.000 OA
ENDBRANCH   5  24
BRANCH   1  28
ATOM     27  C   UNL     1       8.219   4.850  18.470  0.00  0.00    +0.000 C 
ATOM     28  C   UNL     1       7.292   4.281  17.405  0.00  0.00    +0.000 C 
BRANCH  28  29
ATOM     29  O   UNL     1       7.891   4.423  16.119  0.00  0.00    +0.000 OA
ATOM     30  H   UNL     1       7.182   4.456  15.448  0.00  0.00    +0.000 HD
ENDBRANCH  28  29
ENDBRANCH   1  28
TORSDOF 4
ENDMDL
MODEL 5
REMARK VINA RESULT:      -7.8      3.216      4.345
REMARK  Name = 
REMARK  6 active torsions:
REMARK  status: ('A' for Active; 'I' for Inactive)
REMARK    1  A    between atoms: C_1  and  C_2
REMARK    2  A    between atoms: C_2  and  O_3
REMARK    3  A    between atoms: C_2  and  C_4
REMARK    4  A    between atoms: C_8  and  C_9
REMARK    5  A    between atoms: C_12  and  C_13
REMARK    6  A    between atoms: N_20  and  C_21
REMARK                            x       y       z     vdW  Elec       q    Type
REMARK                         _______ _______ _______ _____ _____    ______ ____
ROOT
ATOM      1  C   UNL     1       2.172   5.614  18.274  0.00  0.00    +0.000 C 
ATOM      2  C   UNL     1       1.831   5.744  19.760  0.00  0.00    +0.000 C 
ATOM      3  O   UNL     1       1.140   5.089  20.508  0.00  0.00    +0.000 OA
ATOM      4  N   UNL     1       2.479   6.948  19.862  0.00  0.00    +0.000 N 
ATOM      5  C   UNL     1       1.738   8.098  20.123  0.00  0.00    +0.000 C 
ATOM      6  C   UNL     1       1.624   8.856  19.015  0.00  0.00    +0.000 C 
ATOM      7  C   UNL     1       2.323   8.256  17.843  0.00  0.00    +0.000 C 
ATOM      8  C   UNL     1       2.903   6.974  18.434  0.00  0.00    +0.000 C 
ENDROOT
BRANCH   6   9
ATOM      9  C   UNL     1       0.843  10.077  18.856  0.00  0.00    +0.000 A 
ATOM     10  C   UNL     1      -0.457  10.027  18.350  0.00  0.00    +0.000 A 
ATOM     11  C   UNL     1      -1.189  11.198  18.122  0.00  0.00    +0.000 A 
ATOM     12  C   UNL     1      -0.563  12.418  18.404  0.00  0.00    +0.000 A 
ATOM     13  N   UNL     1      -1.010  13.704  18.217  0.00  0.00    +0.000 N 
ATOM     14  C   UNL     1      -0.055  14.611  18.613  0.00  0.00    +0.000 A 
ATOM     15  C   UNL     1      -0.064  16.000  18.601  0.00  0.00    +0.000 A 
ATOM     16  N   UNL     1       1.034  16.637  19.047  0.00  0.00    +0.000 N 
ATOM     17  C   UNL     1       1.059  18.109  19.074  0.00  0.00    +0.000 C 
ATOM     18  C   UNL     1       2.130  15.972  19.475  0.00  0.00    +0.000 A 
ATOM     19  C   UNL     1       2.175  14.585  19.492  0.00  0.00    +0.000 A 
ATOM     20  C   UNL     1       1.046  13.887  19.052  0.00  0.00    +0.000 A 
ATOM     21  C   UNL     1       0.728  12.501  18.917  0.00  0.00    +0.000 A 
ATOM     22  C   UNL     1       1.439  11.310  19.156  0.00  0.00    +0.000 A 
ATOM     23  H   UNL     1      -1.909  13.922  17.812  0.00  0.00    +0.000 HD
ENDBRANCH   6   9
BRANCH   5  24
ATOM     24  C   UNL     1       1.082   8.362  21.530  0.00  0.00    +0.000 C 
ATOM     25  O   UNL     1      -0.116   7.973  21.636  0.00  0.00    +0.000 OA
ATOM     26  O   UNL     1       1.828   8.908  22.396  0.00  0.00    +0.000 OA
ENDBRANCH   5  24
BRANCH   1  28
ATOM     27  C   UNL     1       4.226   4.815  17.064  0.00  0.00    +0.000 C 
ATOM     28  C   UNL     1       2.985   4.404  17.844  0.00  0.00    +0.000 C 
BRANCH  28  29
ATOM     29  O   UNL     1       2.210   3.492  17.070  0.00  0.00    +0.000 OA
ATOM     30  H   UNL     1       2.800   2.792  16.731  0.00  0.00    +0.000 HD
ENDBRANCH  28  29
ENDBRANCH   1  28
TORSDOF 4
ENDMDL
MODEL 6
REMARK VINA RESULT:      -7.7      3.269      8.498
REMARK  Name = 
REMARK  6 active torsions:
REMARK  status: ('A' for Active; 'I' for Inactive)
REMARK    1  A    between atoms: C_1  and  C_2
REMARK    2  A    between atoms: C_2  and  O_3
REMARK    3  A    between atoms: C_2  and  C_4
REMARK    4  A    between atoms: C_8  and  C_9
REMARK    5  A    between atoms: C_12  and  C_13
REMARK    6  A    between atoms: N_20  and  C_21
REMARK                            x       y       z     vdW  Elec       q    Type
REMARK                         _______ _______ _______ _____ _____    ______ ____
ROOT
ATOM      1  C   UNL     1       0.277  12.654  19.367  0.00  0.00    +0.000 C 
ATOM      2  C   UNL     1       0.440  12.442  20.873  0.00  0.00    +0.000 C 
ATOM      3  O   UNL     1       1.078  13.023  21.723  0.00  0.00    +0.000 OA
ATOM      4  N   UNL     1      -0.280  11.275  20.844  0.00  0.00    +0.000 N 
ATOM      5  C   UNL     1       0.363  10.073  21.129  0.00  0.00    +0.000 C 
ATOM      6  C   UNL     1       0.560   9.357  20.006  0.00  0.00    +0.000 C 
ATOM      7  C   UNL     1       0.031  10.046  18.794  0.00  0.00    +0.000 C 
ATOM      8  C   UNL     1      -0.541  11.335  19.379  0.00  0.00    +0.000 C 
ENDROOT
BRANCH   6   9
ATOM      9  C   UNL     1       1.286   8.099  19.875  0.00  0.00    +0.000 A 
ATOM     10  C   UNL     1       1.131   7.088  20.824  0.00  0.00    +0.000 A 
ATOM     11  C   UNL     1       1.878   5.907  20.750  0.00  0.00    +0.000 A 
ATOM     12  C   UNL     1       2.797   5.787  19.702  0.00  0.00    +0.000 A 
ATOM     13  N   UNL     1       3.696   4.785  19.425  0.00  0.00    +0.000 N 
ATOM     14  C   UNL     1       4.427   5.086  18.299  0.00  0.00    +0.000 A 
ATOM     15  C   UNL     1       5.438   4.381  17.660  0.00  0.00    +0.000 A 
ATOM     16  N   UNL     1       5.989   4.933  16.563  0.00  0.00    +0.000 N 
ATOM     17  C   UNL     1       7.048   4.210  15.840  0.00  0.00    +0.000 C 
ATOM     18  C   UNL     1       5.606   6.142  16.094  0.00  0.00    +0.000 A 
ATOM     19  C   UNL     1       4.605   6.876  16.714  0.00  0.00    +0.000 A 
ATOM     20  C   UNL     1       3.996   6.327  17.847  0.00  0.00    +0.000 A 
ATOM     21  C   UNL     1       2.968   6.772  18.734  0.00  0.00    +0.000 A 
ATOM     22  C   UNL     1       2.193   7.944  18.817  0.00  0.00    +0.000 A 
ATOM     23  H   UNL     1       3.805   3.966  20.006  0.00  0.00    +0.000 HD
ENDBRANCH   6   9
BRANCH   5  24
ATOM     24  C   UNL     1       0.842   9.712  22.586  0.00  0.00    +0.000 C 
ATOM     25  O   UNL     1       2.093   9.587  22.715  0.00  0.00    +0.000 OA
ATOM     26  O   UNL     1      -0.070   9.610  23.460  0.00  0.00    +0.000 OA
ENDBRANCH   5  24
BRANCH   1  28
ATOM     27  C   UNL     1       0.524  15.124  18.961  0.00  0.00    +0.000 C 
ATOM     28  C   UNL     1      -0.416  13.927  18.908  0.00  0.00    +0.000 C 
BRANCH  28  29
ATOM     29  O   UNL     1      -1.587  14.200  19.675  0.00  0.00    +0.000 OA
ATOM     30  H   UNL     1      -2.336  14.329  19.062  0.00  0.00    +0.000 HD
ENDBRANCH  28  29
ENDBRANCH   1  28
TORSDOF 4
ENDMDL
MODEL 7
REMARK VINA RESULT:      -7.5      4.562      8.634
REMARK  Name = 
REMARK  6 active torsions:
REMARK  status: ('A' for Active; 'I' for Inactive)
REMARK    1  A    between atoms: C_1  and  C_2
REMARK    2  A    between atoms: C_2  and  O_3
REMARK    3  A    between atoms: C_2  and  C_4
REMARK    4  A    between atoms: C_8  and  C_9
REMARK    5  A    between atoms: C_12  and  C_13
REMARK    6  A    between atoms: N_20  and  C_21
REMARK                            x       y       z     vdW  Elec       q    Type
REMARK                         _______ _______ _______ _____ _____    ______ ____
ROOT
ATOM      1  C   UNL     1       1.451  14.852  19.105  0.00  0.00    +0.000 C 
ATOM      2  C   UNL     1      -0.052  14.570  19.148  0.00  0.00    +0.000 C 
ATOM      3  O   UNL     1      -0.961  15.042  19.794  0.00  0.00    +0.000 OA
ATOM      4  N   UNL     1       0.067  13.499  18.301  0.00  0.00    +0.000 N 
ATOM      5  C   UNL     1      -0.204  12.220  18.781  0.00  0.00    +0.000 C 
ATOM      6  C   UNL     1       0.935  11.524  18.963  0.00  0.00    +0.000 C 
ATOM      7  C   UNL     1       2.146  12.313  18.595  0.00  0.00    +0.000 C 
ATOM      8  C   UNL     1       1.542  13.640  18.140  0.00  0.00    +0.000 C 
ENDROOT
BRANCH   6   9
ATOM      9  C   UNL     1       1.076  10.195  19.545  0.00  0.00    +0.000 A 
ATOM     10  C   UNL     1       0.679   9.950  20.861  0.00  0.00    +0.000 A 
ATOM     11  C   UNL     1       0.878   8.699  21.454  0.00  0.00    +0.000 A 
ATOM     12  C   UNL     1       1.505   7.711  20.687  0.00  0.00    +0.000 A 
ATOM     13  N   UNL     1       1.883   6.434  21.028  0.00  0.00    +0.000 N 
ATOM     14  C   UNL     1       2.494   5.809  19.966  0.00  0.00    +0.000 A 
ATOM     15  C   UNL     1       3.036   4.535  19.854  0.00  0.00    +0.000 A 
ATOM     16  N   UNL     1       3.589   4.192  18.675  0.00  0.00    +0.000 N 
ATOM     17  C   UNL     1       4.154   2.843  18.505  0.00  0.00    +0.000 C 
ATOM     18  C   UNL     1       3.648   5.046  17.630  0.00  0.00    +0.000 A 
ATOM     19  C   UNL     1       3.125   6.329  17.712  0.00  0.00    +0.000 A 
ATOM     20  C   UNL     1       2.526   6.717  18.915  0.00  0.00    +0.000 A 
ATOM     21  C   UNL     1       1.905   7.921  19.371  0.00  0.00    +0.000 A 
ATOM     22  C   UNL     1       1.678   9.181  18.787  0.00  0.00    +0.000 A 
ATOM     23  H   UNL     1       1.746   6.046  21.951  0.00  0.00    +0.000 HD
ENDBRANCH   6   9
BRANCH   5  24
ATOM     24  C   UNL     1      -1.669  11.755  19.122  0.00  0.00    +0.000 C 
ATOM     25  O   UNL     1      -2.265  11.152  18.184  0.00  0.00    +0.000 OA
ATOM     26  O   UNL     1      -2.075  12.014  20.294  0.00  0.00    +0.000 OA
ENDBRANCH   5  24
BRANCH   1  28
ATOM     27  C   UNL     1       2.753  16.941  19.621  0.00  0.00    +0.000 C 
ATOM     28  C   UNL     1       1.896  16.214  18.595  0.00  0.00    +0.000 C 
BRANCH  28  29
ATOM     29  O   UNL     1       0.786  17.031  18.228  0.00  0.00    +0.000 OA
ATOM     30  H   UNL     1       1.122  17.814  17.751  0.00  0.00    +0.000 HD
ENDBRANCH  28  29
ENDBRANCH   1  28
TORSDOF 4
ENDMDL
MODEL 8
REMARK VINA RESULT:      -7.4      3.458      8.489
REMARK  Name = 
REMARK  6 active torsions:
REMARK  status: ('A' for Active; 'I' for Inactive)
REMARK    1  A    between atoms: C_1  and  C_2
REMARK    2  A    between atoms: C_2  and  O_3
REMARK    3  A    between atoms: C_2  and  C_4
REMARK    4  A    between atoms: C_8  and  C_9
REMARK    5  A    between atoms: C_12  and  C_13
REMARK    6  A    between atoms: N_20  and  C_21
REMARK                            x       y       z     vdW  Elec       q    Type
REMARK                         _______ _______ _______ _____ _____    ______ ____
ROOT
ATOM      1  C   UNL     1      -0.922  13.452  20.786  0.00  0.00    +0.000 C 
ATOM      2  C   UNL     1      -0.818  12.585  22.043  0.00  0.00    +0.000 C 
ATOM      3  O   UNL     1      -0.383  12.794  23.154  0.00  0.00    +0.000 OA
ATOM      4  N   UNL     1      -1.260  11.470  21.380  0.00  0.00    +0.000 N 
ATOM      5  C   UNL     1      -0.389  10.398  21.198  0.00  0.00    +0.000 C 
ATOM      6  C   UNL     1       0.036  10.338  19.922  0.00  0.00    +0.000 C 
ATOM      7  C   UNL     1      -0.548  11.419  19.078  0.00  0.00    +0.000 C 
ATOM      8  C   UNL     1      -1.428  12.168  20.075  0.00  0.00    +0.000 C 
ENDROOT
BRANCH   6   9
ATOM      9  C   UNL     1       1.029   9.428  19.362  0.00  0.00    +0.000 A 
ATOM     10  C   UNL     1       1.708   9.753  18.187  0.00  0.00    +0.000 A 
ATOM     11  C   UNL     1       2.607   8.856  17.600  0.00  0.00    +0.000 A 
ATOM     12  C   UNL     1       2.785   7.616  18.224  0.00  0.00    +0.000 A 
ATOM     13  N   UNL     1       3.540   6.534  17.841  0.00  0.00    +0.000 N 
ATOM     14  C   UNL     1       3.407   5.505  18.744  0.00  0.00    +0.000 A 
ATOM     15  C   UNL     1       3.971   4.236  18.761  0.00  0.00    +0.000 A 
ATOM     16  N   UNL     1       3.647   3.421  19.783  0.00  0.00    +0.000 N 
ATOM     17  C   UNL     1       4.240   2.075  19.854  0.00  0.00    +0.000 C 
ATOM     18  C   UNL     1       2.789   3.793  20.758  0.00  0.00    +0.000 A 
ATOM     19  C   UNL     1       2.202   5.051  20.766  0.00  0.00    +0.000 A 
ATOM     20  C   UNL     1       2.526   5.932  19.730  0.00  0.00    +0.000 A 
ATOM     21  C   UNL     1       2.130   7.265  19.401  0.00  0.00    +0.000 A 
ATOM     22  C   UNL     1       1.243   8.190  19.984  0.00  0.00    +0.000 A 
ATOM     23  H   UNL     1       4.083   6.514  16.989  0.00  0.00    +0.000 HD
ENDBRANCH   6   9
BRANCH   5  24
ATOM     24  C   UNL     1       0.058   9.479  22.396  0.00  0.00    +0.000 C 
ATOM     25  O   UNL     1      -0.742   8.538  22.668  0.00  0.00    +0.000 OA
ATOM     26  O   UNL     1       1.168   9.768  22.933  0.00  0.00    +0.000 OA
ENDBRANCH   5  24
BRANCH   1  28
ATOM     27  C   UNL     1      -3.304  14.239  20.962  0.00  0.00    +0.000 C 
ATOM     28  C   UNL     1      -1.846  14.658  20.839  0.00  0.00    +0.000 C 
BRANCH  28  29
ATOM     29  O   UNL     1      -1.681  15.502  19.702  0.00  0.00    +0.000 OA
ATOM     30  H   UNL     1      -2.459  16.088  19.635  0.00  0.00    +0.000 HD
ENDBRANCH  28  29
ENDBRANCH   1  28
TORSDOF 4
ENDMDL
MODEL 9
REMARK VINA RESULT:      -7.4      1.987      3.015
REMARK  Name = 
REMARK  6 active torsions:
REMARK  status: ('A' for Active; 'I' for Inactive)
REMARK    1  A    between atoms: C_1  and  C_2
REMARK    2  A    between atoms: C_2  and  O_3
REMARK    3  A    between atoms: C_2  and  C_4
REMARK    4  A    between atoms: C_8  and  C_9
REMARK    5  A    between atoms: C_12  and  C_13
REMARK    6  A    between atoms: N_20  and  C_21
REMARK                            x       y       z     vdW  Elec       q    Type
REMARK                         _______ _______ _______ _____ _____    ______ ____
ROOT
ATOM      1  C   UNL     1       4.464   5.108  16.386  0.00  0.00    +0.000 C 
ATOM      2  C   UNL     1       3.760   4.234  17.426  0.00  0.00    +0.000 C 
ATOM      3  O   UNL     1       3.096   3.225  17.341  0.00  0.00    +0.000 OA
ATOM      4  N   UNL     1       4.045   5.112  18.440  0.00  0.00    +0.000 N 
ATOM      5  C   UNL     1       3.001   5.791  19.063  0.00  0.00    +0.000 C 
ATOM      6  C   UNL     1       2.968   7.080  18.674  0.00  0.00    +0.000 C 
ATOM      7  C   UNL     1       4.051   7.407  17.703  0.00  0.00    +0.000 C 
ATOM      8  C   UNL     1       4.775   6.070  17.564  0.00  0.00    +0.000 C 
ENDROOT
BRANCH   6   9
ATOM      9  C   UNL     1       1.969   8.083  19.021  0.00  0.00    +0.000 A 
ATOM     10  C   UNL     1       1.936   8.638  20.302  0.00  0.00    +0.000 A 
ATOM     11  C   UNL     1       0.936   9.545  20.670  0.00  0.00    +0.000 A 
ATOM     12  C   UNL     1      -0.036   9.861  19.715  0.00  0.00    +0.000 A 
ATOM     13  N   UNL     1      -1.153  10.655  19.819  0.00  0.00    +0.000 N 
ATOM     14  C   UNL     1      -1.850  10.670  18.633  0.00  0.00    +0.000 A 
ATOM     15  C   UNL     1      -3.026  11.320  18.281  0.00  0.00    +0.000 A 
ATOM     16  N   UNL     1      -3.489  11.141  17.030  0.00  0.00    +0.000 N 
ATOM     17  C   UNL     1      -4.720  11.831  16.607  0.00  0.00    +0.000 C 
ATOM     18  C   UNL     1      -2.865  10.343  16.137  0.00  0.00    +0.000 A 
ATOM     19  C   UNL     1      -1.693   9.672  16.459  0.00  0.00    +0.000 A 
ATOM     20  C   UNL     1      -1.170   9.847  17.744  0.00  0.00    +0.000 A 
ATOM     21  C   UNL     1      -0.026   9.332  18.427  0.00  0.00    +0.000 A 
ATOM     22  C   UNL     1       0.999   8.435  18.072  0.00  0.00    +0.000 A 
ATOM     23  H   UNL     1      -1.417  11.125  20.673  0.00  0.00    +0.000 HD
ENDBRANCH   6   9
BRANCH   5  24
ATOM     24  C   UNL     1       1.986   5.057  20.018  0.00  0.00    +0.000 C 
ATOM     25  O   UNL     1       2.237   5.178  21.251  0.00  0.00    +0.000 OA
ATOM     26  O   UNL     1       1.028   4.453  19.449  0.00  0.00    +0.000 OA
ENDBRANCH   5  24
BRANCH   1  28
ATOM     27  C   UNL     1       5.333   4.386  14.139  0.00  0.00    +0.000 C 
ATOM     28  C   UNL     1       5.631   4.495  15.628  0.00  0.00    +0.000 C 
BRANCH  28  29
ATOM     29  O   UNL     1       5.984   3.214  16.144  0.00  0.00    +0.000 OA
ATOM     30  H   UNL     1       5.766   3.192  17.096  0.00  0.00    +0.000 HD
ENDBRANCH  28  29
ENDBRANCH   1  28
TORSDOF 4
ENDMDL
