MODEL 1
REMARK VINA RESULT:      -7.1      0.000      0.000
REMARK  Name = 
REMARK  4 active torsions:
REMARK  status: ('A' for Active; 'I' for Inactive)
REMARK    1  A    between atoms: C_2  and  C_3
REMARK    2  A    between atoms: C_7  and  S_8
REMARK    3  A    between atoms: S_8  and  C_11
REMARK    4  A    between atoms: C_19  and  C_20
REMARK                            x       y       z     vdW  Elec       q    Type
REMARK                         _______ _______ _______ _____ _____    ______ ____
ROOT
ATOM      1  C   UNL     1       5.919   5.071  16.910  0.00  0.00    +0.000 A 
ATOM      2  S   UNL     1       7.172   5.663  15.899  0.00  0.00    +0.000 S 
ATOM      3  C   UNL     1       6.645   4.773  14.569  0.00  0.00    +0.000 A 
ATOM      4  N   UNL     1       7.336   4.826  13.411  0.00  0.00    +0.000 NA
ATOM      5  C   UNL     1       6.817   4.079  12.421  0.00  0.00    +0.000 A 
ATOM      6  C   UNL     1       5.669   3.319  12.519  0.00  0.00    +0.000 A 
ATOM      7  C   UNL     1       4.979   3.309  13.731  0.00  0.00    +0.000 A 
ATOM      8  C   UNL     1       5.489   4.049  14.827  0.00  0.00    +0.000 A 
ATOM      9  C   UNL     1       5.054   4.220  16.213  0.00  0.00    +0.000 A 
ENDROOT
BRANCH   9  10
ATOM     10  C   UNL     1       3.893   3.554  16.835  0.00  0.00    +0.000 A 
ATOM     11  C   UNL     1       2.628   4.168  16.815  0.00  0.00    +0.000 A 
ATOM     12  C   UNL     1       1.529   3.587  17.459  0.00  0.00    +0.000 A 
ATOM     13  C   UNL     1       1.669   2.351  18.071  0.00  0.00    +0.000 A 
ATOM     14  F   UNL     1       0.615   1.781  18.667  0.00  0.00    +0.000 F 
ATOM     15  C   UNL     1       2.895   1.707  18.084  0.00  0.00    +0.000 A 
ATOM     16  C   UNL     1       4.006   2.328  17.505  0.00  0.00    +0.000 A 
ENDBRANCH   9  10
BRANCH   1  17
ATOM     17  S   UNL     1       6.017   5.635  18.608  0.00  0.00    +0.000 S 
ATOM     18  O   UNL     1       6.538   6.984  18.526  0.00  0.00    +0.000 OA
ATOM     19  O   UNL     1       6.719   4.587  19.323  0.00  0.00    +0.000 OA
BRANCH  17  24
ATOM     20  C   UNL     1       2.670   4.708  20.689  0.00  0.00    +0.000 A 
ATOM     21  C   UNL     1       1.843   5.805  20.425  0.00  0.00    +0.000 A 
ATOM     22  C   UNL     1       2.302   6.865  19.636  0.00  0.00    +0.000 A 
ATOM     23  C   UNL     1       3.582   6.830  19.089  0.00  0.00    +0.000 A 
ATOM     24  C   UNL     1       4.397   5.719  19.328  0.00  0.00    +0.000 A 
ATOM     25  C   UNL     1       3.957   4.667  20.148  0.00  0.00    +0.000 A 
BRANCH  20  27
ATOM     26  N   UNL     1       1.816   2.738  22.140  0.00  0.00    +0.000 NA
ATOM     27  C   UNL     1       2.194   3.620  21.494  0.00  0.00    +0.000 C 
ENDBRANCH  20  27
ENDBRANCH  17  24
ENDBRANCH   1  17
TORSDOF 4
ENDMDL
MODEL 2
REMARK VINA RESULT:      -7.0      2.511      6.109
REMARK  Name = 
REMARK  4 active torsions:
REMARK  status: ('A' for Active; 'I' for Inactive)
REMARK    1  A    between atoms: C_2  and  C_3
REMARK    2  A    between atoms: C_7  and  S_8
REMARK    3  A    between atoms: S_8  and  C_11
REMARK    4  A    between atoms: C_19  and  C_20
REMARK                            x       y       z     vdW  Elec       q    Type
REMARK                         _______ _______ _______ _____ _____    ______ ____
ROOT
ATOM      1  C   UNL     1       3.933   5.599  18.000  0.00  0.00    +0.000 A 
ATOM      2  S   UNL     1       4.343   6.990  17.083  0.00  0.00    +0.000 S 
ATOM      3  C   UNL     1       3.122   7.921  17.780  0.00  0.00    +0.000 A 
ATOM      4  N   UNL     1       2.936   9.194  17.373  0.00  0.00    +0.000 NA
ATOM      5  C   UNL     1       1.938   9.837  18.004  0.00  0.00    +0.000 A 
ATOM      6  C   UNL     1       1.150   9.296  19.000  0.00  0.00    +0.000 A 
ATOM      7  C   UNL     1       1.391   7.981  19.398  0.00  0.00    +0.000 A 
ATOM      8  C   UNL     1       2.408   7.234  18.753  0.00  0.00    +0.000 A 
ATOM      9  C   UNL     1       2.882   5.858  18.887  0.00  0.00    +0.000 A 
ENDROOT
BRANCH   9  10
ATOM     10  C   UNL     1       2.314   4.839  19.792  0.00  0.00    +0.000 A 
ATOM     11  C   UNL     1       2.865   4.638  21.070  0.00  0.00    +0.000 A 
ATOM     12  C   UNL     1       2.386   3.630  21.916  0.00  0.00    +0.000 A 
ATOM     13  C   UNL     1       1.303   2.860  21.520  0.00  0.00    +0.000 A 
ATOM     14  F   UNL     1       0.826   1.913  22.336  0.00  0.00    +0.000 F 
ATOM     15  C   UNL     1       0.719   3.054  20.278  0.00  0.00    +0.000 A 
ATOM     16  C   UNL     1       1.251   4.009  19.407  0.00  0.00    +0.000 A 
ENDBRANCH   9  10
BRANCH   1  17
ATOM     17  S   UNL     1       4.900   4.145  17.598  0.00  0.00    +0.000 S 
ATOM     18  O   UNL     1       3.933   3.075  17.467  0.00  0.00    +0.000 OA
ATOM     19  O   UNL     1       5.960   4.100  18.587  0.00  0.00    +0.000 OA
BRANCH  17  24
ATOM     20  C   UNL     1       5.709   4.004  13.633  0.00  0.00    +0.000 A 
ATOM     21  C   UNL     1       6.968   4.610  13.565  0.00  0.00    +0.000 A 
ATOM     22  C   UNL     1       7.580   5.104  14.723  0.00  0.00    +0.000 A 
ATOM     23  C   UNL     1       6.949   4.981  15.957  0.00  0.00    +0.000 A 
ATOM     24  C   UNL     1       5.704   4.348  16.028  0.00  0.00    +0.000 A 
ATOM     25  C   UNL     1       5.067   3.880  14.868  0.00  0.00    +0.000 A 
BRANCH  20  27
ATOM     26  N   UNL     1       4.578   3.084  11.490  0.00  0.00    +0.000 NA
ATOM     27  C   UNL     1       5.088   3.493  12.446  0.00  0.00    +0.000 C 
ENDBRANCH  20  27
ENDBRANCH  17  24
ENDBRANCH   1  17
TORSDOF 4
ENDMDL
MODEL 3
REMARK VINA RESULT:      -6.7      3.073      5.301
REMARK  Name = 
REMARK  4 active torsions:
REMARK  status: ('A' for Active; 'I' for Inactive)
REMARK    1  A    between atoms: C_2  and  C_3
REMARK    2  A    between atoms: C_7  and  S_8
REMARK    3  A    between atoms: S_8  and  C_11
REMARK    4  A    between atoms: C_19  and  C_20
REMARK                            x       y       z     vdW  Elec       q    Type
REMARK                         _______ _______ _______ _____ _____    ______ ____
ROOT
ATOM      1  C   UNL     1       3.660   6.678  18.008  0.00  0.00    +0.000 A 
ATOM      2  S   UNL     1       3.842   8.202  17.243  0.00  0.00    +0.000 S 
ATOM      3  C   UNL     1       2.508   8.861  18.035  0.00  0.00    +0.000 A 
ATOM      4  N   UNL     1       2.129  10.128  17.765  0.00  0.00    +0.000 NA
ATOM      5  C   UNL     1       1.056  10.544  18.461  0.00  0.00    +0.000 A 
ATOM      6  C   UNL     1       0.375   9.791  19.395  0.00  0.00    +0.000 A 
ATOM      7  C   UNL     1       0.815   8.493  19.653  0.00  0.00    +0.000 A 
ATOM      8  C   UNL     1       1.921   7.978  18.931  0.00  0.00    +0.000 A 
ATOM      9  C   UNL     1       2.598   6.682  18.919  0.00  0.00    +0.000 A 
ENDROOT
BRANCH   9  10
ATOM     10  C   UNL     1       2.203   5.501  19.712  0.00  0.00    +0.000 A 
ATOM     11  C   UNL     1       1.221   4.618  19.230  0.00  0.00    +0.000 A 
ATOM     12  C   UNL     1       0.781   3.532  19.997  0.00  0.00    +0.000 A 
ATOM     13  C   UNL     1       1.371   3.278  21.225  0.00  0.00    +0.000 A 
ATOM     14  F   UNL     1       0.971   2.227  21.951  0.00  0.00    +0.000 F 
ATOM     15  C   UNL     1       2.362   4.113  21.716  0.00  0.00    +0.000 A 
ATOM     16  C   UNL     1       2.741   5.240  20.980  0.00  0.00    +0.000 A 
ENDBRANCH   9  10
BRANCH   1  17
ATOM     17  S   UNL     1       4.826   5.435  17.454  0.00  0.00    +0.000 S 
ATOM     18  O   UNL     1       6.072   5.766  18.115  0.00  0.00    +0.000 OA
ATOM     19  O   UNL     1       4.711   5.413  16.009  0.00  0.00    +0.000 OA
BRANCH  17  24
ATOM     20  C   UNL     1       4.514   2.028  19.619  0.00  0.00    +0.000 A 
ATOM     21  C   UNL     1       3.597   1.283  18.870  0.00  0.00    +0.000 A 
ATOM     22  C   UNL     1       3.030   1.818  17.708  0.00  0.00    +0.000 A 
ATOM     23  C   UNL     1       3.387   3.093  17.276  0.00  0.00    +0.000 A 
ATOM     24  C   UNL     1       4.327   3.824  18.009  0.00  0.00    +0.000 A 
ATOM     25  C   UNL     1       4.874   3.309  19.195  0.00  0.00    +0.000 A 
BRANCH  20  27
ATOM     26  N   UNL     1       5.574   1.033  21.765  0.00  0.00    +0.000 NA
ATOM     27  C   UNL     1       5.097   1.473  20.807  0.00  0.00    +0.000 C 
ENDBRANCH  20  27
ENDBRANCH  17  24
ENDBRANCH   1  17
TORSDOF 4
ENDMDL
MODEL 4
REMARK VINA RESULT:      -6.6      3.539      6.313
REMARK  Name = 
REMARK  4 active torsions:
REMARK  status: ('A' for Active; 'I' for Inactive)
REMARK    1  A    between atoms: C_2  and  C_3
REMARK    2  A    between atoms: C_7  and  S_8
REMARK    3  A    between atoms: S_8  and  C_11
REMARK    4  A    between atoms: C_19  and  C_20
REMARK                            x       y       z     vdW  Elec       q    Type
REMARK                         _______ _______ _______ _____ _____    ______ ____
ROOT
ATOM      1  C   UNL     1       3.867   5.270  17.259  0.00  0.00    +0.000 A 
ATOM      2  S   UNL     1       4.113   3.585  17.054  0.00  0.00    +0.000 S 
ATOM      3  C   UNL     1       2.880   3.181  18.130  0.00  0.00    +0.000 A 
ATOM      4  N   UNL     1       2.632   1.884  18.408  0.00  0.00    +0.000 NA
ATOM      5  C   UNL     1       1.623   1.686  19.274  0.00  0.00    +0.000 A 
ATOM      6  C   UNL     1       0.862   2.685  19.847  0.00  0.00    +0.000 A 
ATOM      7  C   UNL     1       1.145   4.010  19.516  0.00  0.00    +0.000 A 
ATOM      8  C   UNL     1       2.217   4.292  18.633  0.00  0.00    +0.000 A 
ATOM      9  C   UNL     1       2.798   5.533  18.123  0.00  0.00    +0.000 A 
ENDROOT
BRANCH   9  10
ATOM     10  C   UNL     1       2.368   6.896  18.492  0.00  0.00    +0.000 A 
ATOM     11  C   UNL     1       2.226   7.254  19.844  0.00  0.00    +0.000 A 
ATOM     12  C   UNL     1       1.753   8.519  20.214  0.00  0.00    +0.000 A 
ATOM     13  C   UNL     1       1.483   9.463  19.235  0.00  0.00    +0.000 A 
ATOM     14  F   UNL     1       1.054  10.681  19.586  0.00  0.00    +0.000 F 
ATOM     15  C   UNL     1       1.640   9.150  17.895  0.00  0.00    +0.000 A 
ATOM     16  C   UNL     1       2.039   7.861  17.529  0.00  0.00    +0.000 A 
ENDBRANCH   9  10
BRANCH   1  17
ATOM     17  S   UNL     1       5.036   6.296  16.369  0.00  0.00    +0.000 S 
ATOM     18  O   UNL     1       4.309   7.510  16.059  0.00  0.00    +0.000 OA
ATOM     19  O   UNL     1       5.582   5.446  15.328  0.00  0.00    +0.000 OA
BRANCH  17  24
ATOM     20  C   UNL     1       8.008   8.379  18.163  0.00  0.00    +0.000 A 
ATOM     21  C   UNL     1       8.577   7.418  19.006  0.00  0.00    +0.000 A 
ATOM     22  C   UNL     1       8.045   6.126  19.068  0.00  0.00    +0.000 A 
ATOM     23  C   UNL     1       6.952   5.778  18.278  0.00  0.00    +0.000 A 
ATOM     24  C   UNL     1       6.403   6.731  17.414  0.00  0.00    +0.000 A 
ATOM     25  C   UNL     1       6.909   8.040  17.370  0.00  0.00    +0.000 A 
BRANCH  20  27
ATOM     26  N   UNL     1       9.009  10.767  18.052  0.00  0.00    +0.000 NA
ATOM     27  C   UNL     1       8.560   9.702  18.097  0.00  0.00    +0.000 C 
ENDBRANCH  20  27
ENDBRANCH  17  24
ENDBRANCH   1  17
TORSDOF 4
ENDMDL
MODEL 5
REMARK VINA RESULT:      -6.6      8.347     11.403
REMARK  Name = 
REMARK  4 active torsions:
REMARK  status: ('A' for Active; 'I' for Inactive)
REMARK    1  A    between atoms: C_2  and  C_3
REMARK    2  A    between atoms: C_7  and  S_8
REMARK    3  A    between atoms: S_8  and  C_11
REMARK    4  A    between atoms: C_19  and  C_20
REMARK                            x       y       z     vdW  Elec       q    Type
REMARK                         _______ _______ _______ _____ _____    ______ ____
ROOT
ATOM      1  C   UNL     1      -3.019  12.473  20.037  0.00  0.00    +0.000 A 
ATOM      2  S   UNL     1      -3.736  13.110  21.459  0.00  0.00    +0.000 S 
ATOM      3  C   UNL     1      -5.290  12.655  20.989  0.00  0.00    +0.000 A 
ATOM      4  N   UNL     1      -6.343  12.964  21.774  0.00  0.00    +0.000 NA
ATOM      5  C   UNL     1      -7.530  12.545  21.298  0.00  0.00    +0.000 A 
ATOM      6  C   UNL     1      -7.710  11.841  20.125  0.00  0.00    +0.000 A 
ATOM      7  C   UNL     1      -6.589  11.530  19.356  0.00  0.00    +0.000 A 
ATOM      8  C   UNL     1      -5.310  11.969  19.782  0.00  0.00    +0.000 A 
ATOM      9  C   UNL     1      -3.969  11.859  19.212  0.00  0.00    +0.000 A 
ENDROOT
BRANCH   9  10
ATOM     10  C   UNL     1      -3.637  11.236  17.915  0.00  0.00    +0.000 A 
ATOM     11  C   UNL     1      -2.716  10.175  17.852  0.00  0.00    +0.000 A 
ATOM     12  C   UNL     1      -2.335   9.617  16.626  0.00  0.00    +0.000 A 
ATOM     13  C   UNL     1      -2.925  10.067  15.455  0.00  0.00    +0.000 A 
ATOM     14  F   UNL     1      -2.582   9.519  14.284  0.00  0.00    +0.000 F 
ATOM     15  C   UNL     1      -3.857  11.092  15.487  0.00  0.00    +0.000 A 
ATOM     16  C   UNL     1      -4.176  11.697  16.706  0.00  0.00    +0.000 A 
ENDBRANCH   9  10
BRANCH   1  17
ATOM     17  S   UNL     1      -1.255  12.761  19.912  0.00  0.00    +0.000 S 
ATOM     18  O   UNL     1      -0.942  13.657  21.006  0.00  0.00    +0.000 OA
ATOM     19  O   UNL     1      -1.022  13.134  18.529  0.00  0.00    +0.000 OA
BRANCH  17  24
ATOM     20  C   UNL     1       1.111   9.531  19.312  0.00  0.00    +0.000 A 
ATOM     21  C   UNL     1       1.012   8.860  20.536  0.00  0.00    +0.000 A 
ATOM     22  C   UNL     1       0.250   9.396  21.579  0.00  0.00    +0.000 A 
ATOM     23  C   UNL     1      -0.434  10.596  21.403  0.00  0.00    +0.000 A 
ATOM     24  C   UNL     1      -0.359  11.251  20.170  0.00  0.00    +0.000 A 
ATOM     25  C   UNL     1       0.431  10.738  19.129  0.00  0.00    +0.000 A 
BRANCH  20  27
ATOM     26  N   UNL     1       2.524   8.526  17.386  0.00  0.00    +0.000 NA
ATOM     27  C   UNL     1       1.889   8.975  18.243  0.00  0.00    +0.000 C 
ENDBRANCH  20  27
ENDBRANCH  17  24
ENDBRANCH   1  17
TORSDOF 4
ENDMDL
MODEL 6
REMARK VINA RESULT:      -6.3      3.376      4.695
REMARK  Name = 
REMARK  4 active torsions:
REMARK  status: ('A' for Active; 'I' for Inactive)
REMARK    1  A    between atoms: C_2  and  C_3
REMARK    2  A    between atoms: C_7  and  S_8
REMARK    3  A    between atoms: S_8  and  C_11
REMARK    4  A    between atoms: C_19  and  C_20
REMARK                            x       y       z     vdW  Elec       q    Type
REMARK                         _______ _______ _______ _____ _____    ______ ____
ROOT
ATOM      1  C   UNL     1       5.039   4.855  17.155  0.00  0.00    +0.000 A 
ATOM      2  S   UNL     1       4.364   3.739  16.041  0.00  0.00    +0.000 S 
ATOM      3  C   UNL     1       5.505   4.096  14.852  0.00  0.00    +0.000 A 
ATOM      4  N   UNL     1       5.428   3.491  13.648  0.00  0.00    +0.000 NA
ATOM      5  C   UNL     1       6.395   3.851  12.785  0.00  0.00    +0.000 A 
ATOM      6  C   UNL     1       7.411   4.744  13.059  0.00  0.00    +0.000 A 
ATOM      7  C   UNL     1       7.458   5.331  14.323  0.00  0.00    +0.000 A 
ATOM      8  C   UNL     1       6.451   5.020  15.272  0.00  0.00    +0.000 A 
ATOM      9  C   UNL     1       6.180   5.476  16.635  0.00  0.00    +0.000 A 
ENDROOT
BRANCH   9  10
ATOM     10  C   UNL     1       6.959   6.492  17.370  0.00  0.00    +0.000 A 
ATOM     11  C   UNL     1       6.929   7.839  16.966  0.00  0.00    +0.000 A 
ATOM     12  C   UNL     1       7.714   8.806  17.606  0.00  0.00    +0.000 A 
ATOM     13  C   UNL     1       8.484   8.448  18.702  0.00  0.00    +0.000 A 
ATOM     14  F   UNL     1       9.217   9.374  19.331  0.00  0.00    +0.000 F 
ATOM     15  C   UNL     1       8.513   7.134  19.142  0.00  0.00    +0.000 A 
ATOM     16  C   UNL     1       7.787   6.159  18.451  0.00  0.00    +0.000 A 
ENDBRANCH   9  10
BRANCH   1  17
ATOM     17  S   UNL     1       4.128   5.001  18.691  0.00  0.00    +0.000 S 
ATOM     18  O   UNL     1       5.140   5.063  19.724  0.00  0.00    +0.000 OA
ATOM     19  O   UNL     1       3.137   3.941  18.655  0.00  0.00    +0.000 OA
BRANCH  17  24
ATOM     20  C   UNL     1       1.767   8.051  19.922  0.00  0.00    +0.000 A 
ATOM     21  C   UNL     1       1.737   8.878  18.794  0.00  0.00    +0.000 A 
ATOM     22  C   UNL     1       2.464   8.538  17.647  0.00  0.00    +0.000 A 
ATOM     23  C   UNL     1       3.210   7.363  17.612  0.00  0.00    +0.000 A 
ATOM     24  C   UNL     1       3.215   6.523  18.729  0.00  0.00    +0.000 A 
ATOM     25  C   UNL     1       2.517   6.873  19.896  0.00  0.00    +0.000 A 
BRANCH  20  27
ATOM     26  N   UNL     1       0.413   8.690  22.037  0.00  0.00    +0.000 NA
ATOM     27  C   UNL     1       1.017   8.400  21.094  0.00  0.00    +0.000 C 
ENDBRANCH  20  27
ENDBRANCH  17  24
ENDBRANCH   1  17
TORSDOF 4
ENDMDL
MODEL 7
REMARK VINA RESULT:      -6.3      7.481      9.658
REMARK  Name = 
REMARK  4 active torsions:
REMARK  status: ('A' for Active; 'I' for Inactive)
REMARK    1  A    between atoms: C_2  and  C_3
REMARK    2  A    between atoms: C_7  and  S_8
REMARK    3  A    between atoms: S_8  and  C_11
REMARK    4  A    between atoms: C_19  and  C_20
REMARK                            x       y       z     vdW  Elec       q    Type
REMARK                         _______ _______ _______ _____ _____    ______ ____
ROOT
ATOM      1  C   UNL     1      -0.801  11.397  19.929  0.00  0.00    +0.000 A 
ATOM      2  S   UNL     1      -2.221  12.314  19.635  0.00  0.00    +0.000 S 
ATOM      3  C   UNL     1      -2.593  11.458  18.232  0.00  0.00    +0.000 A 
ATOM      4  N   UNL     1      -3.675  11.804  17.504  0.00  0.00    +0.000 NA
ATOM      5  C   UNL     1      -3.873  11.047  16.410  0.00  0.00    +0.000 A 
ATOM      6  C   UNL     1      -3.079   9.984  16.028  0.00  0.00    +0.000 A 
ATOM      7  C   UNL     1      -1.982   9.653  16.822  0.00  0.00    +0.000 A 
ATOM      8  C   UNL     1      -1.696  10.431  17.972  0.00  0.00    +0.000 A 
ATOM      9  C   UNL     1      -0.631  10.390  18.973  0.00  0.00    +0.000 A 
ENDROOT
BRANCH   9  10
ATOM     10  C   UNL     1       0.512   9.456  18.971  0.00  0.00    +0.000 A 
ATOM     11  C   UNL     1       1.363   9.378  17.854  0.00  0.00    +0.000 A 
ATOM     12  C   UNL     1       2.410   8.450  17.804  0.00  0.00    +0.000 A 
ATOM     13  C   UNL     1       2.660   7.638  18.900  0.00  0.00    +0.000 A 
ATOM     14  F   UNL     1       3.676   6.767  18.865  0.00  0.00    +0.000 F 
ATOM     15  C   UNL     1       1.857   7.711  20.026  0.00  0.00    +0.000 A 
ATOM     16  C   UNL     1       0.766   8.586  20.040  0.00  0.00    +0.000 A 
ENDBRANCH   9  10
BRANCH   1  17
ATOM     17  S   UNL     1       0.147  11.947  21.347  0.00  0.00    +0.000 S 
ATOM     18  O   UNL     1       1.170  12.815  20.801  0.00  0.00    +0.000 OA
ATOM     19  O   UNL     1       0.480  10.741  22.081  0.00  0.00    +0.000 OA
BRANCH  17  24
ATOM     20  C   UNL     1      -2.841  13.106  23.821  0.00  0.00    +0.000 A 
ATOM     21  C   UNL     1      -2.498  14.434  24.099  0.00  0.00    +0.000 A 
ATOM     22  C   UNL     1      -1.331  14.991  23.565  0.00  0.00    +0.000 A 
ATOM     23  C   UNL     1      -0.508  14.234  22.736  0.00  0.00    +0.000 A 
ATOM     24  C   UNL     1      -0.867  12.917  22.434  0.00  0.00    +0.000 A 
ATOM     25  C   UNL     1      -2.018  12.338  22.993  0.00  0.00    +0.000 A 
BRANCH  20  27
ATOM     26  N   UNL     1      -5.014  12.092  24.804  0.00  0.00    +0.000 NA
ATOM     27  C   UNL     1      -4.042  12.541  24.365  0.00  0.00    +0.000 C 
ENDBRANCH  20  27
ENDBRANCH  17  24
ENDBRANCH   1  17
TORSDOF 4
ENDMDL
MODEL 8
REMARK VINA RESULT:      -6.2      1.696      2.205
REMARK  Name = 
REMARK  4 active torsions:
REMARK  status: ('A' for Active; 'I' for Inactive)
REMARK    1  A    between atoms: C_2  and  C_3
REMARK    2  A    between atoms: C_7  and  S_8
REMARK    3  A    between atoms: S_8  and  C_11
REMARK    4  A    between atoms: C_19  and  C_20
REMARK                            x       y       z     vdW  Elec       q    Type
REMARK                         _______ _______ _______ _____ _____    ______ ____
ROOT
ATOM      1  C   UNL     1       6.114   5.170  16.453  0.00  0.00    +0.000 A 
ATOM      2  S   UNL     1       7.295   5.747  15.351  0.00  0.00    +0.000 S 
ATOM      3  C   UNL     1       6.773   4.726  14.116  0.00  0.00    +0.000 A 
ATOM      4  N   UNL     1       7.419   4.725  12.931  0.00  0.00    +0.000 NA
ATOM      5  C   UNL     1       6.909   3.874  12.023  0.00  0.00    +0.000 A 
ATOM      6  C   UNL     1       5.811   3.062  12.226  0.00  0.00    +0.000 A 
ATOM      7  C   UNL     1       5.166   3.111  13.461  0.00  0.00    +0.000 A 
ATOM      8  C   UNL     1       5.671   3.963  14.475  0.00  0.00    +0.000 A 
ATOM      9  C   UNL     1       5.276   4.220  15.860  0.00  0.00    +0.000 A 
ENDROOT
BRANCH   9  10
ATOM     10  C   UNL     1       4.177   3.544  16.578  0.00  0.00    +0.000 A 
ATOM     11  C   UNL     1       2.883   4.094  16.576  0.00  0.00    +0.000 A 
ATOM     12  C   UNL     1       1.844   3.507  17.308  0.00  0.00    +0.000 A 
ATOM     13  C   UNL     1       2.072   2.323  17.992  0.00  0.00    +0.000 A 
ATOM     14  F   UNL     1       1.075   1.745  18.672  0.00  0.00    +0.000 F 
ATOM     15  C   UNL     1       3.329   1.740  17.989  0.00  0.00    +0.000 A 
ATOM     16  C   UNL     1       4.381   2.372  17.320  0.00  0.00    +0.000 A 
ENDBRANCH   9  10
BRANCH   1  17
ATOM     17  S   UNL     1       6.239   5.873  18.097  0.00  0.00    +0.000 S 
ATOM     18  O   UNL     1       6.885   7.155  17.910  0.00  0.00    +0.000 OA
ATOM     19  O   UNL     1       6.830   4.833  18.918  0.00  0.00    +0.000 OA
BRANCH  17  24
ATOM     20  C   UNL     1       2.604   7.500  18.823  0.00  0.00    +0.000 A 
ATOM     21  C   UNL     1       2.111   6.682  19.845  0.00  0.00    +0.000 A 
ATOM     22  C   UNL     1       2.864   5.598  20.310  0.00  0.00    +0.000 A 
ATOM     23  C   UNL     1       4.119   5.333  19.771  0.00  0.00    +0.000 A 
ATOM     24  C   UNL     1       4.624   6.169  18.770  0.00  0.00    +0.000 A 
ATOM     25  C   UNL     1       3.861   7.238  18.273  0.00  0.00    +0.000 A 
BRANCH  20  27
ATOM     26  N   UNL     1       1.204   9.512  17.980  0.00  0.00    +0.000 NA
ATOM     27  C   UNL     1       1.832   8.614  18.353  0.00  0.00    +0.000 C 
ENDBRANCH  20  27
ENDBRANCH  17  24
ENDBRANCH   1  17
TORSDOF 4
ENDMDL
MODEL 9
REMARK VINA RESULT:      -6.0      7.107      9.725
REMARK  Name = 
REMARK  4 active torsions:
REMARK  status: ('A' for Active; 'I' for Inactive)
REMARK    1  A    between atoms: C_2  and  C_3
REMARK    2  A    between atoms: C_7  and  S_8
REMARK    3  A    between atoms: S_8  and  C_11
REMARK    4  A    between atoms: C_19  and  C_20
REMARK                            x       y       z     vdW  Elec       q    Type
REMARK                         _______ _______ _______ _____ _____    ______ ____
ROOT
ATOM      1  C   UNL     1       0.479  12.024  20.411  0.00  0.00    +0.000 A 
ATOM      2  S   UNL     1       1.891  12.901  20.833  0.00  0.00    +0.000 S 
ATOM      3  C   UNL     1       1.408  14.270  19.976  0.00  0.00    +0.000 A 
ATOM      4  N   UNL     1       2.220  15.346  19.922  0.00  0.00    +0.000 NA
ATOM      5  C   UNL     1       1.725  16.378  19.215  0.00  0.00    +0.000 A 
ATOM      6  C   UNL     1       0.493  16.395  18.592  0.00  0.00    +0.000 A 
ATOM      7  C   UNL     1      -0.318  15.265  18.691  0.00  0.00    +0.000 A 
ATOM      8  C   UNL     1       0.156  14.129  19.394  0.00  0.00    +0.000 A 
ATOM      9  C   UNL     1      -0.400  12.800  19.647  0.00  0.00    +0.000 A 
ENDROOT
BRANCH   9  10
ATOM     10  C   UNL     1      -1.690  12.298  19.133  0.00  0.00    +0.000 A 
ATOM     11  C   UNL     1      -1.741  11.572  17.931  0.00  0.00    +0.000 A 
ATOM     12  C   UNL     1      -2.962  11.148  17.390  0.00  0.00    +0.000 A 
ATOM     13  C   UNL     1      -4.138  11.385  18.084  0.00  0.00    +0.000 A 
ATOM     14  F   UNL     1      -5.304  10.960  17.583  0.00  0.00    +0.000 F 
ATOM     15  C   UNL     1      -4.118  12.074  19.287  0.00  0.00    +0.000 A 
ATOM     16  C   UNL     1      -2.905  12.562  19.782  0.00  0.00    +0.000 A 
ENDBRANCH   9  10
BRANCH   1  17
ATOM     17  S   UNL     1       0.461  10.333  21.002  0.00  0.00    +0.000 S 
ATOM     18  O   UNL     1      -0.940   9.969  21.060  0.00  0.00    +0.000 OA
ATOM     19  O   UNL     1       1.301  10.328  22.185  0.00  0.00    +0.000 OA
BRANCH  17  24
ATOM     20  C   UNL     1       2.327   7.145  19.344  0.00  0.00    +0.000 A 
ATOM     21  C   UNL     1       2.548   7.580  18.032  0.00  0.00    +0.000 A 
ATOM     22  C   UNL     1       2.102   8.840  17.619  0.00  0.00    +0.000 A 
ATOM     23  C   UNL     1       1.449   9.682  18.515  0.00  0.00    +0.000 A 
ATOM     24  C   UNL     1       1.256   9.259  19.833  0.00  0.00    +0.000 A 
ATOM     25  C   UNL     1       1.669   7.983  20.248  0.00  0.00    +0.000 A 
BRANCH  20  27
ATOM     26  N   UNL     1       3.169   4.818  20.114  0.00  0.00    +0.000 NA
ATOM     27  C   UNL     1       2.792   5.855  19.766  0.00  0.00    +0.000 C 
ENDBRANCH  20  27
ENDBRANCH  17  24
ENDBRANCH   1  17
TORSDOF 4
ENDMDL
