MODEL 1
REMARK VINA RESULT:      -8.1      0.000      0.000
REMARK  Name = 
REMARK  2 active torsions:
REMARK  status: ('A' for Active; 'I' for Inactive)
REMARK    1  A    between atoms: C_2  and  C_4
REMARK    2  A    between atoms: N_10  and  C_11
REMARK                            x       y       z     vdW  Elec       q    Type
REMARK                         _______ _______ _______ _____ _____    ______ ____
ROOT
ATOM      1  C   UNL     1       6.990   5.560  17.585  0.00  0.00    +0.000 A 
ATOM      2  C   UNL     1       7.396   5.547  16.228  0.00  0.00    +0.000 A 
ATOM      3  C   UNL     1       6.677   4.872  15.208  0.00  0.00    +0.000 A 
ATOM      4  C   UNL     1       5.498   4.146  15.455  0.00  0.00    +0.000 A 
ATOM      5  C   UNL     1       5.072   4.152  16.795  0.00  0.00    +0.000 A 
ATOM      6  N   UNL     1       4.006   3.548  17.334  0.00  0.00    +0.000 NA
ATOM      7  N   UNL     1       4.063   3.916  18.633  0.00  0.00    +0.000 N 
ATOM      8  N   UNL     1       5.114   4.688  19.005  0.00  0.00    +0.000 NA
ATOM      9  C   UNL     1       5.795   4.858  17.854  0.00  0.00    +0.000 A 
ENDROOT
BRANCH   7  10
ATOM     10  C   UNL     1       3.062   3.524  19.561  0.00  0.00    +0.000 A 
ATOM     11  C   UNL     1       1.724   3.877  19.337  0.00  0.00    +0.000 A 
ATOM     12  C   UNL     1       0.742   3.508  20.256  0.00  0.00    +0.000 A 
ATOM     13  C   UNL     1       1.091   2.798  21.404  0.00  0.00    +0.000 A 
ATOM     14  C   UNL     1       2.420   2.442  21.631  0.00  0.00    +0.000 A 
ATOM     15  C   UNL     1       3.408   2.796  20.709  0.00  0.00    +0.000 A 
ENDBRANCH   7  10
BRANCH   1  17
ATOM     16  N   UNL     1       8.084   5.554  19.750  0.00  0.00    +0.000 N 
ATOM     17  C   UNL     1       7.798   6.244  18.609  0.00  0.00    +0.000 C 
ATOM     18  O   UNL     1       8.211   7.384  18.434  0.00  0.00    +0.000 OA
ATOM     19  H   UNL     1       8.663   5.989  20.454  0.00  0.00    +0.000 HD
ATOM     20  H   UNL     1       7.748   4.606  19.897  0.00  0.00    +0.000 HD
ENDBRANCH   1  17
TORSDOF 2
ENDMDL
MODEL 2
REMARK VINA RESULT:      -8.0      0.062      1.141
REMARK  Name = 
REMARK  2 active torsions:
REMARK  status: ('A' for Active; 'I' for Inactive)
REMARK    1  A    between atoms: C_2  and  C_4
REMARK    2  A    between atoms: N_10  and  C_11
REMARK                            x       y       z     vdW  Elec       q    Type
REMARK                         _______ _______ _______ _____ _____    ______ ____
ROOT
ATOM      1  C   UNL     1       7.007   5.553  17.568  0.00  0.00    +0.000 A 
ATOM      2  C   UNL     1       7.424   5.508  16.216  0.00  0.00    +0.000 A 
ATOM      3  C   UNL     1       6.714   4.807  15.207  0.00  0.00    +0.000 A 
ATOM      4  C   UNL     1       5.536   4.085  15.461  0.00  0.00    +0.000 A 
ATOM      5  C   UNL     1       5.099   4.121  16.798  0.00  0.00    +0.000 A 
ATOM      6  N   UNL     1       4.030   3.528  17.343  0.00  0.00    +0.000 NA
ATOM      7  N   UNL     1       4.075   3.928  18.633  0.00  0.00    +0.000 N 
ATOM      8  N   UNL     1       5.121   4.711  18.994  0.00  0.00    +0.000 NA
ATOM      9  C   UNL     1       5.811   4.855  17.846  0.00  0.00    +0.000 A 
ENDROOT
BRANCH   7  10
ATOM     10  C   UNL     1       3.068   3.556  19.562  0.00  0.00    +0.000 A 
ATOM     11  C   UNL     1       3.422   2.908  20.754  0.00  0.00    +0.000 A 
ATOM     12  C   UNL     1       2.433   2.525  21.660  0.00  0.00    +0.000 A 
ATOM     13  C   UNL     1       1.091   2.773  21.376  0.00  0.00    +0.000 A 
ATOM     14  C   UNL     1       0.733   3.418  20.192  0.00  0.00    +0.000 A 
ATOM     15  C   UNL     1       1.718   3.818  19.286  0.00  0.00    +0.000 A 
ENDBRANCH   7  10
BRANCH   1  17
ATOM     16  N   UNL     1       8.124   5.585  19.722  0.00  0.00    +0.000 N 
ATOM     17  C   UNL     1       7.805   6.264  18.583  0.00  0.00    +0.000 C 
ATOM     18  O   UNL     1       8.182   7.415  18.401  0.00  0.00    +0.000 OA
ATOM     19  H   UNL     1       8.698   6.039  20.418  0.00  0.00    +0.000 HD
ATOM     20  H   UNL     1       7.819   4.628  19.875  0.00  0.00    +0.000 HD
ENDBRANCH   1  17
TORSDOF 2
ENDMDL
MODEL 3
REMARK VINA RESULT:      -7.6      1.088      1.112
REMARK  Name = 
REMARK  2 active torsions:
REMARK  status: ('A' for Active; 'I' for Inactive)
REMARK    1  A    between atoms: C_2  and  C_4
REMARK    2  A    between atoms: N_10  and  C_11
REMARK                            x       y       z     vdW  Elec       q    Type
REMARK                         _______ _______ _______ _____ _____    ______ ____
ROOT
ATOM      1  C   UNL     1       6.910   5.927  16.764  0.00  0.00    +0.000 A 
ATOM      2  C   UNL     1       7.441   5.643  15.483  0.00  0.00    +0.000 A 
ATOM      3  C   UNL     1       6.885   4.675  14.607  0.00  0.00    +0.000 A 
ATOM      4  C   UNL     1       5.759   3.901  14.938  0.00  0.00    +0.000 A 
ATOM      5  C   UNL     1       5.209   4.172  16.204  0.00  0.00    +0.000 A 
ATOM      6  N   UNL     1       4.155   3.597  16.797  0.00  0.00    +0.000 NA
ATOM      7  N   UNL     1       4.056   4.262  17.969  0.00  0.00    +0.000 N 
ATOM      8  N   UNL     1       4.993   5.209  18.217  0.00  0.00    +0.000 NA
ATOM      9  C   UNL     1       5.762   5.180  17.110  0.00  0.00    +0.000 A 
ENDROOT
BRANCH   7  10
ATOM     10  C   UNL     1       3.011   3.989  18.891  0.00  0.00    +0.000 A 
ATOM     11  C   UNL     1       1.978   3.110  18.536  0.00  0.00    +0.000 A 
ATOM     12  C   UNL     1       0.941   2.853  19.434  0.00  0.00    +0.000 A 
ATOM     13  C   UNL     1       0.924   3.480  20.678  0.00  0.00    +0.000 A 
ATOM     14  C   UNL     1       1.949   4.355  21.037  0.00  0.00    +0.000 A 
ATOM     15  C   UNL     1       2.999   4.606  20.150  0.00  0.00    +0.000 A 
ENDBRANCH   7  10
BRANCH   1  17
ATOM     16  N   UNL     1       7.974   6.486  18.871  0.00  0.00    +0.000 N 
ATOM     17  C   UNL     1       7.553   6.915  17.647  0.00  0.00    +0.000 C 
ATOM     18  O   UNL     1       7.716   8.075  17.289  0.00  0.00    +0.000 OA
ATOM     19  H   UNL     1       8.447   7.135  19.483  0.00  0.00    +0.000 HD
ATOM     20  H   UNL     1       7.846   5.522  19.171  0.00  0.00    +0.000 HD
ENDBRANCH   1  17
TORSDOF 2
ENDMDL
MODEL 4
REMARK VINA RESULT:      -7.6      1.122      1.359
REMARK  Name = 
REMARK  2 active torsions:
REMARK  status: ('A' for Active; 'I' for Inactive)
REMARK    1  A    between atoms: C_2  and  C_4
REMARK    2  A    between atoms: N_10  and  C_11
REMARK                            x       y       z     vdW  Elec       q    Type
REMARK                         _______ _______ _______ _____ _____    ______ ____
ROOT
ATOM      1  C   UNL     1       6.838   5.891  16.668  0.00  0.00    +0.000 A 
ATOM      2  C   UNL     1       7.344   5.614  15.375  0.00  0.00    +0.000 A 
ATOM      3  C   UNL     1       6.755   4.669  14.496  0.00  0.00    +0.000 A 
ATOM      4  C   UNL     1       5.618   3.914  14.834  0.00  0.00    +0.000 A 
ATOM      5  C   UNL     1       5.094   4.179  16.112  0.00  0.00    +0.000 A 
ATOM      6  N   UNL     1       4.038   3.618  16.713  0.00  0.00    +0.000 NA
ATOM      7  N   UNL     1       3.969   4.269  17.895  0.00  0.00    +0.000 N 
ATOM      8  N   UNL     1       4.929   5.193  18.141  0.00  0.00    +0.000 NA
ATOM      9  C   UNL     1       5.681   5.163  17.022  0.00  0.00    +0.000 A 
ENDROOT
BRANCH   7  10
ATOM     10  C   UNL     1       2.933   4.004  18.829  0.00  0.00    +0.000 A 
ATOM     11  C   UNL     1       2.962   4.610  20.093  0.00  0.00    +0.000 A 
ATOM     12  C   UNL     1       1.955   4.338  21.020  0.00  0.00    +0.000 A 
ATOM     13  C   UNL     1       0.927   3.454  20.695  0.00  0.00    +0.000 A 
ATOM     14  C   UNL     1       0.893   2.849  19.439  0.00  0.00    +0.000 A 
ATOM     15  C   UNL     1       1.889   3.127  18.500  0.00  0.00    +0.000 A 
ENDBRANCH   7  10
BRANCH   1  17
ATOM     16  N   UNL     1       7.879   6.420  18.795  0.00  0.00    +0.000 N 
ATOM     17  C   UNL     1       7.514   6.854  17.554  0.00  0.00    +0.000 C 
ATOM     18  O   UNL     1       7.754   7.997  17.185  0.00  0.00    +0.000 OA
ATOM     19  H   UNL     1       8.374   7.051  19.409  0.00  0.00    +0.000 HD
ATOM     20  H   UNL     1       7.688   5.470  19.104  0.00  0.00    +0.000 HD
ENDBRANCH   1  17
TORSDOF 2
ENDMDL
MODEL 5
REMARK VINA RESULT:      -7.4      2.870      6.295
REMARK  Name = 
REMARK  2 active torsions:
REMARK  status: ('A' for Active; 'I' for Inactive)
REMARK    1  A    between atoms: C_2  and  C_4
REMARK    2  A    between atoms: N_10  and  C_11
REMARK                            x       y       z     vdW  Elec       q    Type
REMARK                         _______ _______ _______ _____ _____    ______ ____
ROOT
ATOM      1  C   UNL     1       4.078   3.734  18.848  0.00  0.00    +0.000 A 
ATOM      2  C   UNL     1       3.400   4.659  19.678  0.00  0.00    +0.000 A 
ATOM      3  C   UNL     1       3.198   6.018  19.326  0.00  0.00    +0.000 A 
ATOM      4  C   UNL     1       3.663   6.574  18.121  0.00  0.00    +0.000 A 
ATOM      5  C   UNL     1       4.334   5.671  17.277  0.00  0.00    +0.000 A 
ATOM      6  N   UNL     1       4.894   5.903  16.083  0.00  0.00    +0.000 NA
ATOM      7  N   UNL     1       5.356   4.688  15.713  0.00  0.00    +0.000 N 
ATOM      8  N   UNL     1       5.181   3.673  16.594  0.00  0.00    +0.000 NA
ATOM      9  C   UNL     1       4.534   4.262  17.620  0.00  0.00    +0.000 A 
ENDROOT
BRANCH   7  10
ATOM     10  C   UNL     1       5.984   4.484  14.457  0.00  0.00    +0.000 A 
ATOM     11  C   UNL     1       7.165   5.174  14.145  0.00  0.00    +0.000 A 
ATOM     12  C   UNL     1       7.774   4.988  12.904  0.00  0.00    +0.000 A 
ATOM     13  C   UNL     1       7.205   4.127  11.968  0.00  0.00    +0.000 A 
ATOM     14  C   UNL     1       6.031   3.437  12.272  0.00  0.00    +0.000 A 
ATOM     15  C   UNL     1       5.422   3.606  13.518  0.00  0.00    +0.000 A 
ENDBRANCH   7  10
BRANCH   1  17
ATOM     16  N   UNL     1       3.910   1.350  18.431  0.00  0.00    +0.000 N 
ATOM     17  C   UNL     1       4.294   2.343  19.283  0.00  0.00    +0.000 C 
ATOM     18  O   UNL     1       4.813   2.090  20.363  0.00  0.00    +0.000 OA
ATOM     19  H   UNL     1       4.077   0.389  18.691  0.00  0.00    +0.000 HD
ATOM     20  H   UNL     1       3.484   1.556  17.531  0.00  0.00    +0.000 HD
ENDBRANCH   1  17
TORSDOF 2
ENDMDL
MODEL 6
REMARK VINA RESULT:      -7.4      2.875      6.257
REMARK  Name = 
REMARK  2 active torsions:
REMARK  status: ('A' for Active; 'I' for Inactive)
REMARK    1  A    between atoms: C_2  and  C_4
REMARK    2  A    between atoms: N_10  and  C_11
REMARK                            x       y       z     vdW  Elec       q    Type
REMARK                         _______ _______ _______ _____ _____    ______ ____
ROOT
ATOM      1  C   UNL     1       4.080   3.750  18.834  0.00  0.00    +0.000 A 
ATOM      2  C   UNL     1       3.409   4.672  19.673  0.00  0.00    +0.000 A 
ATOM      3  C   UNL     1       3.208   6.033  19.329  0.00  0.00    +0.000 A 
ATOM      4  C   UNL     1       3.668   6.595  18.125  0.00  0.00    +0.000 A 
ATOM      5  C   UNL     1       4.333   5.695  17.272  0.00  0.00    +0.000 A 
ATOM      6  N   UNL     1       4.887   5.933  16.077  0.00  0.00    +0.000 NA
ATOM      7  N   UNL     1       5.344   4.719  15.698  0.00  0.00    +0.000 N 
ATOM      8  N   UNL     1       5.172   3.700  16.574  0.00  0.00    +0.000 NA
ATOM      9  C   UNL     1       4.531   4.284  17.606  0.00  0.00    +0.000 A 
ENDROOT
BRANCH   7  10
ATOM     10  C   UNL     1       5.965   4.520  14.437  0.00  0.00    +0.000 A 
ATOM     11  C   UNL     1       5.391   3.643  13.506  0.00  0.00    +0.000 A 
ATOM     12  C   UNL     1       6.010   3.432  12.273  0.00  0.00    +0.000 A 
ATOM     13  C   UNL     1       7.204   4.083  11.970  0.00  0.00    +0.000 A 
ATOM     14  C   UNL     1       7.779   4.958  12.892  0.00  0.00    +0.000 A 
ATOM     15  C   UNL     1       7.159   5.186  14.123  0.00  0.00    +0.000 A 
ENDBRANCH   7  10
BRANCH   1  17
ATOM     16  N   UNL     1       3.885   1.369  18.413  0.00  0.00    +0.000 N 
ATOM     17  C   UNL     1       4.295   2.357  19.260  0.00  0.00    +0.000 C 
ATOM     18  O   UNL     1       4.835   2.096  20.328  0.00  0.00    +0.000 OA
ATOM     19  H   UNL     1       4.051   0.406  18.667  0.00  0.00    +0.000 HD
ATOM     20  H   UNL     1       3.442   1.581  17.523  0.00  0.00    +0.000 HD
ENDBRANCH   1  17
TORSDOF 2
ENDMDL
MODEL 7
REMARK VINA RESULT:      -7.0      3.841      4.779
REMARK  Name = 
REMARK  2 active torsions:
REMARK  status: ('A' for Active; 'I' for Inactive)
REMARK    1  A    between atoms: C_2  and  C_4
REMARK    2  A    between atoms: N_10  and  C_11
REMARK                            x       y       z     vdW  Elec       q    Type
REMARK                         _______ _______ _______ _____ _____    ______ ____
ROOT
ATOM      1  C   UNL     1       4.045   3.807  17.202  0.00  0.00    +0.000 A 
ATOM      2  C   UNL     1       5.119   3.698  16.286  0.00  0.00    +0.000 A 
ATOM      3  C   UNL     1       5.796   4.820  15.743  0.00  0.00    +0.000 A 
ATOM      4  C   UNL     1       5.455   6.146  16.059  0.00  0.00    +0.000 A 
ATOM      5  C   UNL     1       4.394   6.280  16.974  0.00  0.00    +0.000 A 
ATOM      6  N   UNL     1       3.842   7.401  17.453  0.00  0.00    +0.000 NA
ATOM      7  N   UNL     1       2.903   6.944  18.312  0.00  0.00    +0.000 N 
ATOM      8  N   UNL     1       2.764   5.599  18.406  0.00  0.00    +0.000 NA
ATOM      9  C   UNL     1       3.699   5.130  17.556  0.00  0.00    +0.000 A 
ENDROOT
BRANCH   7  10
ATOM     10  C   UNL     1       2.110   7.831  19.086  0.00  0.00    +0.000 A 
ATOM     11  C   UNL     1       1.826   7.526  20.424  0.00  0.00    +0.000 A 
ATOM     12  C   UNL     1       1.031   8.387  21.182  0.00  0.00    +0.000 A 
ATOM     13  C   UNL     1       0.509   9.544  20.606  0.00  0.00    +0.000 A 
ATOM     14  C   UNL     1       0.790   9.853  19.275  0.00  0.00    +0.000 A 
ATOM     15  C   UNL     1       1.596   9.004  18.514  0.00  0.00    +0.000 A 
ENDBRANCH   7  10
BRANCH   1  17
ATOM     16  N   UNL     1       4.039   1.794  18.556  0.00  0.00    +0.000 N 
ATOM     17  C   UNL     1       3.353   2.608  17.704  0.00  0.00    +0.000 C 
ATOM     18  O   UNL     1       2.198   2.360  17.379  0.00  0.00    +0.000 OA
ATOM     19  H   UNL     1       3.576   0.983  18.940  0.00  0.00    +0.000 HD
ATOM     20  H   UNL     1       4.996   1.999  18.834  0.00  0.00    +0.000 HD
ENDBRANCH   1  17
TORSDOF 2
ENDMDL
MODEL 8
REMARK VINA RESULT:      -7.0      3.735      5.517
REMARK  Name = 
REMARK  2 active torsions:
REMARK  status: ('A' for Active; 'I' for Inactive)
REMARK    1  A    between atoms: C_2  and  C_4
REMARK    2  A    between atoms: N_10  and  C_11
REMARK                            x       y       z     vdW  Elec       q    Type
REMARK                         _______ _______ _______ _____ _____    ______ ____
ROOT
ATOM      1  C   UNL     1       4.145   3.807  19.447  0.00  0.00    +0.000 A 
ATOM      2  C   UNL     1       3.860   2.644  20.201  0.00  0.00    +0.000 A 
ATOM      3  C   UNL     1       2.812   2.571  21.155  0.00  0.00    +0.000 A 
ATOM      4  C   UNL     1       1.965   3.656  21.445  0.00  0.00    +0.000 A 
ATOM      5  C   UNL     1       2.226   4.822  20.702  0.00  0.00    +0.000 A 
ATOM      6  N   UNL     1       1.605   6.006  20.763  0.00  0.00    +0.000 NA
ATOM      7  N   UNL     1       2.233   6.737  19.816  0.00  0.00    +0.000 N 
ATOM      8  N   UNL     1       3.256   6.137  19.159  0.00  0.00    +0.000 NA
ATOM      9  C   UNL     1       3.292   4.904  19.703  0.00  0.00    +0.000 A 
ENDROOT
BRANCH   7  10
ATOM     10  C   UNL     1       1.833   8.066  19.516  0.00  0.00    +0.000 A 
ATOM     11  C   UNL     1       1.143   8.820  20.476  0.00  0.00    +0.000 A 
ATOM     12  C   UNL     1       0.733  10.120  20.177  0.00  0.00    +0.000 A 
ATOM     13  C   UNL     1       0.997  10.665  18.922  0.00  0.00    +0.000 A 
ATOM     14  C   UNL     1       1.684   9.920  17.964  0.00  0.00    +0.000 A 
ATOM     15  C   UNL     1       2.111   8.623  18.259  0.00  0.00    +0.000 A 
ENDBRANCH   7  10
BRANCH   1  17
ATOM     16  N   UNL     1       5.059   3.329  17.251  0.00  0.00    +0.000 N 
ATOM     17  C   UNL     1       5.272   3.838  18.499  0.00  0.00    +0.000 C 
ATOM     18  O   UNL     1       6.354   4.316  18.815  0.00  0.00    +0.000 OA
ATOM     19  H   UNL     1       5.805   3.368  16.572  0.00  0.00    +0.000 HD
ATOM     20  H   UNL     1       4.160   2.937  16.982  0.00  0.00    +0.000 HD
ENDBRANCH   1  17
TORSDOF 2
ENDMDL
MODEL 9
REMARK VINA RESULT:      -7.0      3.872      4.735
REMARK  Name = 
REMARK  2 active torsions:
REMARK  status: ('A' for Active; 'I' for Inactive)
REMARK    1  A    between atoms: C_2  and  C_4
REMARK    2  A    between atoms: N_10  and  C_11
REMARK                            x       y       z     vdW  Elec       q    Type
REMARK                         _______ _______ _______ _____ _____    ______ ____
ROOT
ATOM      1  C   UNL     1       4.031   3.786  17.173  0.00  0.00    +0.000 A 
ATOM      2  C   UNL     1       5.138   3.641  16.303  0.00  0.00    +0.000 A 
ATOM      3  C   UNL     1       5.868   4.740  15.782  0.00  0.00    +0.000 A 
ATOM      4  C   UNL     1       5.552   6.078  16.078  0.00  0.00    +0.000 A 
ATOM      5  C   UNL     1       4.459   6.246  16.947  0.00  0.00    +0.000 A 
ATOM      6  N   UNL     1       3.919   7.385  17.397  0.00  0.00    +0.000 NA
ATOM      7  N   UNL     1       2.933   6.960  18.218  0.00  0.00    +0.000 N 
ATOM      8  N   UNL     1       2.752   5.621  18.313  0.00  0.00    +0.000 NA
ATOM      9  C   UNL     1       3.708   5.121  17.505  0.00  0.00    +0.000 A 
ENDROOT
BRANCH   7  10
ATOM     10  C   UNL     1       2.134   7.874  18.954  0.00  0.00    +0.000 A 
ATOM     11  C   UNL     1       1.634   9.026  18.329  0.00  0.00    +0.000 A 
ATOM     12  C   UNL     1       0.863   9.935  19.055  0.00  0.00    +0.000 A 
ATOM     13  C   UNL     1       0.599   9.705  20.404  0.00  0.00    +0.000 A 
ATOM     14  C   UNL     1       1.092   8.561  21.031  0.00  0.00    +0.000 A 
ATOM     15  C   UNL     1       1.853   7.639  20.308  0.00  0.00    +0.000 A 
ENDBRANCH   7  10
BRANCH   1  17
ATOM     16  N   UNL     1       3.978   1.665  18.350  0.00  0.00    +0.000 N 
ATOM     17  C   UNL     1       3.284   2.610  17.651  0.00  0.00    +0.000 C 
ATOM     18  O   UNL     1       2.083   2.493  17.442  0.00  0.00    +0.000 OA
ATOM     19  H   UNL     1       3.482   0.866  18.716  0.00  0.00    +0.000 HD
ATOM     20  H   UNL     1       4.973   1.761  18.531  0.00  0.00    +0.000 HD
ENDBRANCH   1  17
TORSDOF 2
ENDMDL
