MODEL 1
REMARK VINA RESULT:      -8.4      0.000      0.000
REMARK  Name = 
REMARK  4 active torsions:
REMARK  status: ('A' for Active; 'I' for Inactive)
REMARK    1  A    between atoms: O_1  and  N_2
REMARK    2  A    between atoms: C_3  and  C_4
REMARK    3  A    between atoms: C_9  and  O_10
REMARK    4  A    between atoms: O_10  and  C_11
REMARK                            x       y       z     vdW  Elec       q    Type
REMARK                         _______ _______ _______ _____ _____    ______ ____
ROOT
ATOM      1  C   UNL     1       4.741   4.655  18.107  0.00  0.00    +0.000 A 
ATOM      2  C   UNL     1       6.109   4.374  18.233  0.00  0.00    +0.000 A 
ATOM      3  C   UNL     1       7.059   5.355  17.986  0.00  0.00    +0.000 A 
ATOM      4  C   UNL     1       6.611   6.604  17.605  0.00  0.00    +0.000 A 
ATOM      5  N   UNL     1       5.308   6.923  17.481  0.00  0.00    +0.000 NA
ATOM      6  C   UNL     1       4.384   5.960  17.755  0.00  0.00    +0.000 A 
ENDROOT
BRANCH   1   8
ATOM      7  N   UNL     1       3.958   2.491  17.524  0.00  0.00    +0.000 NA
ATOM      8  C   UNL     1       3.802   3.510  18.332  0.00  0.00    +0.000 C 
ATOM      9  N   UNL     1       2.879   3.549  19.360  0.00  0.00    +0.000 N 
ATOM     10  C   UNL     1       3.221   3.799  20.748  0.00  0.00    +0.000 C 
ATOM     11  C   UNL     1       1.887   3.713  21.478  0.00  0.00    +0.000 C 
ATOM     12  C   UNL     1       0.883   4.208  20.449  0.00  0.00    +0.000 C 
ATOM     13  C   UNL     1       1.460   3.768  19.106  0.00  0.00    +0.000 C 
BRANCH   7  14
ATOM     14  O   UNL     1       3.142   1.403  17.852  0.00  0.00    +0.000 OA
ATOM     15  H   UNL     1       2.415   1.827  18.337  0.00  0.00    +0.000 HD
ENDBRANCH   7  14
ENDBRANCH   1   8
BRANCH   6  16
ATOM     16  O   UNL     1       3.057   6.311  17.575  0.00  0.00    +0.000 OA
BRANCH  16  17
ATOM     17  C   UNL     1       2.532   7.373  18.287  0.00  0.00    +0.000 A 
ATOM     18  C   UNL     1       2.177   8.503  17.546  0.00  0.00    +0.000 A 
ATOM     19  C   UNL     1       1.486   9.560  18.149  0.00  0.00    +0.000 A 
ATOM     20  C   UNL     1       1.117   9.492  19.500  0.00  0.00    +0.000 A 
ATOM     21  C   UNL     1       1.547   8.403  20.275  0.00  0.00    +0.000 A 
ATOM     22  C   UNL     1       2.234   7.343  19.654  0.00  0.00    +0.000 A 
ATOM     23  C   UNL     1       1.221   8.294  21.747  0.00  0.00    +0.000 C 
ATOM     24  C   UNL     1       0.518   9.520  22.333  0.00  0.00    +0.000 C 
ATOM     25  C   UNL     1      -0.485  10.093  21.345  0.00  0.00    +0.000 C 
ATOM     26  C   UNL     1       0.241  10.572  20.088  0.00  0.00    +0.000 C 
ENDBRANCH  16  17
ENDBRANCH   6  16
TORSDOF 4
ENDMDL
MODEL 2
REMARK VINA RESULT:      -8.4      1.877      3.941
REMARK  Name = 
REMARK  4 active torsions:
REMARK  status: ('A' for Active; 'I' for Inactive)
REMARK    1  A    between atoms: O_1  and  N_2
REMARK    2  A    between atoms: C_3  and  C_4
REMARK    3  A    between atoms: C_9  and  O_10
REMARK    4  A    between atoms: O_10  and  C_11
REMARK                            x       y       z     vdW  Elec       q    Type
REMARK                         _______ _______ _______ _____ _____    ______ ____
ROOT
ATOM      1  C   UNL     1       3.587   3.966  18.571  0.00  0.00    +0.000 A 
ATOM      2  C   UNL     1       3.141   2.768  17.991  0.00  0.00    +0.000 A 
ATOM      3  C   UNL     1       1.876   2.273  18.273  0.00  0.00    +0.000 A 
ATOM      4  C   UNL     1       1.083   2.992  19.145  0.00  0.00    +0.000 A 
ATOM      5  N   UNL     1       1.463   4.151  19.716  0.00  0.00    +0.000 NA
ATOM      6  C   UNL     1       2.696   4.642  19.410  0.00  0.00    +0.000 A 
ENDROOT
BRANCH   1   8
ATOM      7  N   UNL     1       5.854   4.223  19.227  0.00  0.00    +0.000 NA
ATOM      8  C   UNL     1       4.991   4.378  18.253  0.00  0.00    +0.000 C 
ATOM      9  N   UNL     1       5.320   4.844  16.995  0.00  0.00    +0.000 N 
ATOM     10  C   UNL     1       5.043   4.124  15.765  0.00  0.00    +0.000 C 
ATOM     11  C   UNL     1       5.612   5.022  14.676  0.00  0.00    +0.000 C 
ATOM     12  C   UNL     1       5.430   6.423  15.235  0.00  0.00    +0.000 C 
ATOM     13  C   UNL     1       5.577   6.257  16.746  0.00  0.00    +0.000 C 
BRANCH   7  14
ATOM     14  O   UNL     1       7.169   4.506  18.843  0.00  0.00    +0.000 OA
ATOM     15  H   UNL     1       7.097   4.557  17.876  0.00  0.00    +0.000 HD
ENDBRANCH   7  14
ENDBRANCH   1   8
BRANCH   6  16
ATOM     16  O   UNL     1       3.069   5.811  20.049  0.00  0.00    +0.000 OA
BRANCH  16  17
ATOM     17  C   UNL     1       2.459   7.002  19.701  0.00  0.00    +0.000 A 
ATOM     18  C   UNL     1       2.542   7.372  18.356  0.00  0.00    +0.000 A 
ATOM     19  C   UNL     1       1.819   8.469  17.875  0.00  0.00    +0.000 A 
ATOM     20  C   UNL     1       0.979   9.199  18.729  0.00  0.00    +0.000 A 
ATOM     21  C   UNL     1       0.958   8.892  20.099  0.00  0.00    +0.000 A 
ATOM     22  C   UNL     1       1.684   7.781  20.568  0.00  0.00    +0.000 A 
ATOM     23  C   UNL     1       0.110   9.671  21.077  0.00  0.00    +0.000 C 
ATOM     24  C   UNL     1      -0.597  10.887  20.476  0.00  0.00    +0.000 C 
ATOM     25  C   UNL     1      -1.094  10.584  19.071  0.00  0.00    +0.000 C 
ATOM     26  C   UNL     1       0.093  10.279  18.157  0.00  0.00    +0.000 C 
ENDBRANCH  16  17
ENDBRANCH   6  16
TORSDOF 4
ENDMDL
MODEL 3
REMARK VINA RESULT:      -8.2      1.727      3.735
REMARK  Name = 
REMARK  4 active torsions:
REMARK  status: ('A' for Active; 'I' for Inactive)
REMARK    1  A    between atoms: O_1  and  N_2
REMARK    2  A    between atoms: C_3  and  C_4
REMARK    3  A    between atoms: C_9  and  O_10
REMARK    4  A    between atoms: O_10  and  C_11
REMARK                            x       y       z     vdW  Elec       q    Type
REMARK                         _______ _______ _______ _____ _____    ______ ____
ROOT
ATOM      1  C   UNL     1       3.958   4.218  19.072  0.00  0.00    +0.000 A 
ATOM      2  C   UNL     1       3.903   3.072  19.879  0.00  0.00    +0.000 A 
ATOM      3  C   UNL     1       2.690   2.607  20.367  0.00  0.00    +0.000 A 
ATOM      4  C   UNL     1       1.550   3.314  20.039  0.00  0.00    +0.000 A 
ATOM      5  N   UNL     1       1.553   4.412  19.259  0.00  0.00    +0.000 NA
ATOM      6  C   UNL     1       2.746   4.843  18.762  0.00  0.00    +0.000 A 
ENDROOT
BRANCH   1   8
ATOM      7  N   UNL     1       6.164   4.893  19.632  0.00  0.00    +0.000 NA
ATOM      8  C   UNL     1       5.322   4.673  18.653  0.00  0.00    +0.000 C 
ATOM      9  N   UNL     1       5.641   4.797  17.314  0.00  0.00    +0.000 N 
ATOM     10  C   UNL     1       5.480   3.733  16.340  0.00  0.00    +0.000 C 
ATOM     11  C   UNL     1       5.987   4.343  15.040  0.00  0.00    +0.000 C 
ATOM     12  C   UNL     1       5.644   5.817  15.178  0.00  0.00    +0.000 C 
ATOM     13  C   UNL     1       5.759   6.101  16.674  0.00  0.00    +0.000 C 
BRANCH   7  14
ATOM     14  O   UNL     1       7.454   5.198  19.185  0.00  0.00    +0.000 OA
ATOM     15  H   UNL     1       8.005   4.918  19.935  0.00  0.00    +0.000 HD
ENDBRANCH   7  14
ENDBRANCH   1   8
BRANCH   6  16
ATOM     16  O   UNL     1       2.715   5.998  18.002  0.00  0.00    +0.000 OA
BRANCH  16  17
ATOM     17  C   UNL     1       2.301   7.183  18.581  0.00  0.00    +0.000 A 
ATOM     18  C   UNL     1       2.092   8.259  17.715  0.00  0.00    +0.000 A 
ATOM     19  C   UNL     1       1.516   9.445  18.181  0.00  0.00    +0.000 A 
ATOM     20  C   UNL     1       1.114   9.566  19.519  0.00  0.00    +0.000 A 
ATOM     21  C   UNL     1       1.402   8.525  20.418  0.00  0.00    +0.000 A 
ATOM     22  C   UNL     1       1.974   7.334  19.934  0.00  0.00    +0.000 A 
ATOM     23  C   UNL     1       1.036   8.614  21.882  0.00  0.00    +0.000 C 
ATOM     24  C   UNL     1       0.467   9.966  22.314  0.00  0.00    +0.000 C 
ATOM     25  C   UNL     1      -0.444  10.538  21.239  0.00  0.00    +0.000 C 
ATOM     26  C   UNL     1       0.357  10.794  19.963  0.00  0.00    +0.000 C 
ENDBRANCH  16  17
ENDBRANCH   6  16
TORSDOF 4
ENDMDL
MODEL 4
REMARK VINA RESULT:      -7.8      1.929      4.169
REMARK  Name = 
REMARK  4 active torsions:
REMARK  status: ('A' for Active; 'I' for Inactive)
REMARK    1  A    between atoms: O_1  and  N_2
REMARK    2  A    between atoms: C_3  and  C_4
REMARK    3  A    between atoms: C_9  and  O_10
REMARK    4  A    between atoms: O_10  and  C_11
REMARK                            x       y       z     vdW  Elec       q    Type
REMARK                         _______ _______ _______ _____ _____    ______ ____
ROOT
ATOM      1  C   UNL     1       3.883   3.912  18.148  0.00  0.00    +0.000 A 
ATOM      2  C   UNL     1       3.627   2.563  18.438  0.00  0.00    +0.000 A 
ATOM      3  C   UNL     1       2.329   2.117  18.644  0.00  0.00    +0.000 A 
ATOM      4  C   UNL     1       1.309   3.044  18.563  0.00  0.00    +0.000 A 
ATOM      5  N   UNL     1       1.505   4.345  18.277  0.00  0.00    +0.000 NA
ATOM      6  C   UNL     1       2.780   4.766  18.048  0.00  0.00    +0.000 A 
ENDROOT
BRANCH   1   8
ATOM      7  N   UNL     1       5.987   4.399  19.134  0.00  0.00    +0.000 NA
ATOM      8  C   UNL     1       5.322   4.303  18.009  0.00  0.00    +0.000 C 
ATOM      9  N   UNL     1       5.880   4.496  16.760  0.00  0.00    +0.000 N 
ATOM     10  C   UNL     1       5.838   3.515  15.692  0.00  0.00    +0.000 C 
ATOM     11  C   UNL     1       6.601   4.177  14.552  0.00  0.00    +0.000 C 
ATOM     12  C   UNL     1       6.318   5.658  14.745  0.00  0.00    +0.000 C 
ATOM     13  C   UNL     1       6.180   5.831  16.255  0.00  0.00    +0.000 C 
BRANCH   7  14
ATOM     14  O   UNL     1       7.350   4.647  18.943  0.00  0.00    +0.000 OA
ATOM     15  H   UNL     1       7.647   3.840  18.490  0.00  0.00    +0.000 HD
ENDBRANCH   7  14
ENDBRANCH   1   8
BRANCH   6  16
ATOM     16  O   UNL     1       2.947   6.118  17.801  0.00  0.00    +0.000 OA
BRANCH  16  17
ATOM     17  C   UNL     1       2.265   7.040  18.573  0.00  0.00    +0.000 A 
ATOM     18  C   UNL     1       2.137   6.740  19.931  0.00  0.00    +0.000 A 
ATOM     19  C   UNL     1       1.613   7.684  20.821  0.00  0.00    +0.000 A 
ATOM     20  C   UNL     1       1.231   8.955  20.369  0.00  0.00    +0.000 A 
ATOM     21  C   UNL     1       1.271   9.235  18.993  0.00  0.00    +0.000 A 
ATOM     22  C   UNL     1       1.809   8.280  18.110  0.00  0.00    +0.000 A 
ATOM     23  C   UNL     1       0.830  10.570  18.439  0.00  0.00    +0.000 C 
ATOM     24  C   UNL     1       0.216  11.515  19.473  0.00  0.00    +0.000 C 
ATOM     25  C   UNL     1       0.953  11.419  20.799  0.00  0.00    +0.000 C 
ATOM     26  C   UNL     1       0.813  10.007  21.368  0.00  0.00    +0.000 C 
ENDBRANCH  16  17
ENDBRANCH   6  16
TORSDOF 4
ENDMDL
MODEL 5
REMARK VINA RESULT:      -7.7      1.175      1.366
REMARK  Name = 
REMARK  4 active torsions:
REMARK  status: ('A' for Active; 'I' for Inactive)
REMARK    1  A    between atoms: O_1  and  N_2
REMARK    2  A    between atoms: C_3  and  C_4
REMARK    3  A    between atoms: C_9  and  O_10
REMARK    4  A    between atoms: O_10  and  C_11
REMARK                            x       y       z     vdW  Elec       q    Type
REMARK                         _______ _______ _______ _____ _____    ______ ____
ROOT
ATOM      1  C   UNL     1       3.815   4.613  17.611  0.00  0.00    +0.000 A 
ATOM      2  C   UNL     1       4.732   4.376  16.576  0.00  0.00    +0.000 A 
ATOM      3  C   UNL     1       5.597   5.375  16.155  0.00  0.00    +0.000 A 
ATOM      4  C   UNL     1       5.518   6.603  16.781  0.00  0.00    +0.000 A 
ATOM      5  N   UNL     1       4.663   6.873  17.786  0.00  0.00    +0.000 NA
ATOM      6  C   UNL     1       3.837   5.876  18.211  0.00  0.00    +0.000 A 
ENDROOT
BRANCH   1   8
ATOM      7  N   UNL     1       2.433   2.812  16.918  0.00  0.00    +0.000 NA
ATOM      8  C   UNL     1       2.881   3.490  17.945  0.00  0.00    +0.000 C 
ATOM      9  N   UNL     1       2.576   3.197  19.260  0.00  0.00    +0.000 N 
ATOM     10  C   UNL     1       3.569   2.939  20.286  0.00  0.00    +0.000 C 
ATOM     11  C   UNL     1       2.745   2.645  21.532  0.00  0.00    +0.000 C 
ATOM     12  C   UNL     1       1.500   3.497  21.347  0.00  0.00    +0.000 C 
ATOM     13  C   UNL     1       1.280   3.535  19.837  0.00  0.00    +0.000 C 
BRANCH   7  14
ATOM     14  O   UNL     1       1.664   1.703  17.289  0.00  0.00    +0.000 OA
ATOM     15  H   UNL     1       0.781   1.944  16.965  0.00  0.00    +0.000 HD
ENDBRANCH   7  14
ENDBRANCH   1   8
BRANCH   6  16
ATOM     16  O   UNL     1       2.943   6.203  19.214  0.00  0.00    +0.000 OA
BRANCH  16  17
ATOM     17  C   UNL     1       2.326   7.440  19.200  0.00  0.00    +0.000 A 
ATOM     18  C   UNL     1       2.186   8.050  17.950  0.00  0.00    +0.000 A 
ATOM     19  C   UNL     1       1.431   9.219  17.811  0.00  0.00    +0.000 A 
ATOM     20  C   UNL     1       0.780   9.785  18.917  0.00  0.00    +0.000 A 
ATOM     21  C   UNL     1       0.988   9.232  20.191  0.00  0.00    +0.000 A 
ATOM     22  C   UNL     1       1.743   8.050  20.316  0.00  0.00    +0.000 A 
ATOM     23  C   UNL     1       0.352   9.822  21.429  0.00  0.00    +0.000 C 
ATOM     24  C   UNL     1      -0.404  11.130  21.191  0.00  0.00    +0.000 C 
ATOM     25  C   UNL     1      -1.148  11.093  19.866  0.00  0.00    +0.000 C 
ATOM     26  C   UNL     1      -0.152  10.955  18.716  0.00  0.00    +0.000 C 
ENDBRANCH  16  17
ENDBRANCH   6  16
TORSDOF 4
ENDMDL
MODEL 6
REMARK VINA RESULT:      -7.7      3.293      6.639
REMARK  Name = 
REMARK  4 active torsions:
REMARK  status: ('A' for Active; 'I' for Inactive)
REMARK    1  A    between atoms: O_1  and  N_2
REMARK    2  A    between atoms: C_3  and  C_4
REMARK    3  A    between atoms: C_9  and  O_10
REMARK    4  A    between atoms: O_10  and  C_11
REMARK                            x       y       z     vdW  Elec       q    Type
REMARK                         _______ _______ _______ _____ _____    ______ ____
ROOT
ATOM      1  C   UNL     1       2.824   5.272  17.957  0.00  0.00    +0.000 A 
ATOM      2  C   UNL     1       1.835   6.218  18.269  0.00  0.00    +0.000 A 
ATOM      3  C   UNL     1       2.104   7.577  18.186  0.00  0.00    +0.000 A 
ATOM      4  C   UNL     1       3.372   7.960  17.799  0.00  0.00    +0.000 A 
ATOM      5  N   UNL     1       4.350   7.089  17.480  0.00  0.00    +0.000 NA
ATOM      6  C   UNL     1       4.066   5.758  17.537  0.00  0.00    +0.000 A 
ENDROOT
BRANCH   1   8
ATOM      7  N   UNL     1       2.321   3.143  17.036  0.00  0.00    +0.000 NA
ATOM      8  C   UNL     1       2.452   3.833  18.142  0.00  0.00    +0.000 C 
ATOM      9  N   UNL     1       2.310   3.301  19.409  0.00  0.00    +0.000 N 
ATOM     10  C   UNL     1       3.329   3.375  20.439  0.00  0.00    +0.000 C 
ATOM     11  C   UNL     1       2.717   2.631  21.618  0.00  0.00    +0.000 C 
ATOM     12  C   UNL     1       1.227   2.897  21.475  0.00  0.00    +0.000 C 
ATOM     13  C   UNL     1       0.998   3.000  19.969  0.00  0.00    +0.000 C 
BRANCH   7  14
ATOM     14  O   UNL     1       2.094   1.782  17.265  0.00  0.00    +0.000 OA
ATOM     15  H   UNL     1       2.996   1.431  17.346  0.00  0.00    +0.000 HD
ENDBRANCH   7  14
ENDBRANCH   1   8
BRANCH   6  16
ATOM     16  O   UNL     1       5.106   4.894  17.245  0.00  0.00    +0.000 OA
BRANCH  16  17
ATOM     17  C   UNL     1       5.542   4.770  15.939  0.00  0.00    +0.000 A 
ATOM     18  C   UNL     1       6.857   5.167  15.682  0.00  0.00    +0.000 A 
ATOM     19  C   UNL     1       7.441   4.925  14.434  0.00  0.00    +0.000 A 
ATOM     20  C   UNL     1       6.726   4.259  13.428  0.00  0.00    +0.000 A 
ATOM     21  C   UNL     1       5.376   3.938  13.644  0.00  0.00    +0.000 A 
ATOM     22  C   UNL     1       4.803   4.178  14.907  0.00  0.00    +0.000 A 
ATOM     23  C   UNL     1       4.538   3.261  12.584  0.00  0.00    +0.000 C 
ATOM     24  C   UNL     1       5.239   3.092  11.234  0.00  0.00    +0.000 C 
ATOM     25  C   UNL     1       6.704   2.735  11.426  0.00  0.00    +0.000 C 
ATOM     26  C   UNL     1       7.425   3.874  12.147  0.00  0.00    +0.000 C 
ENDBRANCH  16  17
ENDBRANCH   6  16
TORSDOF 4
ENDMDL
MODEL 7
REMARK VINA RESULT:      -7.6      1.928      4.239
REMARK  Name = 
REMARK  4 active torsions:
REMARK  status: ('A' for Active; 'I' for Inactive)
REMARK    1  A    between atoms: O_1  and  N_2
REMARK    2  A    between atoms: C_3  and  C_4
REMARK    3  A    between atoms: C_9  and  O_10
REMARK    4  A    between atoms: O_10  and  C_11
REMARK                            x       y       z     vdW  Elec       q    Type
REMARK                         _______ _______ _______ _____ _____    ______ ____
ROOT
ATOM      1  C   UNL     1       3.723   3.658  18.579  0.00  0.00    +0.000 A 
ATOM      2  C   UNL     1       3.407   2.525  17.814  0.00  0.00    +0.000 A 
ATOM      3  C   UNL     1       2.213   1.849  18.011  0.00  0.00    +0.000 A 
ATOM      4  C   UNL     1       1.357   2.322  18.986  0.00  0.00    +0.000 A 
ATOM      5  N   UNL     1       1.612   3.410  19.737  0.00  0.00    +0.000 NA
ATOM      6  C   UNL     1       2.775   4.084  19.515  0.00  0.00    +0.000 A 
ENDROOT
BRANCH   1   8
ATOM      7  N   UNL     1       5.925   4.155  19.315  0.00  0.00    +0.000 NA
ATOM      8  C   UNL     1       5.065   4.276  18.334  0.00  0.00    +0.000 C 
ATOM      9  N   UNL     1       5.350   4.883  17.126  0.00  0.00    +0.000 N 
ATOM     10  C   UNL     1       5.191   4.238  15.836  0.00  0.00    +0.000 C 
ATOM     11  C   UNL     1       5.653   5.290  14.837  0.00  0.00    +0.000 C 
ATOM     12  C   UNL     1       5.278   6.604  15.502  0.00  0.00    +0.000 C 
ATOM     13  C   UNL     1       5.421   6.334  16.998  0.00  0.00    +0.000 C 
BRANCH   7  14
ATOM     14  O   UNL     1       7.197   4.639  18.991  0.00  0.00    +0.000 OA
ATOM     15  H   UNL     1       7.156   5.557  19.306  0.00  0.00    +0.000 HD
ENDBRANCH   7  14
ENDBRANCH   1   8
BRANCH   6  16
ATOM     16  O   UNL     1       3.024   5.171  20.335  0.00  0.00    +0.000 OA
BRANCH  16  17
ATOM     17  C   UNL     1       2.315   6.343  20.144  0.00  0.00    +0.000 A 
ATOM     18  C   UNL     1       1.483   6.744  21.193  0.00  0.00    +0.000 A 
ATOM     19  C   UNL     1       0.857   7.994  21.164  0.00  0.00    +0.000 A 
ATOM     20  C   UNL     1       1.073   8.877  20.096  0.00  0.00    +0.000 A 
ATOM     21  C   UNL     1       1.834   8.448  18.995  0.00  0.00    +0.000 A 
ATOM     22  C   UNL     1       2.465   7.191  19.041  0.00  0.00    +0.000 A 
ATOM     23  C   UNL     1       2.065   9.334  17.793  0.00  0.00    +0.000 C 
ATOM     24  C   UNL     1       1.294  10.655  17.821  0.00  0.00    +0.000 C 
ATOM     25  C   UNL     1       1.258  11.231  19.228  0.00  0.00    +0.000 C 
ATOM     26  C   UNL     1       0.512  10.276  20.160  0.00  0.00    +0.000 C 
ENDBRANCH  16  17
ENDBRANCH   6  16
TORSDOF 4
ENDMDL
MODEL 8
REMARK VINA RESULT:      -7.6      0.653      1.608
REMARK  Name = 
REMARK  4 active torsions:
REMARK  status: ('A' for Active; 'I' for Inactive)
REMARK    1  A    between atoms: O_1  and  N_2
REMARK    2  A    between atoms: C_3  and  C_4
REMARK    3  A    between atoms: C_9  and  O_10
REMARK    4  A    between atoms: O_10  and  C_11
REMARK                            x       y       z     vdW  Elec       q    Type
REMARK                         _______ _______ _______ _____ _____    ______ ____
ROOT
ATOM      1  C   UNL     1       4.697   4.583  18.209  0.00  0.00    +0.000 A 
ATOM      2  C   UNL     1       6.078   4.401  18.382  0.00  0.00    +0.000 A 
ATOM      3  C   UNL     1       6.960   5.455  18.193  0.00  0.00    +0.000 A 
ATOM      4  C   UNL     1       6.435   6.676  17.823  0.00  0.00    +0.000 A 
ATOM      5  N   UNL     1       5.118   6.902  17.655  0.00  0.00    +0.000 NA
ATOM      6  C   UNL     1       4.258   5.867  17.872  0.00  0.00    +0.000 A 
ENDROOT
BRANCH   1   8
ATOM      7  N   UNL     1       4.073   2.398  17.522  0.00  0.00    +0.000 NA
ATOM      8  C   UNL     1       3.838   3.368  18.372  0.00  0.00    +0.000 C 
ATOM      9  N   UNL     1       2.905   3.297  19.389  0.00  0.00    +0.000 N 
ATOM     10  C   UNL     1       3.215   3.509  20.790  0.00  0.00    +0.000 C 
ATOM     11  C   UNL     1       1.883   3.299  21.498  0.00  0.00    +0.000 C 
ATOM     12  C   UNL     1       0.858   3.768  20.479  0.00  0.00    +0.000 C 
ATOM     13  C   UNL     1       1.477   3.429  19.126  0.00  0.00    +0.000 C 
BRANCH   7  14
ATOM     14  O   UNL     1       3.332   1.243  17.792  0.00  0.00    +0.000 OA
ATOM     15  H   UNL     1       3.939   0.733  18.354  0.00  0.00    +0.000 HD
ENDBRANCH   7  14
ENDBRANCH   1   8
BRANCH   6  16
ATOM     16  O   UNL     1       2.917   6.124  17.648  0.00  0.00    +0.000 OA
BRANCH  16  17
ATOM     17  C   UNL     1       2.267   7.069  18.420  0.00  0.00    +0.000 A 
ATOM     18  C   UNL     1       2.189   6.804  19.790  0.00  0.00    +0.000 A 
ATOM     19  C   UNL     1       1.701   7.772  20.674  0.00  0.00    +0.000 A 
ATOM     20  C   UNL     1       1.305   9.033  20.204  0.00  0.00    +0.000 A 
ATOM     21  C   UNL     1       1.294   9.277  18.821  0.00  0.00    +0.000 A 
ATOM     22  C   UNL     1       1.796   8.298  17.944  0.00  0.00    +0.000 A 
ATOM     23  C   UNL     1       0.836  10.599  18.249  0.00  0.00    +0.000 C 
ATOM     24  C   UNL     1       0.264  11.572  19.281  0.00  0.00    +0.000 C 
ATOM     25  C   UNL     1       1.050  11.508  20.581  0.00  0.00    +0.000 C 
ATOM     26  C   UNL     1       0.928  10.111  21.191  0.00  0.00    +0.000 C 
ENDBRANCH  16  17
ENDBRANCH   6  16
TORSDOF 4
ENDMDL
MODEL 9
REMARK VINA RESULT:      -7.5      1.833      3.847
REMARK  Name = 
REMARK  4 active torsions:
REMARK  status: ('A' for Active; 'I' for Inactive)
REMARK    1  A    between atoms: O_1  and  N_2
REMARK    2  A    between atoms: C_3  and  C_4
REMARK    3  A    between atoms: C_9  and  O_10
REMARK    4  A    between atoms: O_10  and  C_11
REMARK                            x       y       z     vdW  Elec       q    Type
REMARK                         _______ _______ _______ _____ _____    ______ ____
ROOT
ATOM      1  C   UNL     1       3.627   4.820  17.733  0.00  0.00    +0.000 A 
ATOM      2  C   UNL     1       3.251   3.612  17.126  0.00  0.00    +0.000 A 
ATOM      3  C   UNL     1       2.227   2.841  17.658  0.00  0.00    +0.000 A 
ATOM      4  C   UNL     1       1.605   3.298  18.802  0.00  0.00    +0.000 A 
ATOM      5  N   UNL     1       1.924   4.455  19.414  0.00  0.00    +0.000 NA
ATOM      6  C   UNL     1       2.911   5.218  18.866  0.00  0.00    +0.000 A 
ENDROOT
BRANCH   1   8
ATOM      7  N   UNL     1       4.496   6.282  16.076  0.00  0.00    +0.000 NA
ATOM      8  C   UNL     1       4.786   5.542  17.118  0.00  0.00    +0.000 C 
ATOM      9  N   UNL     1       6.049   5.443  17.670  0.00  0.00    +0.000 N 
ATOM     10  C   UNL     1       6.353   5.730  19.059  0.00  0.00    +0.000 C 
ATOM     11  C   UNL     1       7.855   5.505  19.163  0.00  0.00    +0.000 C 
ATOM     12  C   UNL     1       8.125   4.409  18.146  0.00  0.00    +0.000 C 
ATOM     13  C   UNL     1       7.097   4.646  17.042  0.00  0.00    +0.000 C 
BRANCH   7  14
ATOM     14  O   UNL     1       5.585   7.029  15.615  0.00  0.00    +0.000 OA
ATOM     15  H   UNL     1       6.017   7.299  16.442  0.00  0.00    +0.000 HD
ENDBRANCH   7  14
ENDBRANCH   1   8
BRANCH   6  16
ATOM     16  O   UNL     1       3.242   6.377  19.546  0.00  0.00    +0.000 OA
BRANCH  16  17
ATOM     17  C   UNL     1       2.483   7.517  19.357  0.00  0.00    +0.000 A 
ATOM     18  C   UNL     1       2.374   7.980  18.043  0.00  0.00    +0.000 A 
ATOM     19  C   UNL     1       1.496   9.023  17.728  0.00  0.00    +0.000 A 
ATOM     20  C   UNL     1       0.693   9.604  18.720  0.00  0.00    +0.000 A 
ATOM     21  C   UNL     1       0.861   9.208  20.057  0.00  0.00    +0.000 A 
ATOM     22  C   UNL     1       1.740   8.152  20.359  0.00  0.00    +0.000 A 
ATOM     23  C   UNL     1       0.058   9.828  21.178  0.00  0.00    +0.000 C 
ATOM     24  C   UNL     1      -0.829  10.999  20.751  0.00  0.00    +0.000 C 
ATOM     25  C   UNL     1      -1.452  10.737  19.389  0.00  0.00    +0.000 C 
ATOM     26  C   UNL     1      -0.355  10.619  18.331  0.00  0.00    +0.000 C 
ENDBRANCH  16  17
ENDBRANCH   6  16
TORSDOF 4
ENDMDL
