MODEL 1
REMARK VINA RESULT:      -7.7      0.000      0.000
REMARK  Name = 
REMARK  8 active torsions:
REMARK  status: ('A' for Active; 'I' for Inactive)
REMARK    1  A    between atoms: N_2  and  C_3
REMARK    2  A    between atoms: C_6  and  N_7
REMARK    3  A    between atoms: N_7  and  CA_8
REMARK    4  A    between atoms: CA_8  and  C_9
REMARK    5  A    between atoms: CA_8  and  C_11
REMARK    6  A    between atoms: C_9  and  O_10
REMARK    7  A    between atoms: C_14  and  C_15
REMARK    8  A    between atoms: C_22  and  C_23
REMARK                            x       y       z     vdW  Elec       q    Type
REMARK                         _______ _______ _______ _____ _____    ______ ____
ROOT
ATOM      1  CA  UNL     1       6.294   6.023  16.004  0.00  0.00    +0.000 C 
ENDROOT
BRANCH   1   2
ATOM      2  C   UNL     1       7.037   6.688  17.122  0.00  0.00    +0.000 A 
ATOM      3  N   UNL     1       7.640   6.131  18.153  0.00  0.00    +0.000 NA
ATOM      4  N   UNL     1       8.298   7.137  18.812  0.00  0.00    +0.000 NA
ATOM      5  C   UNL     1       8.064   8.250  18.143  0.00  0.00    +0.000 A 
ATOM      6  O   UNL     1       7.255   8.044  17.049  0.00  0.00    +0.000 OA
BRANCH   5   7
ATOM      7  C   UNL     1       8.563   9.594  18.399  0.00  0.00    +0.000 A 
ATOM      8  C   UNL     1       8.206  10.631  17.521  0.00  0.00    +0.000 A 
ATOM      9  C   UNL     1       8.682  11.930  17.711  0.00  0.00    +0.000 A 
ATOM     10  C   UNL     1       9.522  12.210  18.784  0.00  0.00    +0.000 A 
ATOM     11  C   UNL     1       9.876  11.195  19.671  0.00  0.00    +0.000 A 
ATOM     12  C   UNL     1       9.398   9.895  19.485  0.00  0.00    +0.000 A 
ENDBRANCH   5   7
ENDBRANCH   1   2
BRANCH   1  13
ATOM     13  N   UNL     1       4.856   5.652  16.172  0.00  0.00    +0.000 N 
ATOM     14  H   UNL     1       4.263   6.365  15.750  0.00  0.00    +0.000 HD
BRANCH  13  18
ATOM     15  C   UNL     1       3.007   4.042  19.608  0.00  0.00    +0.000 A 
ATOM     16  C   UNL     1       3.697   3.205  18.745  0.00  0.00    +0.000 A 
ATOM     17  C   UNL     1       4.280   3.737  17.594  0.00  0.00    +0.000 A 
ATOM     18  C   UNL     1       4.246   5.110  17.304  0.00  0.00    +0.000 A 
ATOM     19  C   UNL     1       3.484   5.949  18.170  0.00  0.00    +0.000 A 
ATOM     20  C   UNL     1       3.267   7.419  17.875  0.00  0.00    +0.000 C 
ATOM     21  C   UNL     1       2.866   5.400  19.325  0.00  0.00    +0.000 A 
ATOM     22 CL   UNL     1       1.917   6.396  20.386  0.00  0.00    +0.000 Cl
BRANCH  15  24
ATOM     23  C   UNL     1       1.984   3.040  21.731  0.00  0.00    +0.000 C 
ATOM     24  N   UNL     1       2.465   3.483  20.758  0.00  0.00    +0.000 NA
ENDBRANCH  15  24
ENDBRANCH  13  18
ENDBRANCH   1  13
BRANCH   1  25
ATOM     25  C   UNL     1       7.104   4.818  15.470  0.00  0.00    +0.000 C 
BRANCH  25  26
ATOM     26  O   UNL     1       7.380   3.888  16.520  0.00  0.00    +0.000 OA
ATOM     27  H   UNL     1       7.805   4.419  17.224  0.00  0.00    +0.000 HD
ENDBRANCH  25  26
ENDBRANCH   1  25
TORSDOF 7
ENDMDL
MODEL 2
REMARK VINA RESULT:      -7.7      0.490      1.081
REMARK  Name = 
REMARK  8 active torsions:
REMARK  status: ('A' for Active; 'I' for Inactive)
REMARK    1  A    between atoms: N_2  and  C_3
REMARK    2  A    between atoms: C_6  and  N_7
REMARK    3  A    between atoms: N_7  and  CA_8
REMARK    4  A    between atoms: CA_8  and  C_9
REMARK    5  A    between atoms: CA_8  and  C_11
REMARK    6  A    between atoms: C_9  and  O_10
REMARK    7  A    between atoms: C_14  and  C_15
REMARK    8  A    between atoms: C_22  and  C_23
REMARK                            x       y       z     vdW  Elec       q    Type
REMARK                         _______ _______ _______ _____ _____    ______ ____
ROOT
ATOM      1  CA  UNL     1       6.288   5.990  16.070  0.00  0.00    +0.000 C 
ENDROOT
BRANCH   1   2
ATOM      2  C   UNL     1       7.048   6.682  17.159  0.00  0.00    +0.000 A 
ATOM      3  N   UNL     1       7.678   6.150  18.187  0.00  0.00    +0.000 NA
ATOM      4  N   UNL     1       8.339   7.174  18.815  0.00  0.00    +0.000 NA
ATOM      5  C   UNL     1       8.080   8.272  18.131  0.00  0.00    +0.000 A 
ATOM      6  O   UNL     1       7.249   8.038  17.059  0.00  0.00    +0.000 OA
BRANCH   5   7
ATOM      7  C   UNL     1       8.569   9.625  18.354  0.00  0.00    +0.000 A 
ATOM      8  C   UNL     1       9.376   9.879  19.476  0.00  0.00    +0.000 A 
ATOM      9  C   UNL     1       9.847  11.166  19.747  0.00  0.00    +0.000 A 
ATOM     10  C   UNL     1       9.518  12.217  18.897  0.00  0.00    +0.000 A 
ATOM     11  C   UNL     1       8.728  11.979  17.773  0.00  0.00    +0.000 A 
ATOM     12  C   UNL     1       8.259  10.691  17.499  0.00  0.00    +0.000 A 
ENDBRANCH   5   7
ENDBRANCH   1   2
BRANCH   1  13
ATOM     13  N   UNL     1       4.837   5.676  16.245  0.00  0.00    +0.000 N 
ATOM     14  H   UNL     1       4.272   6.448  15.895  0.00  0.00    +0.000 HD
BRANCH  13  18
ATOM     15  C   UNL     1       2.983   3.888  19.588  0.00  0.00    +0.000 A 
ATOM     16  C   UNL     1       3.723   3.106  18.715  0.00  0.00    +0.000 A 
ATOM     17  C   UNL     1       4.309   3.697  17.594  0.00  0.00    +0.000 A 
ATOM     18  C   UNL     1       4.227   5.076  17.345  0.00  0.00    +0.000 A 
ATOM     19  C   UNL     1       3.413   5.857  18.220  0.00  0.00    +0.000 A 
ATOM     20  C   UNL     1       3.145   7.326  17.965  0.00  0.00    +0.000 C 
ATOM     21  C   UNL     1       2.794   5.247  19.343  0.00  0.00    +0.000 A 
ATOM     22 CL   UNL     1       1.784   6.172  20.413  0.00  0.00    +0.000 Cl
BRANCH  15  24
ATOM     23  C   UNL     1       1.982   2.785  21.671  0.00  0.00    +0.000 C 
ATOM     24  N   UNL     1       2.440   3.272  20.707  0.00  0.00    +0.000 NA
ENDBRANCH  15  24
ENDBRANCH  13  18
ENDBRANCH   1  13
BRANCH   1  25
ATOM     25  C   UNL     1       7.060   4.734  15.599  0.00  0.00    +0.000 C 
BRANCH  25  26
ATOM     26  O   UNL     1       6.583   4.294  14.325  0.00  0.00    +0.000 OA
ATOM     27  H   UNL     1       5.691   3.931  14.501  0.00  0.00    +0.000 HD
ENDBRANCH  25  26
ENDBRANCH   1  25
TORSDOF 7
ENDMDL
MODEL 3
REMARK VINA RESULT:      -7.5      1.468      2.430
REMARK  Name = 
REMARK  8 active torsions:
REMARK  status: ('A' for Active; 'I' for Inactive)
REMARK    1  A    between atoms: N_2  and  C_3
REMARK    2  A    between atoms: C_6  and  N_7
REMARK    3  A    between atoms: N_7  and  CA_8
REMARK    4  A    between atoms: CA_8  and  C_9
REMARK    5  A    between atoms: CA_8  and  C_11
REMARK    6  A    between atoms: C_9  and  O_10
REMARK    7  A    between atoms: C_14  and  C_15
REMARK    8  A    between atoms: C_22  and  C_23
REMARK                            x       y       z     vdW  Elec       q    Type
REMARK                         _______ _______ _______ _____ _____    ______ ____
ROOT
ATOM      1  CA  UNL     1       6.116   6.083  16.236  0.00  0.00    +0.000 C 
ENDROOT
BRANCH   1   2
ATOM      2  C   UNL     1       6.969   6.762  17.263  0.00  0.00    +0.000 A 
ATOM      3  N   UNL     1       7.698   6.218  18.216  0.00  0.00    +0.000 NA
ATOM      4  N   UNL     1       8.406   7.237  18.798  0.00  0.00    +0.000 NA
ATOM      5  C   UNL     1       8.075   8.345  18.163  0.00  0.00    +0.000 A 
ATOM      6  O   UNL     1       7.149   8.122  17.168  0.00  0.00    +0.000 OA
BRANCH   5   7
ATOM      7  C   UNL     1       8.572   9.698  18.364  0.00  0.00    +0.000 A 
ATOM      8  C   UNL     1       9.406   9.959  19.464  0.00  0.00    +0.000 A 
ATOM      9  C   UNL     1       9.887  11.247  19.714  0.00  0.00    +0.000 A 
ATOM     10  C   UNL     1       9.539  12.292  18.864  0.00  0.00    +0.000 A 
ATOM     11  C   UNL     1       8.722  12.048  17.761  0.00  0.00    +0.000 A 
ATOM     12  C   UNL     1       8.244  10.759  17.508  0.00  0.00    +0.000 A 
ENDBRANCH   5   7
ENDBRANCH   1   2
BRANCH   1  13
ATOM     13  N   UNL     1       4.716   5.679  16.568  0.00  0.00    +0.000 N 
ATOM     14  H   UNL     1       4.188   5.524  15.711  0.00  0.00    +0.000 HD
BRANCH  13  18
ATOM     15  C   UNL     1       2.228   7.243  19.598  0.00  0.00    +0.000 A 
ATOM     16  C   UNL     1       2.630   8.058  18.551  0.00  0.00    +0.000 A 
ATOM     17  C   UNL     1       3.478   7.545  17.568  0.00  0.00    +0.000 A 
ATOM     18  C   UNL     1       3.895   6.205  17.565  0.00  0.00    +0.000 A 
ATOM     19  C   UNL     1       3.522   5.395  18.679  0.00  0.00    +0.000 A 
ATOM     20  C   UNL     1       4.031   3.978  18.845  0.00  0.00    +0.000 C 
ATOM     21  C   UNL     1       2.683   5.929  19.693  0.00  0.00    +0.000 A 
ATOM     22 CL   UNL     1       2.228   4.969  21.068  0.00  0.00    +0.000 Cl
BRANCH  15  24
ATOM     23  C   UNL     1       0.618   8.196  21.345  0.00  0.00    +0.000 C 
ATOM     24  N   UNL     1       1.361   7.778  20.540  0.00  0.00    +0.000 NA
ENDBRANCH  15  24
ENDBRANCH  13  18
ENDBRANCH   1  13
BRANCH   1  25
ATOM     25  C   UNL     1       6.886   4.897  15.606  0.00  0.00    +0.000 C 
BRANCH  25  26
ATOM     26  O   UNL     1       7.605   5.320  14.445  0.00  0.00    +0.000 OA
ATOM     27  H   UNL     1       7.312   4.715  13.732  0.00  0.00    +0.000 HD
ENDBRANCH  25  26
ENDBRANCH   1  25
TORSDOF 7
ENDMDL
MODEL 4
REMARK VINA RESULT:      -7.4      1.749      1.974
REMARK  Name = 
REMARK  8 active torsions:
REMARK  status: ('A' for Active; 'I' for Inactive)
REMARK    1  A    between atoms: N_2  and  C_3
REMARK    2  A    between atoms: C_6  and  N_7
REMARK    3  A    between atoms: N_7  and  CA_8
REMARK    4  A    between atoms: CA_8  and  C_9
REMARK    5  A    between atoms: CA_8  and  C_11
REMARK    6  A    between atoms: C_9  and  O_10
REMARK    7  A    between atoms: C_14  and  C_15
REMARK    8  A    between atoms: C_22  and  C_23
REMARK                            x       y       z     vdW  Elec       q    Type
REMARK                         _______ _______ _______ _____ _____    ______ ____
ROOT
ATOM      1  CA  UNL     1       7.384   5.776  18.402  0.00  0.00    +0.000 C 
ENDROOT
BRANCH   1   2
ATOM      2  C   UNL     1       7.684   7.191  18.015  0.00  0.00    +0.000 A 
ATOM      3  N   UNL     1       7.123   7.921  17.072  0.00  0.00    +0.000 NA
ATOM      4  N   UNL     1       7.631   9.188  17.202  0.00  0.00    +0.000 NA
ATOM      5  C   UNL     1       8.468   9.161  18.222  0.00  0.00    +0.000 A 
ATOM      6  O   UNL     1       8.562   7.911  18.790  0.00  0.00    +0.000 OA
BRANCH   5   7
ATOM      7  C   UNL     1       9.239  10.252  18.800  0.00  0.00    +0.000 A 
ATOM      8  C   UNL     1       9.991  11.079  17.949  0.00  0.00    +0.000 A 
ATOM      9  C   UNL     1      10.767  12.122  18.460  0.00  0.00    +0.000 A 
ATOM     10  C   UNL     1      10.801  12.351  19.832  0.00  0.00    +0.000 A 
ATOM     11  C   UNL     1      10.052  11.546  20.689  0.00  0.00    +0.000 A 
ATOM     12  C   UNL     1       9.271  10.506  20.179  0.00  0.00    +0.000 A 
ENDBRANCH   5   7
ENDBRANCH   1   2
BRANCH   1  13
ATOM     13  N   UNL     1       6.132   5.113  17.926  0.00  0.00    +0.000 N 
ATOM     14  H   UNL     1       5.753   5.622  17.129  0.00  0.00    +0.000 HD
BRANCH  13  18
ATOM     15  C   UNL     1       3.013   3.534  20.290  0.00  0.00    +0.000 A 
ATOM     16  C   UNL     1       4.063   2.715  19.906  0.00  0.00    +0.000 A 
ATOM     17  C   UNL     1       5.077   3.234  19.098  0.00  0.00    +0.000 A 
ATOM     18  C   UNL     1       5.105   4.581  18.706  0.00  0.00    +0.000 A 
ATOM     19  C   UNL     1       3.988   5.396  19.060  0.00  0.00    +0.000 A 
ATOM     20  C   UNL     1       3.851   6.824  18.572  0.00  0.00    +0.000 C 
ATOM     21  C   UNL     1       2.944   4.857  19.857  0.00  0.00    +0.000 A 
ATOM     22 CL   UNL     1       1.564   5.822  20.287  0.00  0.00    +0.000 Cl
BRANCH  15  24
ATOM     23  C   UNL     1       1.220   2.563  21.839  0.00  0.00    +0.000 C 
ATOM     24  N   UNL     1       2.039   2.992  21.118  0.00  0.00    +0.000 NA
ENDBRANCH  15  24
ENDBRANCH  13  18
ENDBRANCH   1  13
BRANCH   1  25
ATOM     25  C   UNL     1       7.542   5.598  19.931  0.00  0.00    +0.000 C 
BRANCH  25  26
ATOM     26  O   UNL     1       8.861   5.151  20.255  0.00  0.00    +0.000 OA
ATOM     27  H   UNL     1       8.825   4.176  20.171  0.00  0.00    +0.000 HD
ENDBRANCH  25  26
ENDBRANCH   1  25
TORSDOF 7
ENDMDL
MODEL 5
REMARK VINA RESULT:      -7.4      1.339      2.117
REMARK  Name = 
REMARK  8 active torsions:
REMARK  status: ('A' for Active; 'I' for Inactive)
REMARK    1  A    between atoms: N_2  and  C_3
REMARK    2  A    between atoms: C_6  and  N_7
REMARK    3  A    between atoms: N_7  and  CA_8
REMARK    4  A    between atoms: CA_8  and  C_9
REMARK    5  A    between atoms: CA_8  and  C_11
REMARK    6  A    between atoms: C_9  and  O_10
REMARK    7  A    between atoms: C_14  and  C_15
REMARK    8  A    between atoms: C_22  and  C_23
REMARK                            x       y       z     vdW  Elec       q    Type
REMARK                         _______ _______ _______ _____ _____    ______ ____
ROOT
ATOM      1  CA  UNL     1       6.281   6.085  16.292  0.00  0.00    +0.000 C 
ENDROOT
BRANCH   1   2
ATOM      2  C   UNL     1       7.095   6.795  17.331  0.00  0.00    +0.000 A 
ATOM      3  N   UNL     1       7.781   6.279  18.330  0.00  0.00    +0.000 NA
ATOM      4  N   UNL     1       8.470   7.314  18.908  0.00  0.00    +0.000 NA
ATOM      5  C   UNL     1       8.170   8.402  18.225  0.00  0.00    +0.000 A 
ATOM      6  O   UNL     1       7.285   8.150  17.201  0.00  0.00    +0.000 OA
BRANCH   5   7
ATOM      7  C   UNL     1       8.665   9.759  18.403  0.00  0.00    +0.000 A 
ATOM      8  C   UNL     1       8.204  10.769  17.542  0.00  0.00    +0.000 A 
ATOM      9  C   UNL     1       8.670  12.081  17.656  0.00  0.00    +0.000 A 
ATOM     10  C   UNL     1       9.604  12.400  18.637  0.00  0.00    +0.000 A 
ATOM     11  C   UNL     1      10.063  11.412  19.507  0.00  0.00    +0.000 A 
ATOM     12  C   UNL     1       9.594  10.100  19.396  0.00  0.00    +0.000 A 
ENDBRANCH   5   7
ENDBRANCH   1   2
BRANCH   1  13
ATOM     13  N   UNL     1       4.902   5.606  16.613  0.00  0.00    +0.000 N 
ATOM     14  H   UNL     1       4.395   5.410  15.752  0.00  0.00    +0.000 HD
BRANCH  13  18
ATOM     15  C   UNL     1       2.291   7.067  19.590  0.00  0.00    +0.000 A 
ATOM     16  C   UNL     1       2.651   7.887  18.532  0.00  0.00    +0.000 A 
ATOM     17  C   UNL     1       3.539   7.410  17.566  0.00  0.00    +0.000 A 
ATOM     18  C   UNL     1       4.040   6.099  17.593  0.00  0.00    +0.000 A 
ATOM     19  C   UNL     1       3.707   5.287  18.719  0.00  0.00    +0.000 A 
ATOM     20  C   UNL     1       4.303   3.908  18.916  0.00  0.00    +0.000 C 
ATOM     21  C   UNL     1       2.827   5.786  19.715  0.00  0.00    +0.000 A 
ATOM     22 CL   UNL     1       2.420   4.825  21.104  0.00  0.00    +0.000 Cl
BRANCH  15  24
ATOM     23  C   UNL     1       0.589   7.968  21.277  0.00  0.00    +0.000 C 
ATOM     24  N   UNL     1       1.383   7.564  20.515  0.00  0.00    +0.000 NA
ENDBRANCH  15  24
ENDBRANCH  13  18
ENDBRANCH   1  13
BRANCH   1  25
ATOM     25  C   UNL     1       7.113   4.948  15.651  0.00  0.00    +0.000 C 
BRANCH  25  26
ATOM     26  O   UNL     1       7.658   4.090  16.657  0.00  0.00    +0.000 OA
ATOM     27  H   UNL     1       7.672   3.200  16.249  0.00  0.00    +0.000 HD
ENDBRANCH  25  26
ENDBRANCH   1  25
TORSDOF 7
ENDMDL
MODEL 6
REMARK VINA RESULT:      -7.3      5.474      8.506
REMARK  Name = 
REMARK  8 active torsions:
REMARK  status: ('A' for Active; 'I' for Inactive)
REMARK    1  A    between atoms: N_2  and  C_3
REMARK    2  A    between atoms: C_6  and  N_7
REMARK    3  A    between atoms: N_7  and  CA_8
REMARK    4  A    between atoms: CA_8  and  C_9
REMARK    5  A    between atoms: CA_8  and  C_11
REMARK    6  A    between atoms: C_9  and  O_10
REMARK    7  A    between atoms: C_14  and  C_15
REMARK    8  A    between atoms: C_22  and  C_23
REMARK                            x       y       z     vdW  Elec       q    Type
REMARK                         _______ _______ _______ _____ _____    ______ ____
ROOT
ATOM      1  CA  UNL     1       1.314   9.064  21.278  0.00  0.00    +0.000 C 
ENDROOT
BRANCH   1   2
ATOM      2  C   UNL     1       0.677  10.048  20.346  0.00  0.00    +0.000 A 
ATOM      3  N   UNL     1       1.187  11.157  19.850  0.00  0.00    +0.000 NA
ATOM      4  N   UNL     1       0.279  11.632  18.938  0.00  0.00    +0.000 NA
ATOM      5  C   UNL     1      -0.730  10.782  18.926  0.00  0.00    +0.000 A 
ATOM      6  O   UNL     1      -0.552   9.743  19.811  0.00  0.00    +0.000 OA
BRANCH   5   7
ATOM      7  C   UNL     1      -1.933  10.803  18.106  0.00  0.00    +0.000 A 
ATOM      8  C   UNL     1      -1.964  10.040  16.926  0.00  0.00    +0.000 A 
ATOM      9  C   UNL     1      -3.085  10.049  16.092  0.00  0.00    +0.000 A 
ATOM     10  C   UNL     1      -4.192  10.822  16.429  0.00  0.00    +0.000 A 
ATOM     11  C   UNL     1      -4.181  11.575  17.602  0.00  0.00    +0.000 A 
ATOM     12  C   UNL     1      -3.062  11.564  18.439  0.00  0.00    +0.000 A 
ENDBRANCH   5   7
ENDBRANCH   1   2
BRANCH   1  13
ATOM     13  N   UNL     1       1.428   7.625  20.891  0.00  0.00    +0.000 N 
ATOM     14  H   UNL     1       1.488   7.046  21.727  0.00  0.00    +0.000 HD
BRANCH  13  18
ATOM     15  C   UNL     1       3.749   5.958  17.785  0.00  0.00    +0.000 A 
ATOM     16  C   UNL     1       3.331   7.277  17.696  0.00  0.00    +0.000 A 
ATOM     17  C   UNL     1       2.538   7.814  18.711  0.00  0.00    +0.000 A 
ATOM     18  C   UNL     1       2.193   7.083  19.858  0.00  0.00    +0.000 A 
ATOM     19  C   UNL     1       2.581   5.710  19.908  0.00  0.00    +0.000 A 
ATOM     20  C   UNL     1       2.145   4.794  21.033  0.00  0.00    +0.000 C 
ATOM     21  C   UNL     1       3.363   5.158  18.859  0.00  0.00    +0.000 A 
ATOM     22 CL   UNL     1       3.833   3.485  18.885  0.00  0.00    +0.000 Cl
BRANCH  15  24
ATOM     23  C   UNL     1       5.272   5.076  15.925  0.00  0.00    +0.000 C 
ATOM     24  N   UNL     1       4.560   5.466  16.771  0.00  0.00    +0.000 NA
ENDBRANCH  15  24
ENDBRANCH  13  18
ENDBRANCH   1  13
BRANCH   1  25
ATOM     25  C   UNL     1       0.699   9.197  22.692  0.00  0.00    +0.000 C 
BRANCH  25  26
ATOM     26  O   UNL     1       0.135  10.497  22.879  0.00  0.00    +0.000 OA
ATOM     27  H   UNL     1       0.478  10.799  23.745  0.00  0.00    +0.000 HD
ENDBRANCH  25  26
ENDBRANCH   1  25
TORSDOF 7
ENDMDL
MODEL 7
REMARK VINA RESULT:      -7.3      4.435      6.732
REMARK  Name = 
REMARK  8 active torsions:
REMARK  status: ('A' for Active; 'I' for Inactive)
REMARK    1  A    between atoms: N_2  and  C_3
REMARK    2  A    between atoms: C_6  and  N_7
REMARK    3  A    between atoms: N_7  and  CA_8
REMARK    4  A    between atoms: CA_8  and  C_9
REMARK    5  A    between atoms: CA_8  and  C_11
REMARK    6  A    between atoms: C_9  and  O_10
REMARK    7  A    between atoms: C_14  and  C_15
REMARK    8  A    between atoms: C_22  and  C_23
REMARK                            x       y       z     vdW  Elec       q    Type
REMARK                         _______ _______ _______ _____ _____    ______ ____
ROOT
ATOM      1  CA  UNL     1       1.690   4.796  20.257  0.00  0.00    +0.000 C 
ENDROOT
BRANCH   1   2
ATOM      2  C   UNL     1       2.210   4.270  18.954  0.00  0.00    +0.000 A 
ATOM      3  N   UNL     1       1.560   3.616  18.014  0.00  0.00    +0.000 NA
ATOM      4  N   UNL     1       2.426   3.481  16.960  0.00  0.00    +0.000 NA
ATOM      5  C   UNL     1       3.554   4.067  17.314  0.00  0.00    +0.000 A 
ATOM      6  O   UNL     1       3.496   4.590  18.586  0.00  0.00    +0.000 OA
BRANCH   5   7
ATOM      7  C   UNL     1       4.776   4.239  16.542  0.00  0.00    +0.000 A 
ATOM      8  C   UNL     1       5.983   4.472  17.223  0.00  0.00    +0.000 A 
ATOM      9  C   UNL     1       7.177   4.670  16.526  0.00  0.00    +0.000 A 
ATOM     10  C   UNL     1       7.179   4.636  15.135  0.00  0.00    +0.000 A 
ATOM     11  C   UNL     1       5.992   4.395  14.444  0.00  0.00    +0.000 A 
ATOM     12  C   UNL     1       4.798   4.192  15.141  0.00  0.00    +0.000 A 
ENDBRANCH   5   7
ENDBRANCH   1   2
BRANCH   1  13
ATOM     13  N   UNL     1       2.146   6.124  20.769  0.00  0.00    +0.000 N 
ATOM     14  H   UNL     1       2.534   6.019  21.705  0.00  0.00    +0.000 HD
BRANCH  13  18
ATOM     15  C   UNL     1       0.203   9.848  20.350  0.00  0.00    +0.000 A 
ATOM     16  C   UNL     1      -0.119   9.023  21.417  0.00  0.00    +0.000 A 
ATOM     17  C   UNL     1       0.504   7.779  21.534  0.00  0.00    +0.000 A 
ATOM     18  C   UNL     1       1.497   7.352  20.639  0.00  0.00    +0.000 A 
ATOM     19  C   UNL     1       1.775   8.186  19.515  0.00  0.00    +0.000 A 
ATOM     20  C   UNL     1       2.728   7.758  18.416  0.00  0.00    +0.000 C 
ATOM     21  C   UNL     1       1.119   9.438  19.382  0.00  0.00    +0.000 A 
ATOM     22 CL   UNL     1       1.426  10.463  18.014  0.00  0.00    +0.000 Cl
BRANCH  15  24
ATOM     23  C   UNL     1      -0.952  12.131  20.258  0.00  0.00    +0.000 C 
ATOM     24  N   UNL     1      -0.414  11.089  20.283  0.00  0.00    +0.000 NA
ENDBRANCH  15  24
ENDBRANCH  13  18
ENDBRANCH   1  13
BRANCH   1  25
ATOM     25  C   UNL     1       1.824   3.717  21.357  0.00  0.00    +0.000 C 
BRANCH  25  26
ATOM     26  O   UNL     1       2.679   2.656  20.925  0.00  0.00    +0.000 OA
ATOM     27  H   UNL     1       3.139   3.008  20.135  0.00  0.00    +0.000 HD
ENDBRANCH  25  26
ENDBRANCH   1  25
TORSDOF 7
ENDMDL
MODEL 8
REMARK VINA RESULT:      -7.3      2.733      6.089
REMARK  Name = 
REMARK  8 active torsions:
REMARK  status: ('A' for Active; 'I' for Inactive)
REMARK    1  A    between atoms: N_2  and  C_3
REMARK    2  A    between atoms: C_6  and  N_7
REMARK    3  A    between atoms: N_7  and  CA_8
REMARK    4  A    between atoms: CA_8  and  C_9
REMARK    5  A    between atoms: CA_8  and  C_11
REMARK    6  A    between atoms: C_9  and  O_10
REMARK    7  A    between atoms: C_14  and  C_15
REMARK    8  A    between atoms: C_22  and  C_23
REMARK                            x       y       z     vdW  Elec       q    Type
REMARK                         _______ _______ _______ _____ _____    ______ ____
ROOT
ATOM      1  CA  UNL     1       6.538   5.531  17.102  0.00  0.00    +0.000 C 
ENDROOT
BRANCH   1   2
ATOM      2  C   UNL     1       6.811   5.307  15.646  0.00  0.00    +0.000 A 
ATOM      3  N   UNL     1       7.840   5.713  14.931  0.00  0.00    +0.000 NA
ATOM      4  N   UNL     1       7.710   5.137  13.694  0.00  0.00    +0.000 NA
ATOM      5  C   UNL     1       6.611   4.407  13.726  0.00  0.00    +0.000 A 
ATOM      6  O   UNL     1       5.974   4.472  14.944  0.00  0.00    +0.000 OA
BRANCH   5   7
ATOM      7  C   UNL     1       6.044   3.562  12.684  0.00  0.00    +0.000 A 
ATOM      8  C   UNL     1       4.726   3.798  12.261  0.00  0.00    +0.000 A 
ATOM      9  C   UNL     1       4.129   2.997  11.284  0.00  0.00    +0.000 A 
ATOM     10  C   UNL     1       4.846   1.949  10.716  0.00  0.00    +0.000 A 
ATOM     11  C   UNL     1       6.159   1.709  11.117  0.00  0.00    +0.000 A 
ATOM     12  C   UNL     1       6.759   2.512  12.092  0.00  0.00    +0.000 A 
ENDBRANCH   5   7
ENDBRANCH   1   2
BRANCH   1  13
ATOM     13  N   UNL     1       5.155   5.851  17.569  0.00  0.00    +0.000 N 
ATOM     14  H   UNL     1       5.070   6.853  17.736  0.00  0.00    +0.000 HD
BRANCH  13  18
ATOM     15  C   UNL     1       2.789   3.699  20.322  0.00  0.00    +0.000 A 
ATOM     16  C   UNL     1       3.880   3.085  19.729  0.00  0.00    +0.000 A 
ATOM     17  C   UNL     1       4.641   3.790  18.796  0.00  0.00    +0.000 A 
ATOM     18  C   UNL     1       4.378   5.131  18.476  0.00  0.00    +0.000 A 
ATOM     19  C   UNL     1       3.218   5.731  19.050  0.00  0.00    +0.000 A 
ATOM     20  C   UNL     1       2.764   7.125  18.667  0.00  0.00    +0.000 C 
ATOM     21  C   UNL     1       2.428   5.001  19.977  0.00  0.00    +0.000 A 
ATOM     22 CL   UNL     1       1.000   5.702  20.676  0.00  0.00    +0.000 Cl
BRANCH  15  24
ATOM     23  C   UNL     1       1.438   2.387  22.057  0.00  0.00    +0.000 C 
ATOM     24  N   UNL     1       2.073   2.977  21.268  0.00  0.00    +0.000 NA
ENDBRANCH  15  24
ENDBRANCH  13  18
ENDBRANCH   1  13
BRANCH   1  25
ATOM     25  C   UNL     1       7.553   6.545  17.682  0.00  0.00    +0.000 C 
BRANCH  25  26
ATOM     26  O   UNL     1       7.497   7.782  16.969  0.00  0.00    +0.000 OA
ATOM     27  H   UNL     1       6.556   7.887  16.718  0.00  0.00    +0.000 HD
ENDBRANCH  25  26
ENDBRANCH   1  25
TORSDOF 7
ENDMDL
MODEL 9
REMARK VINA RESULT:      -7.2      4.223      6.732
REMARK  Name = 
REMARK  8 active torsions:
REMARK  status: ('A' for Active; 'I' for Inactive)
REMARK    1  A    between atoms: N_2  and  C_3
REMARK    2  A    between atoms: C_6  and  N_7
REMARK    3  A    between atoms: N_7  and  CA_8
REMARK    4  A    between atoms: CA_8  and  C_9
REMARK    5  A    between atoms: CA_8  and  C_11
REMARK    6  A    between atoms: C_9  and  O_10
REMARK    7  A    between atoms: C_14  and  C_15
REMARK    8  A    between atoms: C_22  and  C_23
REMARK                            x       y       z     vdW  Elec       q    Type
REMARK                         _______ _______ _______ _____ _____    ______ ____
ROOT
ATOM      1  CA  UNL     1       1.663   4.974  20.106  0.00  0.00    +0.000 C 
ENDROOT
BRANCH   1   2
ATOM      2  C   UNL     1       2.252   4.405  18.852  0.00  0.00    +0.000 A 
ATOM      3  N   UNL     1       1.688   3.607  17.968  0.00  0.00    +0.000 NA
ATOM      4  N   UNL     1       2.574   3.484  16.929  0.00  0.00    +0.000 NA
ATOM      5  C   UNL     1       3.626   4.219  17.235  0.00  0.00    +0.000 A 
ATOM      6  O   UNL     1       3.498   4.835  18.459  0.00  0.00    +0.000 OA
BRANCH   5   7
ATOM      7  C   UNL     1       4.829   4.463  16.452  0.00  0.00    +0.000 A 
ATOM      8  C   UNL     1       4.977   3.818  15.213  0.00  0.00    +0.000 A 
ATOM      9  C   UNL     1       6.125   3.999  14.439  0.00  0.00    +0.000 A 
ATOM     10  C   UNL     1       7.143   4.830  14.895  0.00  0.00    +0.000 A 
ATOM     11  C   UNL     1       7.008   5.486  16.118  0.00  0.00    +0.000 A 
ATOM     12  C   UNL     1       5.857   5.309  16.891  0.00  0.00    +0.000 A 
ENDBRANCH   5   7
ENDBRANCH   1   2
BRANCH   1  13
ATOM     13  N   UNL     1       2.146   6.286  20.637  0.00  0.00    +0.000 N 
ATOM     14  H   UNL     1       2.638   6.142  21.517  0.00  0.00    +0.000 HD
BRANCH  13  18
ATOM     15  C   UNL     1       0.091   9.973  20.639  0.00  0.00    +0.000 A 
ATOM     16  C   UNL     1      -0.123   9.068  21.667  0.00  0.00    +0.000 A 
ATOM     17  C   UNL     1       0.535   7.837  21.646  0.00  0.00    +0.000 A 
ATOM     18  C   UNL     1       1.460   7.500  20.646  0.00  0.00    +0.000 A 
ATOM     19  C   UNL     1       1.626   8.417  19.565  0.00  0.00    +0.000 A 
ATOM     20  C   UNL     1       2.494   8.093  18.366  0.00  0.00    +0.000 C 
ATOM     21  C   UNL     1       0.933   9.656  19.574  0.00  0.00    +0.000 A 
ATOM     22 CL   UNL     1       1.103  10.781  18.261  0.00  0.00    +0.000 Cl
BRANCH  15  24
ATOM     23  C   UNL     1      -1.119  12.223  20.802  0.00  0.00    +0.000 C 
ATOM     24  N   UNL     1      -0.558  11.198  20.710  0.00  0.00    +0.000 NA
ENDBRANCH  15  24
ENDBRANCH  13  18
ENDBRANCH   1  13
BRANCH   1  25
ATOM     25  C   UNL     1       1.661   3.905  21.225  0.00  0.00    +0.000 C 
BRANCH  25  26
ATOM     26  O   UNL     1       0.732   2.861  20.926  0.00  0.00    +0.000 OA
ATOM     27  H   UNL     1       0.742   2.785  19.950  0.00  0.00    +0.000 HD
ENDBRANCH  25  26
ENDBRANCH   1  25
TORSDOF 7
ENDMDL
