MODEL 1
REMARK VINA RESULT:      -8.1      0.000      0.000
REMARK  Name = 
REMARK  9 active torsions:
REMARK  status: ('A' for Active; 'I' for Inactive)
REMARK    1  A    between atoms: C_1  and  O_2
REMARK    2  A    between atoms: O_2  and  C_3
REMARK    3  A    between atoms: C_3  and  C_4
REMARK    4  A    between atoms: C_4  and  C_5
REMARK    5  A    between atoms: C_11  and  C_13
REMARK    6  A    between atoms: C_13  and  C_14
REMARK    7  A    between atoms: C_14  and  C_15
REMARK    8  A    between atoms: C_18  and  C_19
REMARK    9  A    between atoms: N_30  and  C_31
REMARK                            x       y       z     vdW  Elec       q    Type
REMARK                         _______ _______ _______ _____ _____    ______ ____
ROOT
ATOM      1  C   UNL     1       6.421   5.569  17.175  0.00  0.00    +0.000 C 
ATOM      2  C   UNL     1       5.203   6.015  16.329  0.00  0.00    +0.000 C 
ATOM      3  C   UNL     1       5.430   5.441  14.961  0.00  0.00    +0.000 C 
ATOM      4  O   UNL     1       4.651   5.593  14.029  0.00  0.00    +0.000 OA
ATOM      5  N   UNL     1       6.622   4.772  14.943  0.00  0.00    +0.000 N 
ATOM      6  C   UNL     1       7.209   4.711  16.181  0.00  0.00    +0.000 C 
ATOM      7  O   UNL     1       8.192   4.038  16.480  0.00  0.00    +0.000 OA
ENDROOT
BRANCH   1   8
ATOM      8  C   UNL     1       7.201   6.796  17.692  0.00  0.00    +0.000 A 
ATOM      9  C   UNL     1       8.079   6.729  18.780  0.00  0.00    +0.000 A 
ATOM     10  C   UNL     1       8.768   7.866  19.233  0.00  0.00    +0.000 A 
ATOM     11  C   UNL     1       8.622   9.120  18.618  0.00  0.00    +0.000 A 
ATOM     12  C   UNL     1       7.734   9.185  17.535  0.00  0.00    +0.000 A 
ATOM     13  C   UNL     1       7.021   8.059  17.100  0.00  0.00    +0.000 A 
BRANCH  11  14
ATOM     14  C   UNL     1       9.356  10.316  19.101  0.00  0.00    +0.000 A 
ATOM     15  C   UNL     1      10.106  11.122  18.226  0.00  0.00    +0.000 A 
ATOM     16  C   UNL     1      10.827  12.231  18.684  0.00  0.00    +0.000 A 
ATOM     17  C   UNL     1      10.800  12.571  20.032  0.00  0.00    +0.000 A 
ATOM     18  C   UNL     1      10.054  11.804  20.919  0.00  0.00    +0.000 A 
ATOM     19  C   UNL     1       9.345  10.688  20.459  0.00  0.00    +0.000 A 
ENDBRANCH  11  14
ENDBRANCH   1   8
BRANCH   5  20
ATOM     20  C   UNL     1       7.035   3.955  13.843  0.00  0.00    +0.000 C 
ATOM     21  C   UNL     1       6.116   3.637  12.692  0.00  0.00    +0.000 C 
ATOM     22  C   UNL     1       7.288   4.545  12.479  0.00  0.00    +0.000 C 
ENDBRANCH   5  20
BRANCH   1  23
ATOM     23  C   UNL     1       6.056   4.659  18.393  0.00  0.00    +0.000 C 
BRANCH  23  30
ATOM     24  C   UNL     1       2.208   4.757  19.169  0.00  0.00    +0.000 C 
ATOM     25  C   UNL     1       1.462   3.504  19.679  0.00  0.00    +0.000 C 
ATOM     26  C   UNL     1       1.441   2.377  18.656  0.00  0.00    +0.000 C 
ATOM     27  C   UNL     1       2.851   2.050  18.183  0.00  0.00    +0.000 C 
ATOM     28  C   UNL     1       3.550   3.298  17.658  0.00  0.00    +0.000 C 
ATOM     29  N   UNL     1       3.568   4.358  18.677  0.00  0.00    +0.000 N 
ATOM     30  C   UNL     1       4.728   5.022  19.051  0.00  0.00    +0.000 C 
ATOM     31  O   UNL     1       4.731   5.885  19.930  0.00  0.00    +0.000 OA
BRANCH  24  32
ATOM     32  C   UNL     1       2.124   5.889  20.225  0.00  0.00    +0.000 C 
BRANCH  32  33
ATOM     33  C   UNL     1       1.831   7.262  19.624  0.00  0.00    +0.000 C 
BRANCH  33  35
ATOM     34  C   UNL     1       2.460   8.588  17.793  0.00  0.00    +0.000 C 
ATOM     35  O   UNL     1       2.176   7.267  18.239  0.00  0.00    +0.000 OA
ENDBRANCH  33  35
ENDBRANCH  32  33
ENDBRANCH  24  32
ENDBRANCH  23  30
ENDBRANCH   1  23
TORSDOF 8
ENDMDL
MODEL 2
REMARK VINA RESULT:      -8.0      0.049      1.146
REMARK  Name = 
REMARK  9 active torsions:
REMARK  status: ('A' for Active; 'I' for Inactive)
REMARK    1  A    between atoms: C_1  and  O_2
REMARK    2  A    between atoms: O_2  and  C_3
REMARK    3  A    between atoms: C_3  and  C_4
REMARK    4  A    between atoms: C_4  and  C_5
REMARK    5  A    between atoms: C_11  and  C_13
REMARK    6  A    between atoms: C_13  and  C_14
REMARK    7  A    between atoms: C_14  and  C_15
REMARK    8  A    between atoms: C_18  and  C_19
REMARK    9  A    between atoms: N_30  and  C_31
REMARK                            x       y       z     vdW  Elec       q    Type
REMARK                         _______ _______ _______ _____ _____    ______ ____
ROOT
ATOM      1  C   UNL     1       6.395   5.593  17.178  0.00  0.00    +0.000 C 
ATOM      2  C   UNL     1       5.165   6.007  16.333  0.00  0.00    +0.000 C 
ATOM      3  C   UNL     1       5.393   5.413  14.973  0.00  0.00    +0.000 C 
ATOM      4  O   UNL     1       4.604   5.538  14.045  0.00  0.00    +0.000 OA
ATOM      5  N   UNL     1       6.593   4.761  14.959  0.00  0.00    +0.000 N 
ATOM      6  C   UNL     1       7.190   4.729  16.193  0.00  0.00    +0.000 C 
ATOM      7  O   UNL     1       8.184   4.076  16.498  0.00  0.00    +0.000 OA
ENDROOT
BRANCH   1   8
ATOM      8  C   UNL     1       7.162   6.840  17.669  0.00  0.00    +0.000 A 
ATOM      9  C   UNL     1       7.033   8.094  17.061  0.00  0.00    +0.000 A 
ATOM     10  C   UNL     1       7.751   9.208  17.526  0.00  0.00    +0.000 A 
ATOM     11  C   UNL     1       8.624   9.126  18.624  0.00  0.00    +0.000 A 
ATOM     12  C   UNL     1       8.758   7.866  19.223  0.00  0.00    +0.000 A 
ATOM     13  C   UNL     1       8.067   6.745  18.742  0.00  0.00    +0.000 A 
BRANCH  11  14
ATOM     14  C   UNL     1       9.378  10.308  19.109  0.00  0.00    +0.000 A 
ATOM     15  C   UNL     1       9.398  10.658  20.472  0.00  0.00    +0.000 A 
ATOM     16  C   UNL     1      10.079  11.792  20.929  0.00  0.00    +0.000 A 
ATOM     17  C   UNL     1      10.774  12.596  20.033  0.00  0.00    +0.000 A 
ATOM     18  C   UNL     1      10.788  12.267  18.683  0.00  0.00    +0.000 A 
ATOM     19  C   UNL     1      10.093  11.140  18.228  0.00  0.00    +0.000 A 
ENDBRANCH  11  14
ENDBRANCH   1   8
BRANCH   5  20
ATOM     20  C   UNL     1       7.011   3.932  13.870  0.00  0.00    +0.000 C 
ATOM     21  C   UNL     1       6.141   3.697  12.662  0.00  0.00    +0.000 C 
ATOM     22  C   UNL     1       7.386   4.520  12.534  0.00  0.00    +0.000 C 
ENDBRANCH   5  20
BRANCH   1  23
ATOM     23  C   UNL     1       6.052   4.699  18.414  0.00  0.00    +0.000 C 
BRANCH  23  30
ATOM     24  C   UNL     1       2.202   4.767  19.183  0.00  0.00    +0.000 C 
ATOM     25  C   UNL     1       1.464   3.507  19.687  0.00  0.00    +0.000 C 
ATOM     26  C   UNL     1       1.452   2.385  18.659  0.00  0.00    +0.000 C 
ATOM     27  C   UNL     1       2.865   2.069  18.187  0.00  0.00    +0.000 C 
ATOM     28  C   UNL     1       3.557   3.324  17.668  0.00  0.00    +0.000 C 
ATOM     29  N   UNL     1       3.565   4.379  18.692  0.00  0.00    +0.000 N 
ATOM     30  C   UNL     1       4.720   5.050  19.071  0.00  0.00    +0.000 C 
ATOM     31  O   UNL     1       4.716   5.910  19.954  0.00  0.00    +0.000 OA
BRANCH  24  32
ATOM     32  C   UNL     1       2.108   5.894  20.244  0.00  0.00    +0.000 C 
BRANCH  32  33
ATOM     33  C   UNL     1       1.847   7.275  19.645  0.00  0.00    +0.000 C 
BRANCH  33  35
ATOM     34  C   UNL     1       2.328   8.577  17.752  0.00  0.00    +0.000 C 
ATOM     35  O   UNL     1       2.135   7.257  18.247  0.00  0.00    +0.000 OA
ENDBRANCH  33  35
ENDBRANCH  32  33
ENDBRANCH  24  32
ENDBRANCH  23  30
ENDBRANCH   1  23
TORSDOF 8
ENDMDL
MODEL 3
REMARK VINA RESULT:      -7.9      0.589      1.040
REMARK  Name = 
REMARK  9 active torsions:
REMARK  status: ('A' for Active; 'I' for Inactive)
REMARK    1  A    between atoms: C_1  and  O_2
REMARK    2  A    between atoms: O_2  and  C_3
REMARK    3  A    between atoms: C_3  and  C_4
REMARK    4  A    between atoms: C_4  and  C_5
REMARK    5  A    between atoms: C_11  and  C_13
REMARK    6  A    between atoms: C_13  and  C_14
REMARK    7  A    between atoms: C_14  and  C_15
REMARK    8  A    between atoms: C_18  and  C_19
REMARK    9  A    between atoms: N_30  and  C_31
REMARK                            x       y       z     vdW  Elec       q    Type
REMARK                         _______ _______ _______ _____ _____    ______ ____
ROOT
ATOM      1  C   UNL     1       6.438   5.593  17.245  0.00  0.00    +0.000 C 
ATOM      2  C   UNL     1       5.209   6.030  16.410  0.00  0.00    +0.000 C 
ATOM      3  C   UNL     1       5.422   5.444  15.044  0.00  0.00    +0.000 C 
ATOM      4  O   UNL     1       4.630   5.587  14.122  0.00  0.00    +0.000 OA
ATOM      5  N   UNL     1       6.614   4.777  15.019  0.00  0.00    +0.000 N 
ATOM      6  C   UNL     1       7.216   4.727  16.250  0.00  0.00    +0.000 C 
ATOM      7  O   UNL     1       8.203   4.059  16.543  0.00  0.00    +0.000 OA
ENDROOT
BRANCH   1   8
ATOM      8  C   UNL     1       7.223   6.826  17.742  0.00  0.00    +0.000 A 
ATOM      9  C   UNL     1       8.104   6.774  18.829  0.00  0.00    +0.000 A 
ATOM     10  C   UNL     1       8.796   7.915  19.263  0.00  0.00    +0.000 A 
ATOM     11  C   UNL     1       8.652   9.160  18.629  0.00  0.00    +0.000 A 
ATOM     12  C   UNL     1       7.761   9.211  17.548  0.00  0.00    +0.000 A 
ATOM     13  C   UNL     1       7.044   8.080  17.132  0.00  0.00    +0.000 A 
BRANCH  11  14
ATOM     14  C   UNL     1       9.389  10.362  19.093  0.00  0.00    +0.000 A 
ATOM     15  C   UNL     1       9.461  10.699  20.457  0.00  0.00    +0.000 A 
ATOM     16  C   UNL     1      10.125  11.850  20.895  0.00  0.00    +0.000 A 
ATOM     17  C   UNL     1      10.752  12.685  19.977  0.00  0.00    +0.000 A 
ATOM     18  C   UNL     1      10.715  12.369  18.624  0.00  0.00    +0.000 A 
ATOM     19  C   UNL     1      10.037  11.224  18.189  0.00  0.00    +0.000 A 
ENDBRANCH  11  14
ENDBRANCH   1   8
BRANCH   5  20
ATOM     20  C   UNL     1       7.014   3.951  13.921  0.00  0.00    +0.000 C 
ATOM     21  C   UNL     1       6.093   3.648  12.768  0.00  0.00    +0.000 C 
ATOM     22  C   UNL     1       7.283   4.534  12.556  0.00  0.00    +0.000 C 
ENDBRANCH   5  20
BRANCH   1  23
ATOM     23  C   UNL     1       6.090   4.693  18.476  0.00  0.00    +0.000 C 
BRANCH  23  30
ATOM     24  C   UNL     1       2.228   4.613  19.182  0.00  0.00    +0.000 C 
ATOM     25  C   UNL     1       1.540   3.341  19.723  0.00  0.00    +0.000 C 
ATOM     26  C   UNL     1       1.597   2.180  18.740  0.00  0.00    +0.000 C 
ATOM     27  C   UNL     1       3.031   1.912  18.303  0.00  0.00    +0.000 C 
ATOM     28  C   UNL     1       3.674   3.176  17.747  0.00  0.00    +0.000 C 
ATOM     29  N   UNL     1       3.616   4.270  18.728  0.00  0.00    +0.000 N 
ATOM     30  C   UNL     1       4.732   5.008  19.098  0.00  0.00    +0.000 C 
ATOM     31  O   UNL     1       4.673   5.900  19.946  0.00  0.00    +0.000 OA
BRANCH  24  32
ATOM     32  C   UNL     1       2.064   5.775  20.195  0.00  0.00    +0.000 C 
BRANCH  32  33
ATOM     33  C   UNL     1       1.850   7.135  19.534  0.00  0.00    +0.000 C 
BRANCH  33  35
ATOM     34  C   UNL     1       0.958   9.216  20.152  0.00  0.00    +0.000 C 
ATOM     35  O   UNL     1       1.831   8.158  20.530  0.00  0.00    +0.000 OA
ENDBRANCH  33  35
ENDBRANCH  32  33
ENDBRANCH  24  32
ENDBRANCH  23  30
ENDBRANCH   1  23
TORSDOF 8
ENDMDL
MODEL 4
REMARK VINA RESULT:      -7.9      0.579      1.123
REMARK  Name = 
REMARK  9 active torsions:
REMARK  status: ('A' for Active; 'I' for Inactive)
REMARK    1  A    between atoms: C_1  and  O_2
REMARK    2  A    between atoms: O_2  and  C_3
REMARK    3  A    between atoms: C_3  and  C_4
REMARK    4  A    between atoms: C_4  and  C_5
REMARK    5  A    between atoms: C_11  and  C_13
REMARK    6  A    between atoms: C_13  and  C_14
REMARK    7  A    between atoms: C_14  and  C_15
REMARK    8  A    between atoms: C_18  and  C_19
REMARK    9  A    between atoms: N_30  and  C_31
REMARK                            x       y       z     vdW  Elec       q    Type
REMARK                         _______ _______ _______ _____ _____    ______ ____
ROOT
ATOM      1  C   UNL     1       6.397   5.594  17.209  0.00  0.00    +0.000 C 
ATOM      2  C   UNL     1       5.163   6.004  16.368  0.00  0.00    +0.000 C 
ATOM      3  C   UNL     1       5.384   5.406  15.009  0.00  0.00    +0.000 C 
ATOM      4  O   UNL     1       4.591   5.527  14.084  0.00  0.00    +0.000 OA
ATOM      5  N   UNL     1       6.585   4.755  14.992  0.00  0.00    +0.000 N 
ATOM      6  C   UNL     1       7.188   4.728  16.223  0.00  0.00    +0.000 C 
ATOM      7  O   UNL     1       8.183   4.076  16.525  0.00  0.00    +0.000 OA
ENDROOT
BRANCH   1   8
ATOM      8  C   UNL     1       7.165   6.843  17.692  0.00  0.00    +0.000 A 
ATOM      9  C   UNL     1       7.027   8.097  17.084  0.00  0.00    +0.000 A 
ATOM     10  C   UNL     1       7.747   9.213  17.541  0.00  0.00    +0.000 A 
ATOM     11  C   UNL     1       8.630   9.134  18.631  0.00  0.00    +0.000 A 
ATOM     12  C   UNL     1       8.773   7.874  19.230  0.00  0.00    +0.000 A 
ATOM     13  C   UNL     1       8.080   6.752  18.756  0.00  0.00    +0.000 A 
BRANCH  11  14
ATOM     14  C   UNL     1       9.385  10.319  19.109  0.00  0.00    +0.000 A 
ATOM     15  C   UNL     1      10.163  11.097  18.233  0.00  0.00    +0.000 A 
ATOM     16  C   UNL     1      10.905  12.194  18.686  0.00  0.00    +0.000 A 
ATOM     17  C   UNL     1      10.872  12.550  20.030  0.00  0.00    +0.000 A 
ATOM     18  C   UNL     1      10.099  11.811  20.918  0.00  0.00    +0.000 A 
ATOM     19  C   UNL     1       9.369  10.706  20.462  0.00  0.00    +0.000 A 
ENDBRANCH  11  14
ENDBRANCH   1   8
BRANCH   5  20
ATOM     20  C   UNL     1       6.998   3.922  13.903  0.00  0.00    +0.000 C 
ATOM     21  C   UNL     1       6.099   3.635  12.729  0.00  0.00    +0.000 C 
ATOM     22  C   UNL     1       7.309   4.500  12.546  0.00  0.00    +0.000 C 
ENDBRANCH   5  20
BRANCH   1  23
ATOM     23  C   UNL     1       6.061   4.704  18.450  0.00  0.00    +0.000 C 
BRANCH  23  30
ATOM     24  C   UNL     1       2.211   4.614  19.220  0.00  0.00    +0.000 C 
ATOM     25  C   UNL     1       1.542   3.353  19.809  0.00  0.00    +0.000 C 
ATOM     26  C   UNL     1       1.593   2.164  18.860  0.00  0.00    +0.000 C 
ATOM     27  C   UNL     1       3.022   1.895  18.408  0.00  0.00    +0.000 C 
ATOM     28  C   UNL     1       3.646   3.148  17.804  0.00  0.00    +0.000 C 
ATOM     29  N   UNL     1       3.594   4.269  18.754  0.00  0.00    +0.000 N 
ATOM     30  C   UNL     1       4.710   5.026  19.084  0.00  0.00    +0.000 C 
ATOM     31  O   UNL     1       4.657   5.942  19.906  0.00  0.00    +0.000 OA
BRANCH  24  32
ATOM     32  C   UNL     1       2.054   5.804  20.202  0.00  0.00    +0.000 C 
BRANCH  32  33
ATOM     33  C   UNL     1       1.821   7.143  19.505  0.00  0.00    +0.000 C 
BRANCH  33  35
ATOM     34  C   UNL     1       0.809   8.291  21.284  0.00  0.00    +0.000 C 
ATOM     35  O   UNL     1       1.956   8.207  20.447  0.00  0.00    +0.000 OA
ENDBRANCH  33  35
ENDBRANCH  32  33
ENDBRANCH  24  32
ENDBRANCH  23  30
ENDBRANCH   1  23
TORSDOF 8
ENDMDL
MODEL 5
REMARK VINA RESULT:      -7.8      6.076     10.688
REMARK  Name = 
REMARK  9 active torsions:
REMARK  status: ('A' for Active; 'I' for Inactive)
REMARK    1  A    between atoms: C_1  and  O_2
REMARK    2  A    between atoms: O_2  and  C_3
REMARK    3  A    between atoms: C_3  and  C_4
REMARK    4  A    between atoms: C_4  and  C_5
REMARK    5  A    between atoms: C_11  and  C_13
REMARK    6  A    between atoms: C_13  and  C_14
REMARK    7  A    between atoms: C_14  and  C_15
REMARK    8  A    between atoms: C_18  and  C_19
REMARK    9  A    between atoms: N_30  and  C_31
REMARK                            x       y       z     vdW  Elec       q    Type
REMARK                         _______ _______ _______ _____ _____    ______ ____
ROOT
ATOM      1  C   UNL     1       0.676  11.236  19.228  0.00  0.00    +0.000 C 
ATOM      2  C   UNL     1      -0.757  11.290  18.643  0.00  0.00    +0.000 C 
ATOM      3  C   UNL     1      -1.643  11.696  19.784  0.00  0.00    +0.000 C 
ATOM      4  O   UNL     1      -2.853  11.845  19.675  0.00  0.00    +0.000 OA
ATOM      5  N   UNL     1      -0.889  11.838  20.915  0.00  0.00    +0.000 N 
ATOM      6  C   UNL     1       0.453  11.689  20.675  0.00  0.00    +0.000 C 
ATOM      7  O   UNL     1       1.358  11.924  21.469  0.00  0.00    +0.000 OA
ENDROOT
BRANCH   1   8
ATOM      8  C   UNL     1       1.259   9.811  19.107  0.00  0.00    +0.000 A 
ATOM      9  C   UNL     1       1.266   8.904  20.172  0.00  0.00    +0.000 A 
ATOM     10  C   UNL     1       1.813   7.618  20.033  0.00  0.00    +0.000 A 
ATOM     11  C   UNL     1       2.369   7.173  18.823  0.00  0.00    +0.000 A 
ATOM     12  C   UNL     1       2.370   8.088  17.760  0.00  0.00    +0.000 A 
ATOM     13  C   UNL     1       1.853   9.383  17.906  0.00  0.00    +0.000 A 
BRANCH  11  14
ATOM     14  C   UNL     1       2.943   5.811  18.683  0.00  0.00    +0.000 A 
ATOM     15  C   UNL     1       4.124   5.439  19.351  0.00  0.00    +0.000 A 
ATOM     16  C   UNL     1       4.688   4.168  19.193  0.00  0.00    +0.000 A 
ATOM     17  C   UNL     1       4.070   3.228  18.375  0.00  0.00    +0.000 A 
ATOM     18  C   UNL     1       2.892   3.559  17.716  0.00  0.00    +0.000 A 
ATOM     19  C   UNL     1       2.340   4.837  17.865  0.00  0.00    +0.000 A 
ENDBRANCH  11  14
ENDBRANCH   1   8
BRANCH   5  20
ATOM     20  C   UNL     1      -1.407  12.399  22.125  0.00  0.00    +0.000 C 
ATOM     21  C   UNL     1      -2.853  12.252  22.522  0.00  0.00    +0.000 C 
ATOM     22  C   UNL     1      -1.792  11.528  23.293  0.00  0.00    +0.000 C 
ENDBRANCH   5  20
BRANCH   1  23
ATOM     23  C   UNL     1       1.676  12.242  18.571  0.00  0.00    +0.000 C 
BRANCH  23  30
ATOM     24  C   UNL     1       1.426  16.089  19.319  0.00  0.00    +0.000 C 
ATOM     25  C   UNL     1       2.516  17.071  18.835  0.00  0.00    +0.000 C 
ATOM     26  C   UNL     1       3.866  16.818  19.490  0.00  0.00    +0.000 C 
ATOM     27  C   UNL     1       4.288  15.365  19.316  0.00  0.00    +0.000 C 
ATOM     28  C   UNL     1       3.207  14.421  19.829  0.00  0.00    +0.000 C 
ATOM     29  N   UNL     1       1.922  14.683  19.162  0.00  0.00    +0.000 N 
ATOM     30  C   UNL     1       1.172  13.683  18.558  0.00  0.00    +0.000 C 
ATOM     31  O   UNL     1       0.113  13.924  17.976  0.00  0.00    +0.000 OA
BRANCH  24  32
ATOM     32  C   UNL     1       0.064  16.452  18.675  0.00  0.00    +0.000 C 
BRANCH  32  33
ATOM     33  C   UNL     1       0.125  17.682  17.771  0.00  0.00    +0.000 C 
BRANCH  33  35
ATOM     34  C   UNL     1      -1.946  17.884  18.857  0.00  0.00    +0.000 C 
ATOM     35  O   UNL     1      -0.973  18.548  18.059  0.00  0.00    +0.000 OA
ENDBRANCH  33  35
ENDBRANCH  32  33
ENDBRANCH  24  32
ENDBRANCH  23  30
ENDBRANCH   1  23
TORSDOF 8
ENDMDL
MODEL 6
REMARK VINA RESULT:      -7.7      6.108     10.792
REMARK  Name = 
REMARK  9 active torsions:
REMARK  status: ('A' for Active; 'I' for Inactive)
REMARK    1  A    between atoms: C_1  and  O_2
REMARK    2  A    between atoms: O_2  and  C_3
REMARK    3  A    between atoms: C_3  and  C_4
REMARK    4  A    between atoms: C_4  and  C_5
REMARK    5  A    between atoms: C_11  and  C_13
REMARK    6  A    between atoms: C_13  and  C_14
REMARK    7  A    between atoms: C_14  and  C_15
REMARK    8  A    between atoms: C_18  and  C_19
REMARK    9  A    between atoms: N_30  and  C_31
REMARK                            x       y       z     vdW  Elec       q    Type
REMARK                         _______ _______ _______ _____ _____    ______ ____
ROOT
ATOM      1  C   UNL     1       0.501  11.243  19.359  0.00  0.00    +0.000 C 
ATOM      2  C   UNL     1      -0.857  11.236  18.613  0.00  0.00    +0.000 C 
ATOM      3  C   UNL     1      -1.858  11.776  19.593  0.00  0.00    +0.000 C 
ATOM      4  O   UNL     1      -3.045  11.917  19.332  0.00  0.00    +0.000 OA
ATOM      5  N   UNL     1      -1.231  12.045  20.777  0.00  0.00    +0.000 N 
ATOM      6  C   UNL     1       0.126  11.863  20.709  0.00  0.00    +0.000 C 
ATOM      7  O   UNL     1       0.942  12.185  21.568  0.00  0.00    +0.000 OA
ENDROOT
BRANCH   1   8
ATOM      8  C   UNL     1       1.068   9.812  19.469  0.00  0.00    +0.000 A 
ATOM      9  C   UNL     1       1.749   9.186  18.418  0.00  0.00    +0.000 A 
ATOM     10  C   UNL     1       2.246   7.879  18.546  0.00  0.00    +0.000 A 
ATOM     11  C   UNL     1       2.096   7.137  19.729  0.00  0.00    +0.000 A 
ATOM     12  C   UNL     1       1.403   7.763  20.775  0.00  0.00    +0.000 A 
ATOM     13  C   UNL     1       0.879   9.057  20.640  0.00  0.00    +0.000 A 
BRANCH  11  14
ATOM     14  C   UNL     1       2.625   5.757  19.857  0.00  0.00    +0.000 A 
ATOM     15  C   UNL     1       3.788   5.350  19.178  0.00  0.00    +0.000 A 
ATOM     16  C   UNL     1       4.271   4.039  19.268  0.00  0.00    +0.000 A 
ATOM     17  C   UNL     1       3.608   3.105  20.057  0.00  0.00    +0.000 A 
ATOM     18  C   UNL     1       2.466   3.481  20.754  0.00  0.00    +0.000 A 
ATOM     19  C   UNL     1       1.979   4.790  20.650  0.00  0.00    +0.000 A 
ENDBRANCH  11  14
ENDBRANCH   1   8
BRANCH   5  20
ATOM     20  C   UNL     1      -1.870  12.747  21.848  0.00  0.00    +0.000 C 
ATOM     21  C   UNL     1      -3.336  12.581  22.153  0.00  0.00    +0.000 C 
ATOM     22  C   UNL     1      -2.313  12.034  23.101  0.00  0.00    +0.000 C 
ENDBRANCH   5  20
BRANCH   1  23
ATOM     23  C   UNL     1       1.585  12.162  18.706  0.00  0.00    +0.000 C 
BRANCH  23  30
ATOM     24  C   UNL     1       1.686  16.005  19.505  0.00  0.00    +0.000 C 
ATOM     25  C   UNL     1       2.863  16.889  19.036  0.00  0.00    +0.000 C 
ATOM     26  C   UNL     1       4.182  16.505  19.691  0.00  0.00    +0.000 C 
ATOM     27  C   UNL     1       4.470  15.022  19.498  0.00  0.00    +0.000 C 
ATOM     28  C   UNL     1       3.305  14.174  19.996  0.00  0.00    +0.000 C 
ATOM     29  N   UNL     1       2.052  14.561  19.331  0.00  0.00    +0.000 N 
ATOM     30  C   UNL     1       1.215  13.643  18.712  0.00  0.00    +0.000 C 
ATOM     31  O   UNL     1       0.185  13.987  18.131  0.00  0.00    +0.000 OA
BRANCH  24  32
ATOM     32  C   UNL     1       0.365  16.500  18.863  0.00  0.00    +0.000 C 
BRANCH  32  33
ATOM     33  C   UNL     1       0.562  17.632  17.858  0.00  0.00    +0.000 C 
BRANCH  33  35
ATOM     34  C   UNL     1      -1.648  18.295  18.286  0.00  0.00    +0.000 C 
ATOM     35  O   UNL     1      -0.694  17.987  17.277  0.00  0.00    +0.000 OA
ENDBRANCH  33  35
ENDBRANCH  32  33
ENDBRANCH  24  32
ENDBRANCH  23  30
ENDBRANCH   1  23
TORSDOF 8
ENDMDL
MODEL 7
REMARK VINA RESULT:      -7.7      0.992      1.751
REMARK  Name = 
REMARK  9 active torsions:
REMARK  status: ('A' for Active; 'I' for Inactive)
REMARK    1  A    between atoms: C_1  and  O_2
REMARK    2  A    between atoms: O_2  and  C_3
REMARK    3  A    between atoms: C_3  and  C_4
REMARK    4  A    between atoms: C_4  and  C_5
REMARK    5  A    between atoms: C_11  and  C_13
REMARK    6  A    between atoms: C_13  and  C_14
REMARK    7  A    between atoms: C_14  and  C_15
REMARK    8  A    between atoms: C_18  and  C_19
REMARK    9  A    between atoms: N_30  and  C_31
REMARK                            x       y       z     vdW  Elec       q    Type
REMARK                         _______ _______ _______ _____ _____    ______ ____
ROOT
ATOM      1  C   UNL     1       6.397   5.881  17.355  0.00  0.00    +0.000 C 
ATOM      2  C   UNL     1       5.206   6.310  16.461  0.00  0.00    +0.000 C 
ATOM      3  C   UNL     1       5.431   5.636  15.139  0.00  0.00    +0.000 C 
ATOM      4  O   UNL     1       4.669   5.750  14.188  0.00  0.00    +0.000 OA
ATOM      5  N   UNL     1       6.598   4.927  15.186  0.00  0.00    +0.000 N 
ATOM      6  C   UNL     1       7.168   4.930  16.433  0.00  0.00    +0.000 C 
ATOM      7  O   UNL     1       8.121   4.247  16.793  0.00  0.00    +0.000 OA
ENDROOT
BRANCH   1   8
ATOM      8  C   UNL     1       7.214   7.114  17.799  0.00  0.00    +0.000 A 
ATOM      9  C   UNL     1       7.099   8.361  17.176  0.00  0.00    +0.000 A 
ATOM     10  C   UNL     1       7.863   9.461  17.598  0.00  0.00    +0.000 A 
ATOM     11  C   UNL     1       8.769   9.372  18.666  0.00  0.00    +0.000 A 
ATOM     12  C   UNL     1       8.890   8.118  19.281  0.00  0.00    +0.000 A 
ATOM     13  C   UNL     1       8.151   7.010  18.842  0.00  0.00    +0.000 A 
BRANCH  11  14
ATOM     14  C   UNL     1       9.572  10.540  19.107  0.00  0.00    +0.000 A 
ATOM     15  C   UNL     1      10.335  11.294  18.196  0.00  0.00    +0.000 A 
ATOM     16  C   UNL     1      11.120  12.374  18.614  0.00  0.00    +0.000 A 
ATOM     17  C   UNL     1      11.148  12.739  19.956  0.00  0.00    +0.000 A 
ATOM     18  C   UNL     1      10.391  12.025  20.877  0.00  0.00    +0.000 A 
ATOM     19  C   UNL     1       9.618  10.936  20.457  0.00  0.00    +0.000 A 
ENDBRANCH  11  14
ENDBRANCH   1   8
BRANCH   5  20
ATOM     20  C   UNL     1       6.996   4.023  14.150  0.00  0.00    +0.000 C 
ATOM     21  C   UNL     1       6.113   3.721  12.968  0.00  0.00    +0.000 C 
ATOM     22  C   UNL     1       7.367   4.518  12.775  0.00  0.00    +0.000 C 
ENDBRANCH   5  20
BRANCH   1  23
ATOM     23  C   UNL     1       5.985   5.070  18.626  0.00  0.00    +0.000 C 
BRANCH  23  30
ATOM     24  C   UNL     1       2.173   4.153  18.397  0.00  0.00    +0.000 C 
ATOM     25  C   UNL     1       1.660   2.755  18.807  0.00  0.00    +0.000 C 
ATOM     26  C   UNL     1       2.196   1.647  17.911  0.00  0.00    +0.000 C 
ATOM     27  C   UNL     1       3.716   1.699  17.838  0.00  0.00    +0.000 C 
ATOM     28  C   UNL     1       4.192   3.080  17.402  0.00  0.00    +0.000 C 
ATOM     29  N   UNL     1       3.670   4.122  18.299  0.00  0.00    +0.000 N 
ATOM     30  C   UNL     1       4.482   5.077  18.895  0.00  0.00    +0.000 C 
ATOM     31  O   UNL     1       4.034   5.924  19.670  0.00  0.00    +0.000 OA
BRANCH  24  32
ATOM     32  C   UNL     1       1.529   5.238  19.297  0.00  0.00    +0.000 C 
BRANCH  32  33
ATOM     33  C   UNL     1       1.030   4.701  20.637  0.00  0.00    +0.000 C 
BRANCH  33  35
ATOM     34  C   UNL     1       2.152   3.156  22.001  0.00  0.00    +0.000 C 
ATOM     35  O   UNL     1       2.136   4.493  21.515  0.00  0.00    +0.000 OA
ENDBRANCH  33  35
ENDBRANCH  32  33
ENDBRANCH  24  32
ENDBRANCH  23  30
ENDBRANCH   1  23
TORSDOF 8
ENDMDL
MODEL 8
REMARK VINA RESULT:      -7.6      2.904      7.264
REMARK  Name = 
REMARK  9 active torsions:
REMARK  status: ('A' for Active; 'I' for Inactive)
REMARK    1  A    between atoms: C_1  and  O_2
REMARK    2  A    between atoms: O_2  and  C_3
REMARK    3  A    between atoms: C_3  and  C_4
REMARK    4  A    between atoms: C_4  and  C_5
REMARK    5  A    between atoms: C_11  and  C_13
REMARK    6  A    between atoms: C_13  and  C_14
REMARK    7  A    between atoms: C_14  and  C_15
REMARK    8  A    between atoms: C_18  and  C_19
REMARK    9  A    between atoms: N_30  and  C_31
REMARK                            x       y       z     vdW  Elec       q    Type
REMARK                         _______ _______ _______ _____ _____    ______ ____
ROOT
ATOM      1  C   UNL     1       2.834   6.235  18.551  0.00  0.00    +0.000 C 
ATOM      2  C   UNL     1       3.960   5.619  19.419  0.00  0.00    +0.000 C 
ATOM      3  C   UNL     1       3.614   4.165  19.554  0.00  0.00    +0.000 C 
ATOM      4  O   UNL     1       4.301   3.366  20.178  0.00  0.00    +0.000 OA
ATOM      5  N   UNL     1       2.439   3.917  18.903  0.00  0.00    +0.000 N 
ATOM      6  C   UNL     1       1.971   5.013  18.224  0.00  0.00    +0.000 C 
ATOM      7  O   UNL     1       1.033   5.024  17.432  0.00  0.00    +0.000 OA
ENDROOT
BRANCH   1   8
ATOM      8  C   UNL     1       2.084   7.334  19.333  0.00  0.00    +0.000 A 
ATOM      9  C   UNL     1       1.630   7.152  20.645  0.00  0.00    +0.000 A 
ATOM     10  C   UNL     1       0.942   8.169  21.327  0.00  0.00    +0.000 A 
ATOM     11  C   UNL     1       0.683   9.417  20.738  0.00  0.00    +0.000 A 
ATOM     12  C   UNL     1       1.129   9.592  19.420  0.00  0.00    +0.000 A 
ATOM     13  C   UNL     1       1.789   8.568  18.726  0.00  0.00    +0.000 A 
BRANCH  11  14
ATOM     14  C   UNL     1      -0.043  10.487  21.467  0.00  0.00    +0.000 A 
ATOM     15  C   UNL     1       0.014  11.830  21.050  0.00  0.00    +0.000 A 
ATOM     16  C   UNL     1      -0.641  12.846  21.754  0.00  0.00    +0.000 A 
ATOM     17  C   UNL     1      -1.387  12.539  22.887  0.00  0.00    +0.000 A 
ATOM     18  C   UNL     1      -1.477  11.220  23.314  0.00  0.00    +0.000 A 
ATOM     19  C   UNL     1      -0.809  10.208  22.614  0.00  0.00    +0.000 A 
ENDBRANCH  11  14
ENDBRANCH   1   8
BRANCH   5  20
ATOM     20  C   UNL     1       1.939   2.594  18.686  0.00  0.00    +0.000 C 
ATOM     21  C   UNL     1       1.545   1.689  19.825  0.00  0.00    +0.000 C 
ATOM     22  C   UNL     1       0.489   2.253  18.923  0.00  0.00    +0.000 C 
ENDBRANCH   5  20
BRANCH   1  23
ATOM     23  C   UNL     1       3.327   6.836  17.194  0.00  0.00    +0.000 C 
BRANCH  23  30
ATOM     24  C   UNL     1       7.039   5.756  16.506  0.00  0.00    +0.000 C 
ATOM     25  C   UNL     1       7.513   5.379  15.085  0.00  0.00    +0.000 C 
ATOM     26  C   UNL     1       6.829   4.128  14.551  0.00  0.00    +0.000 C 
ATOM     27  C   UNL     1       5.315   4.265  14.631  0.00  0.00    +0.000 C 
ATOM     28  C   UNL     1       4.875   4.607  16.050  0.00  0.00    +0.000 C 
ATOM     29  N   UNL     1       5.542   5.828  16.526  0.00  0.00    +0.000 N 
ATOM     30  C   UNL     1       4.847   6.900  17.070  0.00  0.00    +0.000 C 
ATOM     31  O   UNL     1       5.418   7.930  17.435  0.00  0.00    +0.000 OA
BRANCH  24  32
ATOM     32  C   UNL     1       7.831   6.987  17.018  0.00  0.00    +0.000 C 
BRANCH  32  33
ATOM     33  C   UNL     1       8.181   6.912  18.503  0.00  0.00    +0.000 C 
BRANCH  33  35
ATOM     34  C   UNL     1       8.400   9.187  17.968  0.00  0.00    +0.000 C 
ATOM     35  O   UNL     1       8.619   8.192  18.961  0.00  0.00    +0.000 OA
ENDBRANCH  33  35
ENDBRANCH  32  33
ENDBRANCH  24  32
ENDBRANCH  23  30
ENDBRANCH   1  23
TORSDOF 8
ENDMDL
MODEL 9
REMARK VINA RESULT:      -7.6      3.055      7.485
REMARK  Name = 
REMARK  9 active torsions:
REMARK  status: ('A' for Active; 'I' for Inactive)
REMARK    1  A    between atoms: C_1  and  O_2
REMARK    2  A    between atoms: O_2  and  C_3
REMARK    3  A    between atoms: C_3  and  C_4
REMARK    4  A    between atoms: C_4  and  C_5
REMARK    5  A    between atoms: C_11  and  C_13
REMARK    6  A    between atoms: C_13  and  C_14
REMARK    7  A    between atoms: C_14  and  C_15
REMARK    8  A    between atoms: C_18  and  C_19
REMARK    9  A    between atoms: N_30  and  C_31
REMARK                            x       y       z     vdW  Elec       q    Type
REMARK                         _______ _______ _______ _____ _____    ______ ____
ROOT
ATOM      1  C   UNL     1       2.948   6.207  18.732  0.00  0.00    +0.000 C 
ATOM      2  C   UNL     1       3.843   5.461  19.752  0.00  0.00    +0.000 C 
ATOM      3  C   UNL     1       3.348   4.044  19.761  0.00  0.00    +0.000 C 
ATOM      4  O   UNL     1       3.839   3.164  20.457  0.00  0.00    +0.000 OA
ATOM      5  N   UNL     1       2.287   3.930  18.907  0.00  0.00    +0.000 N 
ATOM      6  C   UNL     1       2.047   5.085  18.208  0.00  0.00    +0.000 C 
ATOM      7  O   UNL     1       1.268   5.210  17.268  0.00  0.00    +0.000 OA
ENDROOT
BRANCH   1   8
ATOM      8  C   UNL     1       2.176   7.352  19.423  0.00  0.00    +0.000 A 
ATOM      9  C   UNL     1       1.732   7.272  20.748  0.00  0.00    +0.000 A 
ATOM     10  C   UNL     1       1.023   8.327  21.345  0.00  0.00    +0.000 A 
ATOM     11  C   UNL     1       0.732   9.515  20.653  0.00  0.00    +0.000 A 
ATOM     12  C   UNL     1       1.169   9.586  19.323  0.00  0.00    +0.000 A 
ATOM     13  C   UNL     1       1.849   8.522  18.714  0.00  0.00    +0.000 A 
BRANCH  11  14
ATOM     14  C   UNL     1      -0.016  10.626  21.292  0.00  0.00    +0.000 A 
ATOM     15  C   UNL     1      -0.692  10.450  22.514  0.00  0.00    +0.000 A 
ATOM     16  C   UNL     1      -1.427  11.486  23.101  0.00  0.00    +0.000 A 
ATOM     17  C   UNL     1      -1.489  12.732  22.488  0.00  0.00    +0.000 A 
ATOM     18  C   UNL     1      -0.817  12.942  21.290  0.00  0.00    +0.000 A 
ATOM     19  C   UNL     1      -0.094  11.899  20.698  0.00  0.00    +0.000 A 
ENDBRANCH  11  14
ENDBRANCH   1   8
BRANCH   5  20
ATOM     20  C   UNL     1       1.714   2.668  18.549  0.00  0.00    +0.000 C 
ATOM     21  C   UNL     1       1.472   1.581  19.563  0.00  0.00    +0.000 C 
ATOM     22  C   UNL     1       0.309   2.301  18.951  0.00  0.00    +0.000 C 
ENDBRANCH   5  20
BRANCH   1  23
ATOM     23  C   UNL     1       3.724   6.796  17.508  0.00  0.00    +0.000 C 
BRANCH  23  30
ATOM     24  C   UNL     1       7.071   4.984  16.541  0.00  0.00    +0.000 C 
ATOM     25  C   UNL     1       7.916   4.244  17.602  0.00  0.00    +0.000 C 
ATOM     26  C   UNL     1       8.484   5.182  18.658  0.00  0.00    +0.000 C 
ATOM     27  C   UNL     1       7.378   6.018  19.289  0.00  0.00    +0.000 C 
ATOM     28  C   UNL     1       6.581   6.758  18.222  0.00  0.00    +0.000 C 
ATOM     29  N   UNL     1       6.034   5.821  17.230  0.00  0.00    +0.000 N 
ATOM     30  C   UNL     1       4.694   5.807  16.868  0.00  0.00    +0.000 C 
ATOM     31  O   UNL     1       4.245   4.993  16.059  0.00  0.00    +0.000 OA
BRANCH  24  32
ATOM     32  C   UNL     1       6.592   3.985  15.457  0.00  0.00    +0.000 C 
BRANCH  32  33
ATOM     33  C   UNL     1       6.771   4.501  14.031  0.00  0.00    +0.000 C 
BRANCH  33  35
ATOM     34  C   UNL     1       6.384   3.230  12.096  0.00  0.00    +0.000 C 
ATOM     35  O   UNL     1       5.779   3.925  13.180  0.00  0.00    +0.000 OA
ENDBRANCH  33  35
ENDBRANCH  32  33
ENDBRANCH  24  32
ENDBRANCH  23  30
ENDBRANCH   1  23
TORSDOF 8
ENDMDL
