MODEL 1
REMARK VINA RESULT:      -9.4      0.000      0.000
REMARK  Name = 
REMARK  3 active torsions:
REMARK  status: ('A' for Active; 'I' for Inactive)
REMARK    1  A    between atoms: N_3  and  C_4
REMARK    2  A    between atoms: C_7  and  N_8
REMARK    3  A    between atoms: N_22  and  C_23
REMARK                            x       y       z     vdW  Elec       q    Type
REMARK                         _______ _______ _______ _____ _____    ______ ____
ROOT
ATOM      1  C   UNL     1       0.208  10.066  19.738  0.00  0.00    +0.000 A 
ATOM      2  C   UNL     1       0.794   9.115  20.577  0.00  0.00    +0.000 A 
ATOM      3  C   UNL     1       1.736   8.187  20.097  0.00  0.00    +0.000 A 
ATOM      4  C   UNL     1       2.098   8.147  18.758  0.00  0.00    +0.000 A 
ATOM      5  C   UNL     1       1.549   9.145  17.927  0.00  0.00    +0.000 A 
ATOM      6  C   UNL     1       0.620  10.089  18.407  0.00  0.00    +0.000 A 
ENDROOT
BRANCH   4   7
ATOM      7  N   UNL     1       2.887   7.147  18.165  0.00  0.00    +0.000 N 
ATOM      8  C   UNL     1       3.253   5.865  18.492  0.00  0.00    +0.000 C 
ATOM      9  N   UNL     1       4.346   5.414  17.920  0.00  0.00    +0.000 NA
ATOM     10  S   UNL     1       4.699   3.898  18.415  0.00  0.00    +0.000 S 
ATOM     11  O   UNL     1       4.305   2.944  17.401  0.00  0.00    +0.000 OA
ATOM     12  O   UNL     1       5.987   3.856  19.069  0.00  0.00    +0.000 OA
ATOM     13  C   UNL     1       3.473   3.836  19.642  0.00  0.00    +0.000 A 
ATOM     14  C   UNL     1       3.267   2.808  20.542  0.00  0.00    +0.000 A 
ATOM     15  C   UNL     1       2.035   2.785  21.184  0.00  0.00    +0.000 A 
ATOM     16  C   UNL     1       1.059   3.746  20.861  0.00  0.00    +0.000 A 
ATOM     17  C   UNL     1       1.339   4.810  19.979  0.00  0.00    +0.000 A 
ATOM     18  C   UNL     1       2.602   4.893  19.422  0.00  0.00    +0.000 A 
ATOM     19  H   UNL     1       3.531   7.540  17.481  0.00  0.00    +0.000 HD
ENDBRANCH   4   7
BRANCH   1  22
ATOM     20  O   UNL     1       0.375  12.199  21.762  0.00  0.00    +0.000 OA
ATOM     21  C   UNL     1      -0.655  11.927  21.149  0.00  0.00    +0.000 C 
ATOM     22  N   UNL     1      -0.784  10.987  20.165  0.00  0.00    +0.000 N 
ATOM     23  N   UNL     1      -1.739  12.724  21.407  0.00  0.00    +0.000 N 
ATOM     24  H   UNL     1      -1.612  11.052  19.591  0.00  0.00    +0.000 HD
ATOM     25  H   UNL     1      -1.447  13.541  21.940  0.00  0.00    +0.000 HD
BRANCH  23  26
ATOM     26  C   UNL     1      -3.117  12.612  21.155  0.00  0.00    +0.000 A 
ATOM     27  C   UNL     1      -4.104  12.751  22.134  0.00  0.00    +0.000 A 
ATOM     28  C   UNL     1      -5.456  12.643  21.788  0.00  0.00    +0.000 A 
ATOM     29  C   UNL     1      -5.829  12.397  20.466  0.00  0.00    +0.000 A 
ATOM     30  C   UNL     1      -4.848  12.294  19.487  0.00  0.00    +0.000 A 
ATOM     31 BR   UNL     1      -5.344  11.975  17.690  0.00  0.00    +0.000 Br
ATOM     32  C   UNL     1      -3.500  12.418  19.822  0.00  0.00    +0.000 A 
ENDBRANCH  23  26
ENDBRANCH   1  22
TORSDOF 3
ENDMDL
MODEL 2
REMARK VINA RESULT:      -9.4      1.187      1.483
REMARK  Name = 
REMARK  3 active torsions:
REMARK  status: ('A' for Active; 'I' for Inactive)
REMARK    1  A    between atoms: N_3  and  C_4
REMARK    2  A    between atoms: C_7  and  N_8
REMARK    3  A    between atoms: N_22  and  C_23
REMARK                            x       y       z     vdW  Elec       q    Type
REMARK                         _______ _______ _______ _____ _____    ______ ____
ROOT
ATOM      1  C   UNL     1       0.255  10.171  19.809  0.00  0.00    +0.000 A 
ATOM      2  C   UNL     1       0.746   9.133  20.604  0.00  0.00    +0.000 A 
ATOM      3  C   UNL     1       1.667   8.193  20.106  0.00  0.00    +0.000 A 
ATOM      4  C   UNL     1       2.103   8.233  18.789  0.00  0.00    +0.000 A 
ATOM      5  C   UNL     1       1.652   9.316  18.008  0.00  0.00    +0.000 A 
ATOM      6  C   UNL     1       0.744  10.269  18.508  0.00  0.00    +0.000 A 
ENDROOT
BRANCH   4   7
ATOM      7  N   UNL     1       2.875   7.238  18.165  0.00  0.00    +0.000 N 
ATOM      8  C   UNL     1       3.245   5.951  18.467  0.00  0.00    +0.000 C 
ATOM      9  N   UNL     1       4.323   5.505  17.864  0.00  0.00    +0.000 NA
ATOM     10  S   UNL     1       4.684   3.982  18.331  0.00  0.00    +0.000 S 
ATOM     11  O   UNL     1       4.264   3.042  17.315  0.00  0.00    +0.000 OA
ATOM     12  O   UNL     1       5.987   3.929  18.954  0.00  0.00    +0.000 OA
ATOM     13  C   UNL     1       3.487   3.908  19.586  0.00  0.00    +0.000 A 
ATOM     14  C   UNL     1       3.299   2.869  20.478  0.00  0.00    +0.000 A 
ATOM     15  C   UNL     1       2.083   2.840  21.148  0.00  0.00    +0.000 A 
ATOM     16  C   UNL     1       1.102   3.808  20.861  0.00  0.00    +0.000 A 
ATOM     17  C   UNL     1       1.364   4.882  19.985  0.00  0.00    +0.000 A 
ATOM     18  C   UNL     1       2.614   4.969  19.400  0.00  0.00    +0.000 A 
ATOM     19  H   UNL     1       3.504   7.639  17.471  0.00  0.00    +0.000 HD
ENDBRANCH   4   7
BRANCH   1  22
ATOM     20  O   UNL     1       0.498  12.316  21.813  0.00  0.00    +0.000 OA
ATOM     21  C   UNL     1      -0.549  12.055  21.225  0.00  0.00    +0.000 C 
ATOM     22  N   UNL     1      -0.714  11.110  20.251  0.00  0.00    +0.000 N 
ATOM     23  N   UNL     1      -1.616  12.869  21.501  0.00  0.00    +0.000 N 
ATOM     24  H   UNL     1      -1.553  11.183  19.695  0.00  0.00    +0.000 HD
ATOM     25  H   UNL     1      -1.301  13.686  22.021  0.00  0.00    +0.000 HD
BRANCH  23  26
ATOM     26  C   UNL     1      -3.000  12.775  21.280  0.00  0.00    +0.000 A 
ATOM     27  C   UNL     1      -3.579  12.550  20.029  0.00  0.00    +0.000 A 
ATOM     28  C   UNL     1      -4.970  12.451  19.906  0.00  0.00    +0.000 A 
ATOM     29  C   UNL     1      -5.789  12.574  21.028  0.00  0.00    +0.000 A 
ATOM     30  C   UNL     1      -5.210  12.764  22.278  0.00  0.00    +0.000 A 
ATOM     31 BR   UNL     1      -6.311  12.918  23.809  0.00  0.00    +0.000 Br
ATOM     32  C   UNL     1      -3.825  12.845  22.410  0.00  0.00    +0.000 A 
ENDBRANCH  23  26
ENDBRANCH   1  22
TORSDOF 3
ENDMDL
MODEL 3
REMARK VINA RESULT:      -9.4      0.990      1.491
REMARK  Name = 
REMARK  3 active torsions:
REMARK  status: ('A' for Active; 'I' for Inactive)
REMARK    1  A    between atoms: N_3  and  C_4
REMARK    2  A    between atoms: C_7  and  N_8
REMARK    3  A    between atoms: N_22  and  C_23
REMARK                            x       y       z     vdW  Elec       q    Type
REMARK                         _______ _______ _______ _____ _____    ______ ____
ROOT
ATOM      1  C   UNL     1       0.404  10.160  19.858  0.00  0.00    +0.000 A 
ATOM      2  C   UNL     1       0.606  10.158  18.476  0.00  0.00    +0.000 A 
ATOM      3  C   UNL     1       1.396   9.179  17.846  0.00  0.00    +0.000 A 
ATOM      4  C   UNL     1       2.043   8.191  18.574  0.00  0.00    +0.000 A 
ATOM      5  C   UNL     1       1.790   8.161  19.961  0.00  0.00    +0.000 A 
ATOM      6  C   UNL     1       0.984   9.127  20.593  0.00  0.00    +0.000 A 
ENDROOT
BRANCH   4   7
ATOM      7  N   UNL     1       2.988   7.291  18.050  0.00  0.00    +0.000 N 
ATOM      8  C   UNL     1       3.392   6.013  18.343  0.00  0.00    +0.000 C 
ATOM      9  N   UNL     1       4.592   5.678  17.927  0.00  0.00    +0.000 NA
ATOM     10  S   UNL     1       4.974   4.151  18.367  0.00  0.00    +0.000 S 
ATOM     11  O   UNL     1       4.816   3.260  17.239  0.00  0.00    +0.000 OA
ATOM     12  O   UNL     1       6.141   4.138  19.218  0.00  0.00    +0.000 OA
ATOM     13  C   UNL     1       3.576   3.916  19.370  0.00  0.00    +0.000 A 
ATOM     14  C   UNL     1       3.307   2.808  20.152  0.00  0.00    +0.000 A 
ATOM     15  C   UNL     1       1.995   2.657  20.581  0.00  0.00    +0.000 A 
ATOM     16  C   UNL     1       1.014   3.579  20.170  0.00  0.00    +0.000 A 
ATOM     17  C   UNL     1       1.350   4.725  19.421  0.00  0.00    +0.000 A 
ATOM     18  C   UNL     1       2.676   4.931  19.085  0.00  0.00    +0.000 A 
ATOM     19  H   UNL     1       3.701   7.778  17.510  0.00  0.00    +0.000 HD
ENDBRANCH   4   7
BRANCH   1  22
ATOM     20  O   UNL     1       1.351  12.520  21.344  0.00  0.00    +0.000 OA
ATOM     21  C   UNL     1       0.166  12.206  21.257  0.00  0.00    +0.000 C 
ATOM     22  N   UNL     1      -0.340  11.155  20.543  0.00  0.00    +0.000 N 
ATOM     23  N   UNL     1      -0.731  13.060  21.844  0.00  0.00    +0.000 N 
ATOM     24  H   UNL     1      -1.334  11.174  20.365  0.00  0.00    +0.000 HD
ATOM     25  H   UNL     1      -0.263  13.927  22.100  0.00  0.00    +0.000 HD
BRANCH  23  26
ATOM     26  C   UNL     1      -2.083  12.958  22.208  0.00  0.00    +0.000 A 
ATOM     27  C   UNL     1      -2.526  12.673  23.502  0.00  0.00    +0.000 A 
ATOM     28  C   UNL     1      -3.896  12.611  23.779  0.00  0.00    +0.000 A 
ATOM     29  C   UNL     1      -4.831  12.834  22.768  0.00  0.00    +0.000 A 
ATOM     30  C   UNL     1      -4.391  13.152  21.488  0.00  0.00    +0.000 A 
ATOM     31 BR   UNL     1      -5.650  13.470  20.113  0.00  0.00    +0.000 Br
ATOM     32  C   UNL     1      -3.027  13.233  21.210  0.00  0.00    +0.000 A 
ENDBRANCH  23  26
ENDBRANCH   1  22
TORSDOF 3
ENDMDL
MODEL 4
REMARK VINA RESULT:      -9.3      1.732      2.111
REMARK  Name = 
REMARK  3 active torsions:
REMARK  status: ('A' for Active; 'I' for Inactive)
REMARK    1  A    between atoms: N_3  and  C_4
REMARK    2  A    between atoms: C_7  and  N_8
REMARK    3  A    between atoms: N_22  and  C_23
REMARK                            x       y       z     vdW  Elec       q    Type
REMARK                         _______ _______ _______ _____ _____    ______ ____
ROOT
ATOM      1  C   UNL     1       0.150   9.975  20.557  0.00  0.00    +0.000 A 
ATOM      2  C   UNL     1       0.341  10.112  19.181  0.00  0.00    +0.000 A 
ATOM      3  C   UNL     1       1.157   9.224  18.456  0.00  0.00    +0.000 A 
ATOM      4  C   UNL     1       1.842   8.193  19.084  0.00  0.00    +0.000 A 
ATOM      5  C   UNL     1       1.600   8.022  20.462  0.00  0.00    +0.000 A 
ATOM      6  C   UNL     1       0.768   8.897  21.187  0.00  0.00    +0.000 A 
ENDROOT
BRANCH   4   7
ATOM      7  N   UNL     1       2.811   7.379  18.472  0.00  0.00    +0.000 N 
ATOM      8  C   UNL     1       3.287   6.107  18.666  0.00  0.00    +0.000 C 
ATOM      9  N   UNL     1       4.487   5.862  18.191  0.00  0.00    +0.000 NA
ATOM     10  S   UNL     1       4.960   4.332  18.517  0.00  0.00    +0.000 S 
ATOM     11  O   UNL     1       4.808   3.508  17.338  0.00  0.00    +0.000 OA
ATOM     12  O   UNL     1       6.155   4.324  19.328  0.00  0.00    +0.000 OA
ATOM     13  C   UNL     1       3.611   3.961  19.546  0.00  0.00    +0.000 A 
ATOM     14  C   UNL     1       3.425   2.792  20.260  0.00  0.00    +0.000 A 
ATOM     15  C   UNL     1       2.138   2.546  20.719  0.00  0.00    +0.000 A 
ATOM     16  C   UNL     1       1.098   3.440  20.402  0.00  0.00    +0.000 A 
ATOM     17  C   UNL     1       1.351   4.648  19.720  0.00  0.00    +0.000 A 
ATOM     18  C   UNL     1       2.653   4.943  19.357  0.00  0.00    +0.000 A 
ATOM     19  H   UNL     1       3.480   7.936  17.942  0.00  0.00    +0.000 HD
ENDBRANCH   4   7
BRANCH   1  22
ATOM     20  O   UNL     1      -0.033  10.239  23.486  0.00  0.00    +0.000 OA
ATOM     21  C   UNL     1      -0.697  10.915  22.703  0.00  0.00    +0.000 C 
ATOM     22  N   UNL     1      -0.622  10.876  21.338  0.00  0.00    +0.000 N 
ATOM     23  N   UNL     1      -1.504  11.870  23.263  0.00  0.00    +0.000 N 
ATOM     24  H   UNL     1      -1.038  11.652  20.846  0.00  0.00    +0.000 HD
ATOM     25  H   UNL     1      -1.271  11.983  24.247  0.00  0.00    +0.000 HD
BRANCH  23  26
ATOM     26  C   UNL     1      -2.582  12.638  22.792  0.00  0.00    +0.000 A 
ATOM     27  C   UNL     1      -2.500  13.519  21.712  0.00  0.00    +0.000 A 
ATOM     28  C   UNL     1      -3.632  14.231  21.298  0.00  0.00    +0.000 A 
ATOM     29  C   UNL     1      -4.850  14.065  21.958  0.00  0.00    +0.000 A 
ATOM     30  C   UNL     1      -4.939  13.162  23.012  0.00  0.00    +0.000 A 
ATOM     31 BR   UNL     1      -6.589  12.920  23.904  0.00  0.00    +0.000 Br
ATOM     32  C   UNL     1      -3.819  12.437  23.417  0.00  0.00    +0.000 A 
ENDBRANCH  23  26
ENDBRANCH   1  22
TORSDOF 3
ENDMDL
MODEL 5
REMARK VINA RESULT:      -9.3      3.466      4.641
REMARK  Name = 
REMARK  3 active torsions:
REMARK  status: ('A' for Active; 'I' for Inactive)
REMARK    1  A    between atoms: N_3  and  C_4
REMARK    2  A    between atoms: C_7  and  N_8
REMARK    3  A    between atoms: N_22  and  C_23
REMARK                            x       y       z     vdW  Elec       q    Type
REMARK                         _______ _______ _______ _____ _____    ______ ____
ROOT
ATOM      1  C   UNL     1       0.947  10.534  19.326  0.00  0.00    +0.000 A 
ATOM      2  C   UNL     1       1.539   9.799  18.296  0.00  0.00    +0.000 A 
ATOM      3  C   UNL     1       1.985   8.479  18.493  0.00  0.00    +0.000 A 
ATOM      4  C   UNL     1       1.891   7.859  19.731  0.00  0.00    +0.000 A 
ATOM      5  C   UNL     1       1.240   8.582  20.751  0.00  0.00    +0.000 A 
ATOM      6  C   UNL     1       0.775   9.897  20.553  0.00  0.00    +0.000 A 
ENDROOT
BRANCH   4   7
ATOM      7  N   UNL     1       2.470   6.621  20.058  0.00  0.00    +0.000 N 
ATOM      8  C   UNL     1       3.167   5.654  19.378  0.00  0.00    +0.000 C 
ATOM      9  N   UNL     1       3.151   4.452  19.907  0.00  0.00    +0.000 NA
ATOM     10  S   UNL     1       3.979   3.383  18.990  0.00  0.00    +0.000 S 
ATOM     11  O   UNL     1       5.281   3.140  19.571  0.00  0.00    +0.000 OA
ATOM     12  O   UNL     1       3.116   2.318  18.534  0.00  0.00    +0.000 OA
ATOM     13  C   UNL     1       4.236   4.471  17.663  0.00  0.00    +0.000 A 
ATOM     14  C   UNL     1       4.832   4.161  16.454  0.00  0.00    +0.000 A 
ATOM     15  C   UNL     1       5.265   5.233  15.685  0.00  0.00    +0.000 A 
ATOM     16  C   UNL     1       5.133   6.546  16.176  0.00  0.00    +0.000 A 
ATOM     17  C   UNL     1       4.465   6.813  17.389  0.00  0.00    +0.000 A 
ATOM     18  C   UNL     1       3.939   5.751  18.102  0.00  0.00    +0.000 A 
ATOM     19  H   UNL     1       2.067   6.238  20.912  0.00  0.00    +0.000 HD
ENDBRANCH   4   7
BRANCH   1  22
ATOM     20  O   UNL     1      -1.558  11.622  18.221  0.00  0.00    +0.000 OA
ATOM     21  C   UNL     1      -0.632  12.326  18.621  0.00  0.00    +0.000 C 
ATOM     22  N   UNL     1       0.530  11.884  19.189  0.00  0.00    +0.000 N 
ATOM     23  N   UNL     1      -0.846  13.679  18.590  0.00  0.00    +0.000 N 
ATOM     24  H   UNL     1       1.073  12.573  19.688  0.00  0.00    +0.000 HD
ATOM     25  H   UNL     1      -1.829  13.868  18.409  0.00  0.00    +0.000 HD
BRANCH  23  26
ATOM     26  C   UNL     1      -0.009  14.803  18.686  0.00  0.00    +0.000 A 
ATOM     27  C   UNL     1      -0.449  16.076  19.054  0.00  0.00    +0.000 A 
ATOM     28  C   UNL     1       0.461  17.136  19.144  0.00  0.00    +0.000 A 
ATOM     29  C   UNL     1       1.813  16.931  18.868  0.00  0.00    +0.000 A 
ATOM     30  C   UNL     1       2.257  15.655  18.535  0.00  0.00    +0.000 A 
ATOM     31 BR   UNL     1       4.090  15.363  18.174  0.00  0.00    +0.000 Br
ATOM     32  C   UNL     1       1.358  14.592  18.462  0.00  0.00    +0.000 A 
ENDBRANCH  23  26
ENDBRANCH   1  22
TORSDOF 3
ENDMDL
MODEL 6
REMARK VINA RESULT:      -9.3      1.326      1.609
REMARK  Name = 
REMARK  3 active torsions:
REMARK  status: ('A' for Active; 'I' for Inactive)
REMARK    1  A    between atoms: N_3  and  C_4
REMARK    2  A    between atoms: C_7  and  N_8
REMARK    3  A    between atoms: N_22  and  C_23
REMARK                            x       y       z     vdW  Elec       q    Type
REMARK                         _______ _______ _______ _____ _____    ______ ____
ROOT
ATOM      1  C   UNL     1       0.102  10.044  19.625  0.00  0.00    +0.000 A 
ATOM      2  C   UNL     1       0.789   9.198  20.499  0.00  0.00    +0.000 A 
ATOM      3  C   UNL     1       1.772   8.302  20.040  0.00  0.00    +0.000 A 
ATOM      4  C   UNL     1       2.078   8.191  18.690  0.00  0.00    +0.000 A 
ATOM      5  C   UNL     1       1.426   9.088  17.820  0.00  0.00    +0.000 A 
ATOM      6  C   UNL     1       0.455   9.999  18.278  0.00  0.00    +0.000 A 
ENDROOT
BRANCH   4   7
ATOM      7  N   UNL     1       2.909   7.205  18.131  0.00  0.00    +0.000 N 
ATOM      8  C   UNL     1       3.280   5.928  18.469  0.00  0.00    +0.000 C 
ATOM      9  N   UNL     1       4.405   5.497  17.946  0.00  0.00    +0.000 NA
ATOM     10  S   UNL     1       4.759   3.984  18.451  0.00  0.00    +0.000 S 
ATOM     11  O   UNL     1       4.427   3.029  17.417  0.00  0.00    +0.000 OA
ATOM     12  O   UNL     1       6.016   3.960  19.164  0.00  0.00    +0.000 OA
ATOM     13  C   UNL     1       3.479   3.898  19.620  0.00  0.00    +0.000 A 
ATOM     14  C   UNL     1       3.248   2.863  20.506  0.00  0.00    +0.000 A 
ATOM     15  C   UNL     1       1.989   2.817  21.091  0.00  0.00    +0.000 A 
ATOM     16  C   UNL     1       1.014   3.765  20.727  0.00  0.00    +0.000 A 
ATOM     17  C   UNL     1       1.317   4.836  19.862  0.00  0.00    +0.000 A 
ATOM     18  C   UNL     1       2.603   4.942  19.365  0.00  0.00    +0.000 A 
ATOM     19  H   UNL     1       3.578   7.612  17.478  0.00  0.00    +0.000 HD
ENDBRANCH   4   7
BRANCH   1  22
ATOM     20  O   UNL     1      -0.609  12.711  18.597  0.00  0.00    +0.000 OA
ATOM     21  C   UNL     1      -1.181  12.177  19.544  0.00  0.00    +0.000 C 
ATOM     22  N   UNL     1      -0.933  10.925  20.035  0.00  0.00    +0.000 N 
ATOM     23  N   UNL     1      -2.237  12.866  20.078  0.00  0.00    +0.000 N 
ATOM     24  H   UNL     1      -1.640  10.535  20.640  0.00  0.00    +0.000 HD
ATOM     25  H   UNL     1      -2.490  13.638  19.465  0.00  0.00    +0.000 HD
BRANCH  23  26
ATOM     26  C   UNL     1      -2.963  12.768  21.277  0.00  0.00    +0.000 A 
ATOM     27  C   UNL     1      -2.377  12.606  22.535  0.00  0.00    +0.000 A 
ATOM     28  C   UNL     1      -3.179  12.537  23.680  0.00  0.00    +0.000 A 
ATOM     29  C   UNL     1      -4.567  12.631  23.577  0.00  0.00    +0.000 A 
ATOM     30  C   UNL     1      -5.147  12.827  22.329  0.00  0.00    +0.000 A 
ATOM     31 BR   UNL     1      -7.027  12.970  22.180  0.00  0.00    +0.000 Br
ATOM     32  C   UNL     1      -4.353  12.914  21.186  0.00  0.00    +0.000 A 
ENDBRANCH  23  26
ENDBRANCH   1  22
TORSDOF 3
ENDMDL
MODEL 7
REMARK VINA RESULT:      -9.2      2.247      2.569
REMARK  Name = 
REMARK  3 active torsions:
REMARK  status: ('A' for Active; 'I' for Inactive)
REMARK    1  A    between atoms: N_3  and  C_4
REMARK    2  A    between atoms: C_7  and  N_8
REMARK    3  A    between atoms: N_22  and  C_23
REMARK                            x       y       z     vdW  Elec       q    Type
REMARK                         _______ _______ _______ _____ _____    ______ ____
ROOT
ATOM      1  C   UNL     1       0.681  10.198  20.121  0.00  0.00    +0.000 A 
ATOM      2  C   UNL     1       0.829  10.220  18.733  0.00  0.00    +0.000 A 
ATOM      3  C   UNL     1       1.481   9.180  18.043  0.00  0.00    +0.000 A 
ATOM      4  C   UNL     1       2.040   8.103  18.716  0.00  0.00    +0.000 A 
ATOM      5  C   UNL     1       1.837   8.056  20.110  0.00  0.00    +0.000 A 
ATOM      6  C   UNL     1       1.169   9.084  20.802  0.00  0.00    +0.000 A 
ENDROOT
BRANCH   4   7
ATOM      7  N   UNL     1       2.858   7.122  18.129  0.00  0.00    +0.000 N 
ATOM      8  C   UNL     1       3.242   5.845  18.451  0.00  0.00    +0.000 C 
ATOM      9  N   UNL     1       4.353   5.420  17.894  0.00  0.00    +0.000 NA
ATOM     10  S   UNL     1       4.727   3.906  18.382  0.00  0.00    +0.000 S 
ATOM     11  O   UNL     1       4.368   2.954  17.354  0.00  0.00    +0.000 OA
ATOM     12  O   UNL     1       6.004   3.883  19.058  0.00  0.00    +0.000 OA
ATOM     13  C   UNL     1       3.481   3.811  19.587  0.00  0.00    +0.000 A 
ATOM     14  C   UNL     1       3.280   2.771  20.476  0.00  0.00    +0.000 A 
ATOM     15  C   UNL     1       2.038   2.719  21.096  0.00  0.00    +0.000 A 
ATOM     16  C   UNL     1       1.050   3.665  20.765  0.00  0.00    +0.000 A 
ATOM     17  C   UNL     1       1.324   4.741  19.896  0.00  0.00    +0.000 A 
ATOM     18  C   UNL     1       2.595   4.852  19.362  0.00  0.00    +0.000 A 
ATOM     19  H   UNL     1       3.506   7.534  17.459  0.00  0.00    +0.000 HD
ENDBRANCH   4   7
BRANCH   1  22
ATOM     20  O   UNL     1       1.840  12.739  21.058  0.00  0.00    +0.000 OA
ATOM     21  C   UNL     1       0.690  12.386  21.310  0.00  0.00    +0.000 C 
ATOM     22  N   UNL     1       0.079  11.247  20.864  0.00  0.00    +0.000 N 
ATOM     23  N   UNL     1      -0.075  13.280  22.013  0.00  0.00    +0.000 N 
ATOM     24  H   UNL     1      -0.926  11.220  20.945  0.00  0.00    +0.000 HD
ATOM     25  H   UNL     1       0.394  14.182  22.047  0.00  0.00    +0.000 HD
BRANCH  23  26
ATOM     26  C   UNL     1      -1.286  13.186  22.719  0.00  0.00    +0.000 A 
ATOM     27  C   UNL     1      -2.009  12.002  22.878  0.00  0.00    +0.000 A 
ATOM     28  C   UNL     1      -3.198  11.997  23.616  0.00  0.00    +0.000 A 
ATOM     29  C   UNL     1      -3.671  13.173  24.199  0.00  0.00    +0.000 A 
ATOM     30  C   UNL     1      -2.933  14.345  24.069  0.00  0.00    +0.000 A 
ATOM     31 BR   UNL     1      -3.559  15.942  24.867  0.00  0.00    +0.000 Br
ATOM     32  C   UNL     1      -1.739  14.352  23.350  0.00  0.00    +0.000 A 
ENDBRANCH  23  26
ENDBRANCH   1  22
TORSDOF 3
ENDMDL
MODEL 8
REMARK VINA RESULT:      -9.2      3.278      4.516
REMARK  Name = 
REMARK  3 active torsions:
REMARK  status: ('A' for Active; 'I' for Inactive)
REMARK    1  A    between atoms: N_3  and  C_4
REMARK    2  A    between atoms: C_7  and  N_8
REMARK    3  A    between atoms: N_22  and  C_23
REMARK                            x       y       z     vdW  Elec       q    Type
REMARK                         _______ _______ _______ _____ _____    ______ ____
ROOT
ATOM      1  C   UNL     1       0.953  10.498  19.387  0.00  0.00    +0.000 A 
ATOM      2  C   UNL     1       1.545   9.773  18.351  0.00  0.00    +0.000 A 
ATOM      3  C   UNL     1       1.994   8.452  18.536  0.00  0.00    +0.000 A 
ATOM      4  C   UNL     1       1.903   7.821  19.769  0.00  0.00    +0.000 A 
ATOM      5  C   UNL     1       1.251   8.535  20.795  0.00  0.00    +0.000 A 
ATOM      6  C   UNL     1       0.784   9.850  20.609  0.00  0.00    +0.000 A 
ENDROOT
BRANCH   4   7
ATOM      7  N   UNL     1       2.484   6.581  20.085  0.00  0.00    +0.000 N 
ATOM      8  C   UNL     1       3.179   5.620  19.395  0.00  0.00    +0.000 C 
ATOM      9  N   UNL     1       3.167   4.415  19.917  0.00  0.00    +0.000 NA
ATOM     10  S   UNL     1       3.993   3.352  18.989  0.00  0.00    +0.000 S 
ATOM     11  O   UNL     1       5.297   3.107  19.562  0.00  0.00    +0.000 OA
ATOM     12  O   UNL     1       3.128   2.290  18.529  0.00  0.00    +0.000 OA
ATOM     13  C   UNL     1       4.242   4.450  17.667  0.00  0.00    +0.000 A 
ATOM     14  C   UNL     1       4.833   4.149  16.454  0.00  0.00    +0.000 A 
ATOM     15  C   UNL     1       5.262   5.226  15.690  0.00  0.00    +0.000 A 
ATOM     16  C   UNL     1       5.131   6.535  16.190  0.00  0.00    +0.000 A 
ATOM     17  C   UNL     1       4.468   6.794  17.408  0.00  0.00    +0.000 A 
ATOM     18  C   UNL     1       3.946   5.727  18.117  0.00  0.00    +0.000 A 
ATOM     19  H   UNL     1       2.085   6.193  20.938  0.00  0.00    +0.000 HD
ENDBRANCH   4   7
BRANCH   1  22
ATOM     20  O   UNL     1      -1.364  11.618  17.953  0.00  0.00    +0.000 OA
ATOM     21  C   UNL     1      -0.532  12.308  18.538  0.00  0.00    +0.000 C 
ATOM     22  N   UNL     1       0.534  11.848  19.262  0.00  0.00    +0.000 N 
ATOM     23  N   UNL     1      -0.768  13.657  18.551  0.00  0.00    +0.000 N 
ATOM     24  H   UNL     1       0.973  12.513  19.881  0.00  0.00    +0.000 HD
ATOM     25  H   UNL     1      -1.713  13.845  18.223  0.00  0.00    +0.000 HD
BRANCH  23  26
ATOM     26  C   UNL     1       0.017  14.784  18.846  0.00  0.00    +0.000 A 
ATOM     27  C   UNL     1       1.403  14.837  18.680  0.00  0.00    +0.000 A 
ATOM     28  C   UNL     1       2.103  16.011  18.981  0.00  0.00    +0.000 A 
ATOM     29  C   UNL     1       1.424  17.137  19.448  0.00  0.00    +0.000 A 
ATOM     30  C   UNL     1       0.041  17.095  19.581  0.00  0.00    +0.000 A 
ATOM     31 BR   UNL     1      -0.890  18.621  20.199  0.00  0.00    +0.000 Br
ATOM     32  C   UNL     1      -0.664  15.934  19.265  0.00  0.00    +0.000 A 
ENDBRANCH  23  26
ENDBRANCH   1  22
TORSDOF 3
ENDMDL
MODEL 9
REMARK VINA RESULT:      -9.2      1.904      2.302
REMARK  Name = 
REMARK  3 active torsions:
REMARK  status: ('A' for Active; 'I' for Inactive)
REMARK    1  A    between atoms: N_3  and  C_4
REMARK    2  A    between atoms: C_7  and  N_8
REMARK    3  A    between atoms: N_22  and  C_23
REMARK                            x       y       z     vdW  Elec       q    Type
REMARK                         _______ _______ _______ _____ _____    ______ ____
ROOT
ATOM      1  C   UNL     1       0.611   9.782  19.941  0.00  0.00    +0.000 A 
ATOM      2  C   UNL     1       0.840  10.044  18.589  0.00  0.00    +0.000 A 
ATOM      3  C   UNL     1       1.700   9.242  17.816  0.00  0.00    +0.000 A 
ATOM      4  C   UNL     1       2.389   8.174  18.372  0.00  0.00    +0.000 A 
ATOM      5  C   UNL     1       2.110   7.877  19.722  0.00  0.00    +0.000 A 
ATOM      6  C   UNL     1       1.236   8.667  20.494  0.00  0.00    +0.000 A 
ENDROOT
BRANCH   4   7
ATOM      7  N   UNL     1       3.396   7.438  17.724  0.00  0.00    +0.000 N 
ATOM      8  C   UNL     1       3.774   6.119  17.682  0.00  0.00    +0.000 C 
ATOM      9  N   UNL     1       5.017   5.888  17.326  0.00  0.00    +0.000 NA
ATOM     10  S   UNL     1       5.359   4.290  17.351  0.00  0.00    +0.000 S 
ATOM     11  O   UNL     1       5.341   3.761  16.005  0.00  0.00    +0.000 OA
ATOM     12  O   UNL     1       6.421   4.005  18.289  0.00  0.00    +0.000 OA
ATOM     13  C   UNL     1       3.858   3.813  18.080  0.00  0.00    +0.000 A 
ATOM     14  C   UNL     1       3.510   2.535  18.476  0.00  0.00    +0.000 A 
ATOM     15  C   UNL     1       2.159   2.300  18.693  0.00  0.00    +0.000 A 
ATOM     16  C   UNL     1       1.223   3.325  18.455  0.00  0.00    +0.000 A 
ATOM     17  C   UNL     1       1.634   4.629  18.108  0.00  0.00    +0.000 A 
ATOM     18  C   UNL     1       2.988   4.889  17.997  0.00  0.00    +0.000 A 
ATOM     19  H   UNL     1       4.163   8.041  17.429  0.00  0.00    +0.000 HD
ENDBRANCH   4   7
BRANCH   1  22
ATOM     20  O   UNL     1       0.498   9.942  22.880  0.00  0.00    +0.000 OA
ATOM     21  C   UNL     1      -0.241  10.586  22.139  0.00  0.00    +0.000 C 
ATOM     22  N   UNL     1      -0.205  10.594  20.772  0.00  0.00    +0.000 N 
ATOM     23  N   UNL     1      -1.104  11.455  22.752  0.00  0.00    +0.000 N 
ATOM     24  H   UNL     1      -0.697  11.349  20.317  0.00  0.00    +0.000 HD
ATOM     25  H   UNL     1      -0.851  11.557  23.733  0.00  0.00    +0.000 HD
BRANCH  23  26
ATOM     26  C   UNL     1      -2.253  12.148  22.338  0.00  0.00    +0.000 A 
ATOM     27  C   UNL     1      -2.398  12.740  21.080  0.00  0.00    +0.000 A 
ATOM     28  C   UNL     1      -3.589  13.395  20.745  0.00  0.00    +0.000 A 
ATOM     29  C   UNL     1      -4.640  13.461  21.660  0.00  0.00    +0.000 A 
ATOM     30  C   UNL     1      -4.508  12.843  22.898  0.00  0.00    +0.000 A 
ATOM     31 BR   UNL     1      -5.933  12.915  24.140  0.00  0.00    +0.000 Br
ATOM     32  C   UNL     1      -3.331  12.173  23.232  0.00  0.00    +0.000 A 
ENDBRANCH  23  26
ENDBRANCH   1  22
TORSDOF 3
ENDMDL
