MODEL 1
REMARK VINA RESULT:      -7.6      0.000      0.000
REMARK  Name = 
REMARK  7 active torsions:
REMARK  status: ('A' for Active; 'I' for Inactive)
REMARK    1  A    between atoms: C_1  and  C_2
REMARK    2  A    between atoms: C_5  and  N_6
REMARK    3  A    between atoms: N_6  and  C_14
REMARK    4  A    between atoms: C_7  and  C_9
REMARK    5  A    between atoms: C_14  and  C_15
REMARK    6  A    between atoms: C_14  and  C_24
REMARK    7  A    between atoms: N_17  and  C_18
REMARK                            x       y       z     vdW  Elec       q    Type
REMARK                         _______ _______ _______ _____ _____    ______ ____
ROOT
ATOM      1  C   UNL     1       1.387  13.035  20.008  0.00  0.00    +0.000 C 
ENDROOT
BRANCH   1   2
ATOM      2  C   UNL     1       1.845  14.209  19.116  0.00  0.00    +0.000 A 
ATOM      3  C   UNL     1       1.437  15.528  19.329  0.00  0.00    +0.000 A 
ATOM      4  C   UNL     1       2.088  16.587  18.678  0.00  0.00    +0.000 A 
ATOM      5  C   UNL     1       3.144  16.333  17.808  0.00  0.00    +0.000 A 
ATOM      6  C   UNL     1       3.502  15.023  17.517  0.00  0.00    +0.000 A 
ATOM      7  C   UNL     1       2.829  13.966  18.135  0.00  0.00    +0.000 A 
ENDBRANCH   1   2
BRANCH   1   8
ATOM      8  C   UNL     1       0.830  13.528  21.408  0.00  0.00    +0.000 C 
ATOM      9  O   UNL     1       1.506  14.200  22.188  0.00  0.00    +0.000 OA
ATOM     10  N   UNL     1      -0.465  13.131  21.706  0.00  0.00    +0.000 N 
ATOM     11  H   UNL     1      -0.884  12.434  21.109  0.00  0.00    +0.000 HD
BRANCH  10  12
ATOM     12  C   UNL     1      -1.188  13.437  22.935  0.00  0.00    +0.000 C 
ATOM     13  C   UNL     1      -1.735  14.873  22.871  0.00  0.00    +0.000 C 
ATOM     14  C   UNL     1      -2.847  15.046  21.831  0.00  0.00    +0.000 C 
ATOM     15  C   UNL     1      -3.961  14.018  22.002  0.00  0.00    +0.000 C 
ATOM     16  C   UNL     1      -3.422  12.595  22.075  0.00  0.00    +0.000 C 
ATOM     17  C   UNL     1      -2.335  12.443  23.142  0.00  0.00    +0.000 C 
ENDBRANCH  10  12
ENDBRANCH   1   8
BRANCH   1  18
ATOM     18  N   UNL     1       0.517  12.024  19.338  0.00  0.00    +0.000 N 
ATOM     19  C   UNL     1      -0.612  12.506  18.644  0.00  0.00    +0.000 C 
ATOM     20  O   UNL     1      -0.858  13.714  18.599  0.00  0.00    +0.000 OA
BRANCH  18  25
ATOM     21  C   UNL     1       2.685   6.732  18.741  0.00  0.00    +0.000 C 
ATOM     22  C   UNL     1       2.076   8.096  18.868  0.00  0.00    +0.000 A 
ATOM     23  C   UNL     1       2.209   9.034  17.842  0.00  0.00    +0.000 A 
ATOM     24  C   UNL     1       1.708  10.332  17.996  0.00  0.00    +0.000 A 
ATOM     25  C   UNL     1       1.048  10.708  19.172  0.00  0.00    +0.000 A 
ATOM     26  C   UNL     1       0.929   9.771  20.202  0.00  0.00    +0.000 A 
ATOM     27  C   UNL     1       1.436   8.477  20.050  0.00  0.00    +0.000 A 
ENDBRANCH  18  25
BRANCH  19  28
ATOM     28  C   UNL     1      -1.527  11.583  17.973  0.00  0.00    +0.000 A 
ATOM     29  C   UNL     1      -2.218  10.448  18.379  0.00  0.00    +0.000 A 
ATOM     30  C   UNL     1      -2.830   9.867  17.239  0.00  0.00    +0.000 A 
ATOM     31  C   UNL     1      -2.608  10.719  16.185  0.00  0.00    +0.000 A 
ATOM     32  N   UNL     1      -1.893  11.786  16.655  0.00  0.00    +0.000 N 
ATOM     33  H   UNL     1      -1.598  12.590  16.113  0.00  0.00    +0.000 HD
ENDBRANCH  19  28
ENDBRANCH   1  18
TORSDOF 6
ENDMDL
MODEL 2
REMARK VINA RESULT:      -7.2      1.637      2.150
REMARK  Name = 
REMARK  7 active torsions:
REMARK  status: ('A' for Active; 'I' for Inactive)
REMARK    1  A    between atoms: C_1  and  C_2
REMARK    2  A    between atoms: C_5  and  N_6
REMARK    3  A    between atoms: N_6  and  C_14
REMARK    4  A    between atoms: C_7  and  C_9
REMARK    5  A    between atoms: C_14  and  C_15
REMARK    6  A    between atoms: C_14  and  C_24
REMARK    7  A    between atoms: N_17  and  C_18
REMARK                            x       y       z     vdW  Elec       q    Type
REMARK                         _______ _______ _______ _____ _____    ______ ____
ROOT
ATOM      1  C   UNL     1      -0.179  12.006  21.349  0.00  0.00    +0.000 C 
ENDROOT
BRANCH   1   2
ATOM      2  C   UNL     1       0.224  13.483  21.144  0.00  0.00    +0.000 A 
ATOM      3  C   UNL     1      -0.088  14.489  22.062  0.00  0.00    +0.000 A 
ATOM      4  C   UNL     1       0.530  15.746  21.975  0.00  0.00    +0.000 A 
ATOM      5  C   UNL     1       1.459  16.004  20.972  0.00  0.00    +0.000 A 
ATOM      6  C   UNL     1       1.713  15.044  20.000  0.00  0.00    +0.000 A 
ATOM      7  C   UNL     1       1.068  13.807  20.061  0.00  0.00    +0.000 A 
ENDBRANCH   1   2
BRANCH   1   8
ATOM      8  C   UNL     1      -1.179  11.822  22.565  0.00  0.00    +0.000 C 
ATOM      9  O   UNL     1      -0.963  11.030  23.483  0.00  0.00    +0.000 OA
ATOM     10  N   UNL     1      -2.329  12.596  22.513  0.00  0.00    +0.000 N 
ATOM     11  H   UNL     1      -2.524  13.076  21.647  0.00  0.00    +0.000 HD
BRANCH  10  12
ATOM     12  C   UNL     1      -3.407  12.588  23.495  0.00  0.00    +0.000 C 
ATOM     13  C   UNL     1      -3.150  13.673  24.555  0.00  0.00    +0.000 C 
ATOM     14  C   UNL     1      -3.275  15.096  23.999  0.00  0.00    +0.000 C 
ATOM     15  C   UNL     1      -4.594  15.314  23.267  0.00  0.00    +0.000 C 
ATOM     16  C   UNL     1      -4.857  14.236  22.223  0.00  0.00    +0.000 C 
ATOM     17  C   UNL     1      -4.756  12.826  22.810  0.00  0.00    +0.000 C 
ENDBRANCH  10  12
ENDBRANCH   1   8
BRANCH   1  18
ATOM     18  N   UNL     1      -0.596  11.280  20.113  0.00  0.00    +0.000 N 
ATOM     19  C   UNL     1      -1.673  11.821  19.381  0.00  0.00    +0.000 C 
ATOM     20  O   UNL     1      -2.237  12.852  19.757  0.00  0.00    +0.000 OA
BRANCH  18  25
ATOM     21  C   UNL     1       3.067   7.340  18.082  0.00  0.00    +0.000 C 
ATOM     22  C   UNL     1       2.073   8.345  18.581  0.00  0.00    +0.000 A 
ATOM     23  C   UNL     1       1.772   9.484  17.830  0.00  0.00    +0.000 A 
ATOM     24  C   UNL     1       0.903  10.459  18.335  0.00  0.00    +0.000 A 
ATOM     25  C   UNL     1       0.305  10.302  19.592  0.00  0.00    +0.000 A 
ATOM     26  C   UNL     1       0.619   9.168  20.345  0.00  0.00    +0.000 A 
ATOM     27  C   UNL     1       1.492   8.198  19.844  0.00  0.00    +0.000 A 
ENDBRANCH  18  25
BRANCH  19  28
ATOM     28  C   UNL     1      -2.158  11.164  18.167  0.00  0.00    +0.000 A 
ATOM     29  C   UNL     1      -2.721   9.922  17.905  0.00  0.00    +0.000 A 
ATOM     30  C   UNL     1      -2.841   9.775  16.500  0.00  0.00    +0.000 A 
ATOM     31  C   UNL     1      -2.467  10.969  15.936  0.00  0.00    +0.000 A 
ATOM     32  N   UNL     1      -2.135  11.824  16.953  0.00  0.00    +0.000 N 
ATOM     33  H   UNL     1      -1.840  12.788  16.847  0.00  0.00    +0.000 HD
ENDBRANCH  19  28
ENDBRANCH   1  18
TORSDOF 6
ENDMDL
MODEL 3
REMARK VINA RESULT:      -7.1      1.348      1.862
REMARK  Name = 
REMARK  7 active torsions:
REMARK  status: ('A' for Active; 'I' for Inactive)
REMARK    1  A    between atoms: C_1  and  C_2
REMARK    2  A    between atoms: C_5  and  N_6
REMARK    3  A    between atoms: N_6  and  C_14
REMARK    4  A    between atoms: C_7  and  C_9
REMARK    5  A    between atoms: C_14  and  C_15
REMARK    6  A    between atoms: C_14  and  C_24
REMARK    7  A    between atoms: N_17  and  C_18
REMARK                            x       y       z     vdW  Elec       q    Type
REMARK                         _______ _______ _______ _____ _____    ______ ____
ROOT
ATOM      1  C   UNL     1       0.300  12.102  21.226  0.00  0.00    +0.000 C 
ENDROOT
BRANCH   1   2
ATOM      2  C   UNL     1       0.856  13.506  20.904  0.00  0.00    +0.000 A 
ATOM      3  C   UNL     1       1.459  13.822  19.684  0.00  0.00    +0.000 A 
ATOM      4  C   UNL     1       1.693  15.160  19.332  0.00  0.00    +0.000 A 
ATOM      5  C   UNL     1       1.331  16.187  20.198  0.00  0.00    +0.000 A 
ATOM      6  C   UNL     1       0.812  15.886  21.452  0.00  0.00    +0.000 A 
ATOM      7  C   UNL     1       0.615  14.552  21.819  0.00  0.00    +0.000 A 
ENDBRANCH   1   2
BRANCH   1   8
ATOM      8  C   UNL     1      -0.677  12.116  22.475  0.00  0.00    +0.000 C 
ATOM      9  O   UNL     1      -0.648  11.245  23.345  0.00  0.00    +0.000 OA
ATOM     10  N   UNL     1      -1.583  13.165  22.510  0.00  0.00    +0.000 N 
ATOM     11  H   UNL     1      -1.672  13.727  21.677  0.00  0.00    +0.000 HD
BRANCH  10  12
ATOM     12  C   UNL     1      -2.595  13.383  23.537  0.00  0.00    +0.000 C 
ATOM     13  C   UNL     1      -2.916  14.884  23.638  0.00  0.00    +0.000 C 
ATOM     14  C   UNL     1      -3.637  15.429  22.401  0.00  0.00    +0.000 C 
ATOM     15  C   UNL     1      -4.870  14.604  22.044  0.00  0.00    +0.000 C 
ATOM     16  C   UNL     1      -4.559  13.116  21.952  0.00  0.00    +0.000 C 
ATOM     17  C   UNL     1      -3.866  12.591  23.212  0.00  0.00    +0.000 C 
ENDBRANCH  10  12
ENDBRANCH   1   8
BRANCH   1  18
ATOM     18  N   UNL     1      -0.232  11.341  20.057  0.00  0.00    +0.000 N 
ATOM     19  C   UNL     1      -1.325  11.905  19.366  0.00  0.00    +0.000 C 
ATOM     20  O   UNL     1      -1.810  12.981  19.723  0.00  0.00    +0.000 OA
BRANCH  18  25
ATOM     21  C   UNL     1       3.082   7.111  18.011  0.00  0.00    +0.000 C 
ATOM     22  C   UNL     1       2.177   8.195  18.515  0.00  0.00    +0.000 A 
ATOM     23  C   UNL     1       1.950   9.345  17.755  0.00  0.00    +0.000 A 
ATOM     24  C   UNL     1       1.167  10.389  18.263  0.00  0.00    +0.000 A 
ATOM     25  C   UNL     1       0.582  10.292  19.532  0.00  0.00    +0.000 A 
ATOM     26  C   UNL     1       0.822   9.145  20.293  0.00  0.00    +0.000 A 
ATOM     27  C   UNL     1       1.610   8.106  19.789  0.00  0.00    +0.000 A 
ENDBRANCH  18  25
BRANCH  19  28
ATOM     28  C   UNL     1      -1.919  11.218  18.219  0.00  0.00    +0.000 A 
ATOM     29  C   UNL     1      -2.476   9.959  18.034  0.00  0.00    +0.000 A 
ATOM     30  C   UNL     1      -2.741   9.787  16.652  0.00  0.00    +0.000 A 
ATOM     31  C   UNL     1      -2.458  10.982  16.036  0.00  0.00    +0.000 A 
ATOM     32  N   UNL     1      -2.042  11.859  17.001  0.00  0.00    +0.000 N 
ATOM     33  H   UNL     1      -1.784  12.828  16.851  0.00  0.00    +0.000 HD
ENDBRANCH  19  28
ENDBRANCH   1  18
TORSDOF 6
ENDMDL
MODEL 4
REMARK VINA RESULT:      -7.0      1.820      2.661
REMARK  Name = 
REMARK  7 active torsions:
REMARK  status: ('A' for Active; 'I' for Inactive)
REMARK    1  A    between atoms: C_1  and  C_2
REMARK    2  A    between atoms: C_5  and  N_6
REMARK    3  A    between atoms: N_6  and  C_14
REMARK    4  A    between atoms: C_7  and  C_9
REMARK    5  A    between atoms: C_14  and  C_15
REMARK    6  A    between atoms: C_14  and  C_24
REMARK    7  A    between atoms: N_17  and  C_18
REMARK                            x       y       z     vdW  Elec       q    Type
REMARK                         _______ _______ _______ _____ _____    ______ ____
ROOT
ATOM      1  C   UNL     1      -0.437  11.906  21.410  0.00  0.00    +0.000 C 
ENDROOT
BRANCH   1   2
ATOM      2  C   UNL     1      -0.006  13.381  21.260  0.00  0.00    +0.000 A 
ATOM      3  C   UNL     1       0.603  13.880  20.105  0.00  0.00    +0.000 A 
ATOM      4  C   UNL     1       0.722  15.264  19.906  0.00  0.00    +0.000 A 
ATOM      5  C   UNL     1       0.238  16.154  20.859  0.00  0.00    +0.000 A 
ATOM      6  C   UNL     1      -0.289  15.674  22.052  0.00  0.00    +0.000 A 
ATOM      7  C   UNL     1      -0.371  14.296  22.269  0.00  0.00    +0.000 A 
ENDBRANCH   1   2
BRANCH   1   8
ATOM      8  C   UNL     1      -1.514  11.711  22.558  0.00  0.00    +0.000 C 
ATOM      9  O   UNL     1      -1.414  10.831  23.414  0.00  0.00    +0.000 OA
ATOM     10  N   UNL     1      -2.591  12.584  22.518  0.00  0.00    +0.000 N 
ATOM     11  H   UNL     1      -2.699  13.148  21.688  0.00  0.00    +0.000 HD
BRANCH  10  12
ATOM     12  C   UNL     1      -3.717  12.589  23.444  0.00  0.00    +0.000 C 
ATOM     13  C   UNL     1      -3.460  13.610  24.566  0.00  0.00    +0.000 C 
ATOM     14  C   UNL     1      -3.483  15.061  24.074  0.00  0.00    +0.000 C 
ATOM     15  C   UNL     1      -4.750  15.383  23.288  0.00  0.00    +0.000 C 
ATOM     16  C   UNL     1      -5.013  14.369  22.182  0.00  0.00    +0.000 C 
ATOM     17  C   UNL     1      -5.015  12.930  22.706  0.00  0.00    +0.000 C 
ENDBRANCH  10  12
ENDBRANCH   1   8
BRANCH   1  18
ATOM     18  N   UNL     1      -0.785  11.209  20.136  0.00  0.00    +0.000 N 
ATOM     19  C   UNL     1      -1.860  11.731  19.390  0.00  0.00    +0.000 C 
ATOM     20  O   UNL     1      -2.479  12.723  19.783  0.00  0.00    +0.000 OA
BRANCH  18  25
ATOM     21  C   UNL     1       3.038   7.509  17.954  0.00  0.00    +0.000 C 
ATOM     22  C   UNL     1       2.081   8.495  18.554  0.00  0.00    +0.000 A 
ATOM     23  C   UNL     1       1.484   8.246  19.792  0.00  0.00    +0.000 A 
ATOM     24  C   UNL     1       0.532   9.131  20.312  0.00  0.00    +0.000 A 
ATOM     25  C   UNL     1       0.173  10.289  19.611  0.00  0.00    +0.000 A 
ATOM     26  C   UNL     1       0.763  10.527  18.366  0.00  0.00    +0.000 A 
ATOM     27  C   UNL     1       1.709   9.640  17.844  0.00  0.00    +0.000 A 
ENDBRANCH  18  25
BRANCH  19  28
ATOM     28  C   UNL     1      -2.278  11.100  18.138  0.00  0.00    +0.000 A 
ATOM     29  C   UNL     1      -2.786   9.848  17.815  0.00  0.00    +0.000 A 
ATOM     30  C   UNL     1      -2.852   9.745  16.402  0.00  0.00    +0.000 A 
ATOM     31  C   UNL     1      -2.504  10.971  15.892  0.00  0.00    +0.000 A 
ATOM     32  N   UNL     1      -2.239  11.801  16.948  0.00  0.00    +0.000 N 
ATOM     33  H   UNL     1      -1.977  12.778  16.884  0.00  0.00    +0.000 HD
ENDBRANCH  19  28
ENDBRANCH   1  18
TORSDOF 6
ENDMDL
MODEL 5
REMARK VINA RESULT:      -7.0      0.940      1.247
REMARK  Name = 
REMARK  7 active torsions:
REMARK  status: ('A' for Active; 'I' for Inactive)
REMARK    1  A    between atoms: C_1  and  C_2
REMARK    2  A    between atoms: C_5  and  N_6
REMARK    3  A    between atoms: N_6  and  C_14
REMARK    4  A    between atoms: C_7  and  C_9
REMARK    5  A    between atoms: C_14  and  C_15
REMARK    6  A    between atoms: C_14  and  C_24
REMARK    7  A    between atoms: N_17  and  C_18
REMARK                            x       y       z     vdW  Elec       q    Type
REMARK                         _______ _______ _______ _____ _____    ______ ____
ROOT
ATOM      1  C   UNL     1       1.015  12.981  20.511  0.00  0.00    +0.000 C 
ENDROOT
BRANCH   1   2
ATOM      2  C   UNL     1       2.241  13.610  19.814  0.00  0.00    +0.000 A 
ATOM      3  C   UNL     1       2.262  13.922  18.452  0.00  0.00    +0.000 A 
ATOM      4  C   UNL     1       3.276  14.738  17.925  0.00  0.00    +0.000 A 
ATOM      5  C   UNL     1       4.273  15.241  18.755  0.00  0.00    +0.000 A 
ATOM      6  C   UNL     1       4.316  14.868  20.092  0.00  0.00    +0.000 A 
ATOM      7  C   UNL     1       3.330  14.024  20.609  0.00  0.00    +0.000 A 
ENDBRANCH   1   2
BRANCH   1   8
ATOM      8  C   UNL     1       0.102  14.069  21.215  0.00  0.00    +0.000 C 
ATOM      9  O   UNL     1       0.366  15.271  21.186  0.00  0.00    +0.000 OA
ATOM     10  N   UNL     1      -1.005  13.571  21.887  0.00  0.00    +0.000 N 
ATOM     11  H   UNL     1      -1.053  12.573  22.024  0.00  0.00    +0.000 HD
BRANCH  10  12
ATOM     12  C   UNL     1      -1.978  14.365  22.629  0.00  0.00    +0.000 C 
ATOM     13  C   UNL     1      -3.122  14.790  21.693  0.00  0.00    +0.000 C 
ATOM     14  C   UNL     1      -3.994  13.614  21.238  0.00  0.00    +0.000 C 
ATOM     15  C   UNL     1      -4.496  12.782  22.412  0.00  0.00    +0.000 C 
ATOM     16  C   UNL     1      -3.368  12.367  23.348  0.00  0.00    +0.000 C 
ATOM     17  C   UNL     1      -2.532  13.563  23.811  0.00  0.00    +0.000 C 
ENDBRANCH  10  12
ENDBRANCH   1   8
BRANCH   1  18
ATOM     18  N   UNL     1       0.251  11.994  19.691  0.00  0.00    +0.000 N 
ATOM     19  C   UNL     1      -0.805  12.495  18.901  0.00  0.00    +0.000 C 
ATOM     20  O   UNL     1      -1.074  13.699  18.896  0.00  0.00    +0.000 OA
BRANCH  18  25
ATOM     21  C   UNL     1       2.614   6.792  19.047  0.00  0.00    +0.000 C 
ATOM     22  C   UNL     1       1.954   8.131  19.188  0.00  0.00    +0.000 A 
ATOM     23  C   UNL     1       2.012   9.067  18.152  0.00  0.00    +0.000 A 
ATOM     24  C   UNL     1       1.463  10.343  18.317  0.00  0.00    +0.000 A 
ATOM     25  C   UNL     1       0.830  10.701  19.514  0.00  0.00    +0.000 A 
ATOM     26  C   UNL     1       0.785   9.766  20.552  0.00  0.00    +0.000 A 
ATOM     27  C   UNL     1       1.340   8.493  20.390  0.00  0.00    +0.000 A 
ENDBRANCH  18  25
BRANCH  19  28
ATOM     28  C   UNL     1      -1.616  11.596  18.080  0.00  0.00    +0.000 A 
ATOM     29  C   UNL     1      -2.234  10.374  18.315  0.00  0.00    +0.000 A 
ATOM     30  C   UNL     1      -2.749   9.891  17.085  0.00  0.00    +0.000 A 
ATOM     31  C   UNL     1      -2.548  10.877  16.150  0.00  0.00    +0.000 A 
ATOM     32  N   UNL     1      -1.938  11.929  16.778  0.00  0.00    +0.000 N 
ATOM     33  H   UNL     1      -1.684  12.811  16.349  0.00  0.00    +0.000 HD
ENDBRANCH  19  28
ENDBRANCH   1  18
TORSDOF 6
ENDMDL
MODEL 6
REMARK VINA RESULT:      -7.0      0.598      1.446
REMARK  Name = 
REMARK  7 active torsions:
REMARK  status: ('A' for Active; 'I' for Inactive)
REMARK    1  A    between atoms: C_1  and  C_2
REMARK    2  A    between atoms: C_5  and  N_6
REMARK    3  A    between atoms: N_6  and  C_14
REMARK    4  A    between atoms: C_7  and  C_9
REMARK    5  A    between atoms: C_14  and  C_15
REMARK    6  A    between atoms: C_14  and  C_24
REMARK    7  A    between atoms: N_17  and  C_18
REMARK                            x       y       z     vdW  Elec       q    Type
REMARK                         _______ _______ _______ _____ _____    ______ ____
ROOT
ATOM      1  C   UNL     1       1.182  13.197  20.492  0.00  0.00    +0.000 C 
ENDROOT
BRANCH   1   2
ATOM      2  C   UNL     1       1.987  14.179  19.613  0.00  0.00    +0.000 A 
ATOM      3  C   UNL     1       2.854  13.756  18.602  0.00  0.00    +0.000 A 
ATOM      4  C   UNL     1       3.343  14.670  17.656  0.00  0.00    +0.000 A 
ATOM      5  C   UNL     1       2.973  16.010  17.719  0.00  0.00    +0.000 A 
ATOM      6  C   UNL     1       2.183  16.462  18.769  0.00  0.00    +0.000 A 
ATOM      7  C   UNL     1       1.728  15.560  19.733  0.00  0.00    +0.000 A 
ENDBRANCH   1   2
BRANCH   1   8
ATOM      8  C   UNL     1       0.411  13.937  21.664  0.00  0.00    +0.000 C 
ATOM      9  O   UNL     1       0.998  14.486  22.597  0.00  0.00    +0.000 OA
ATOM     10  N   UNL     1      -0.973  13.903  21.579  0.00  0.00    +0.000 N 
ATOM     11  H   UNL     1      -1.379  13.282  20.896  0.00  0.00    +0.000 HD
BRANCH  10  12
ATOM     12  C   UNL     1      -1.899  14.487  22.543  0.00  0.00    +0.000 C 
ATOM     13  C   UNL     1      -3.150  15.002  21.811  0.00  0.00    +0.000 C 
ATOM     14  C   UNL     1      -4.011  13.876  21.227  0.00  0.00    +0.000 C 
ATOM     15  C   UNL     1      -4.354  12.816  22.268  0.00  0.00    +0.000 C 
ATOM     16  C   UNL     1      -3.119  12.310  23.002  0.00  0.00    +0.000 C 
ATOM     17  C   UNL     1      -2.294  13.452  23.600  0.00  0.00    +0.000 C 
ENDBRANCH  10  12
ENDBRANCH   1   8
BRANCH   1  18
ATOM     18  N   UNL     1       0.341  12.214  19.747  0.00  0.00    +0.000 N 
ATOM     19  C   UNL     1      -0.692  12.733  18.939  0.00  0.00    +0.000 C 
ATOM     20  O   UNL     1      -0.881  13.949  18.860  0.00  0.00    +0.000 OA
BRANCH  18  25
ATOM     21  C   UNL     1       2.284   6.823  19.275  0.00  0.00    +0.000 C 
ATOM     22  C   UNL     1       1.822   8.241  19.425  0.00  0.00    +0.000 A 
ATOM     23  C   UNL     1       1.201   8.668  20.601  0.00  0.00    +0.000 A 
ATOM     24  C   UNL     1       0.701   9.971  20.708  0.00  0.00    +0.000 A 
ATOM     25  C   UNL     1       0.831  10.876  19.647  0.00  0.00    +0.000 A 
ATOM     26  C   UNL     1       1.443  10.441  18.468  0.00  0.00    +0.000 A 
ATOM     27  C   UNL     1       1.935   9.137  18.359  0.00  0.00    +0.000 A 
ENDBRANCH  18  25
BRANCH  19  28
ATOM     28  C   UNL     1      -1.574  11.839  18.188  0.00  0.00    +0.000 A 
ATOM     29  C   UNL     1      -2.369  10.755  18.538  0.00  0.00    +0.000 A 
ATOM     30  C   UNL     1      -2.877  10.173  17.349  0.00  0.00    +0.000 A 
ATOM     31  C   UNL     1      -2.487  10.978  16.308  0.00  0.00    +0.000 A 
ATOM     32  N   UNL     1      -1.772  12.021  16.833  0.00  0.00    +0.000 N 
ATOM     33  H   UNL     1      -1.373  12.791  16.309  0.00  0.00    +0.000 HD
ENDBRANCH  19  28
ENDBRANCH   1  18
TORSDOF 6
ENDMDL
MODEL 7
REMARK VINA RESULT:      -6.9      1.523      1.931
REMARK  Name = 
REMARK  7 active torsions:
REMARK  status: ('A' for Active; 'I' for Inactive)
REMARK    1  A    between atoms: C_1  and  C_2
REMARK    2  A    between atoms: C_5  and  N_6
REMARK    3  A    between atoms: N_6  and  C_14
REMARK    4  A    between atoms: C_7  and  C_9
REMARK    5  A    between atoms: C_14  and  C_15
REMARK    6  A    between atoms: C_14  and  C_24
REMARK    7  A    between atoms: N_17  and  C_18
REMARK                            x       y       z     vdW  Elec       q    Type
REMARK                         _______ _______ _______ _____ _____    ______ ____
ROOT
ATOM      1  C   UNL     1       0.330  12.031  21.330  0.00  0.00    +0.000 C 
ENDROOT
BRANCH   1   2
ATOM      2  C   UNL     1       1.032  13.371  21.017  0.00  0.00    +0.000 A 
ATOM      3  C   UNL     1       0.675  14.575  21.629  0.00  0.00    +0.000 A 
ATOM      4  C   UNL     1       1.509  15.699  21.526  0.00  0.00    +0.000 A 
ATOM      5  C   UNL     1       2.699  15.626  20.809  0.00  0.00    +0.000 A 
ATOM      6  C   UNL     1       3.024  14.463  20.122  0.00  0.00    +0.000 A 
ATOM      7  C   UNL     1       2.175  13.356  20.191  0.00  0.00    +0.000 A 
ENDBRANCH   1   2
BRANCH   1   8
ATOM      8  C   UNL     1      -0.710  12.163  22.520  0.00  0.00    +0.000 C 
ATOM      9  O   UNL     1      -0.917  11.250  23.320  0.00  0.00    +0.000 OA
ATOM     10  N   UNL     1      -1.390  13.370  22.584  0.00  0.00    +0.000 N 
ATOM     11  H   UNL     1      -1.305  13.991  21.794  0.00  0.00    +0.000 HD
BRANCH  10  12
ATOM     12  C   UNL     1      -2.409  13.722  23.567  0.00  0.00    +0.000 C 
ATOM     13  C   UNL     1      -1.847  14.771  24.542  0.00  0.00    +0.000 C 
ATOM     14  C   UNL     1      -1.598  16.132  23.882  0.00  0.00    +0.000 C 
ATOM     15  C   UNL     1      -2.827  16.644  23.138  0.00  0.00    +0.000 C 
ATOM     16  C   UNL     1      -3.392  15.604  22.178  0.00  0.00    +0.000 C 
ATOM     17  C   UNL     1      -3.659  14.265  22.869  0.00  0.00    +0.000 C 
ENDBRANCH  10  12
ENDBRANCH   1   8
BRANCH   1  18
ATOM     18  N   UNL     1      -0.203  11.296  20.145  0.00  0.00    +0.000 N 
ATOM     19  C   UNL     1      -1.286  11.883  19.458  0.00  0.00    +0.000 C 
ATOM     20  O   UNL     1      -1.762  12.958  19.831  0.00  0.00    +0.000 OA
BRANCH  18  25
ATOM     21  C   UNL     1       3.079   7.068  18.045  0.00  0.00    +0.000 C 
ATOM     22  C   UNL     1       2.182   8.152  18.562  0.00  0.00    +0.000 A 
ATOM     23  C   UNL     1       1.979   9.321  17.825  0.00  0.00    +0.000 A 
ATOM     24  C   UNL     1       1.204  10.364  18.347  0.00  0.00    +0.000 A 
ATOM     25  C   UNL     1       0.604  10.248  19.607  0.00  0.00    +0.000 A 
ATOM     26  C   UNL     1       0.820   9.081  20.345  0.00  0.00    +0.000 A 
ATOM     27  C   UNL     1       1.600   8.043  19.828  0.00  0.00    +0.000 A 
ENDBRANCH  18  25
BRANCH  19  28
ATOM     28  C   UNL     1      -1.880  11.222  18.296  0.00  0.00    +0.000 A 
ATOM     29  C   UNL     1      -2.453   9.974  18.088  0.00  0.00    +0.000 A 
ATOM     30  C   UNL     1      -2.710   9.827  16.701  0.00  0.00    +0.000 A 
ATOM     31  C   UNL     1      -2.407  11.027  16.106  0.00  0.00    +0.000 A 
ATOM     32  N   UNL     1      -1.986  11.884  17.087  0.00  0.00    +0.000 N 
ATOM     33  H   UNL     1      -1.714  12.852  16.955  0.00  0.00    +0.000 HD
ENDBRANCH  19  28
ENDBRANCH   1  18
TORSDOF 6
ENDMDL
MODEL 8
REMARK VINA RESULT:      -6.8      6.622      9.958
REMARK  Name = 
REMARK  7 active torsions:
REMARK  status: ('A' for Active; 'I' for Inactive)
REMARK    1  A    between atoms: C_1  and  C_2
REMARK    2  A    between atoms: C_5  and  N_6
REMARK    3  A    between atoms: N_6  and  C_14
REMARK    4  A    between atoms: C_7  and  C_9
REMARK    5  A    between atoms: C_14  and  C_15
REMARK    6  A    between atoms: C_14  and  C_24
REMARK    7  A    between atoms: N_17  and  C_18
REMARK                            x       y       z     vdW  Elec       q    Type
REMARK                         _______ _______ _______ _____ _____    ______ ____
ROOT
ATOM      1  C   UNL     1       7.747  15.122  18.155  0.00  0.00    +0.000 C 
ENDROOT
BRANCH   1   2
ATOM      2  C   UNL     1       9.026  15.987  18.144  0.00  0.00    +0.000 A 
ATOM      3  C   UNL     1      10.312  15.440  18.178  0.00  0.00    +0.000 A 
ATOM      4  C   UNL     1      11.431  16.236  17.887  0.00  0.00    +0.000 A 
ATOM      5  C   UNL     1      11.271  17.580  17.566  0.00  0.00    +0.000 A 
ATOM      6  C   UNL     1      10.009  18.159  17.615  0.00  0.00    +0.000 A 
ATOM      7  C   UNL     1       8.899  17.377  17.943  0.00  0.00    +0.000 A 
ENDBRANCH   1   2
BRANCH   1   8
ATOM      8  C   UNL     1       8.057  13.589  17.896  0.00  0.00    +0.000 C 
ATOM      9  O   UNL     1       7.486  12.940  17.018  0.00  0.00    +0.000 OA
ATOM     10  N   UNL     1       8.998  13.022  18.741  0.00  0.00    +0.000 N 
ATOM     11  H   UNL     1       9.281  13.559  19.546  0.00  0.00    +0.000 HD
BRANCH  10  12
ATOM     12  C   UNL     1       9.434  11.630  18.718  0.00  0.00    +0.000 C 
ATOM     13  C   UNL     1      10.579  11.462  17.705  0.00  0.00    +0.000 C 
ATOM     14  C   UNL     1      11.872  12.163  18.139  0.00  0.00    +0.000 C 
ATOM     15  C   UNL     1      12.294  11.768  19.550  0.00  0.00    +0.000 C 
ATOM     16  C   UNL     1      11.160  11.924  20.555  0.00  0.00    +0.000 C 
ATOM     17  C   UNL     1       9.891  11.190  20.112  0.00  0.00    +0.000 C 
ENDBRANCH  10  12
ENDBRANCH   1   8
BRANCH   1  18
ATOM     18  N   UNL     1       6.824  15.362  19.304  0.00  0.00    +0.000 N 
ATOM     19  C   UNL     1       5.441  15.242  19.055  0.00  0.00    +0.000 C 
ATOM     20  O   UNL     1       5.025  14.949  17.931  0.00  0.00    +0.000 OA
BRANCH  18  25
ATOM     21  C   UNL     1       9.179  15.462  24.549  0.00  0.00    +0.000 C 
ATOM     22  C   UNL     1       8.516  15.430  23.204  0.00  0.00    +0.000 A 
ATOM     23  C   UNL     1       8.181  14.215  22.603  0.00  0.00    +0.000 A 
ATOM     24  C   UNL     1       7.634  14.186  21.315  0.00  0.00    +0.000 A 
ATOM     25  C   UNL     1       7.396  15.375  20.613  0.00  0.00    +0.000 A 
ATOM     26  C   UNL     1       7.745  16.587  21.213  0.00  0.00    +0.000 A 
ATOM     27  C   UNL     1       8.298  16.615  22.496  0.00  0.00    +0.000 A 
ENDBRANCH  18  25
BRANCH  19  28
ATOM     28  C   UNL     1       4.466  15.477  20.120  0.00  0.00    +0.000 A 
ATOM     29  C   UNL     1       3.966  16.620  20.731  0.00  0.00    +0.000 A 
ATOM     30  C   UNL     1       3.157  16.222  21.825  0.00  0.00    +0.000 A 
ATOM     31  C   UNL     1       3.077  14.852  21.790  0.00  0.00    +0.000 A 
ATOM     32  N   UNL     1       3.802  14.420  20.713  0.00  0.00    +0.000 N 
ATOM     33  H   UNL     1       3.911  13.456  20.417  0.00  0.00    +0.000 HD
ENDBRANCH  19  28
ENDBRANCH   1  18
TORSDOF 6
ENDMDL
MODEL 9
REMARK VINA RESULT:      -6.8      1.633      2.451
REMARK  Name = 
REMARK  7 active torsions:
REMARK  status: ('A' for Active; 'I' for Inactive)
REMARK    1  A    between atoms: C_1  and  C_2
REMARK    2  A    between atoms: C_5  and  N_6
REMARK    3  A    between atoms: N_6  and  C_14
REMARK    4  A    between atoms: C_7  and  C_9
REMARK    5  A    between atoms: C_14  and  C_15
REMARK    6  A    between atoms: C_14  and  C_24
REMARK    7  A    between atoms: N_17  and  C_18
REMARK                            x       y       z     vdW  Elec       q    Type
REMARK                         _______ _______ _______ _____ _____    ______ ____
ROOT
ATOM      1  C   UNL     1       1.035  12.529  20.756  0.00  0.00    +0.000 C 
ENDROOT
BRANCH   1   2
ATOM      2  C   UNL     1       2.160  13.383  20.133  0.00  0.00    +0.000 A 
ATOM      3  C   UNL     1       2.173  13.756  18.787  0.00  0.00    +0.000 A 
ATOM      4  C   UNL     1       3.053  14.751  18.333  0.00  0.00    +0.000 A 
ATOM      5  C   UNL     1       3.925  15.374  19.220  0.00  0.00    +0.000 A 
ATOM      6  C   UNL     1       3.987  14.952  20.543  0.00  0.00    +0.000 A 
ATOM      7  C   UNL     1       3.139  13.934  20.986  0.00  0.00    +0.000 A 
ENDBRANCH   1   2
BRANCH   1   8
ATOM      8  C   UNL     1       0.079  13.384  21.688  0.00  0.00    +0.000 C 
ATOM      9  O   UNL     1      -0.627  12.871  22.557  0.00  0.00    +0.000 OA
ATOM     10  N   UNL     1       0.075  14.749  21.443  0.00  0.00    +0.000 N 
ATOM     11  H   UNL     1       0.532  15.069  20.603  0.00  0.00    +0.000 HD
BRANCH  10  12
ATOM     12  C   UNL     1      -0.734  15.738  22.147  0.00  0.00    +0.000 C 
ATOM     13  C   UNL     1       0.033  16.254  23.377  0.00  0.00    +0.000 C 
ATOM     14  C   UNL     1       1.262  17.093  23.010  0.00  0.00    +0.000 C 
ATOM     15  C   UNL     1       0.922  18.216  22.036  0.00  0.00    +0.000 C 
ATOM     16  C   UNL     1       0.154  17.711  20.821  0.00  0.00    +0.000 C 
ATOM     17  C   UNL     1      -1.084  16.902  21.215  0.00  0.00    +0.000 C 
ENDBRANCH  10  12
ENDBRANCH   1   8
BRANCH   1  18
ATOM     18  N   UNL     1       0.307  11.639  19.804  0.00  0.00    +0.000 N 
ATOM     19  C   UNL     1      -0.780  12.201  19.102  0.00  0.00    +0.000 C 
ATOM     20  O   UNL     1      -1.103  13.378  19.276  0.00  0.00    +0.000 OA
BRANCH  18  25
ATOM     21  C   UNL     1       2.895   6.703  18.388  0.00  0.00    +0.000 C 
ATOM     22  C   UNL     1       2.177   7.975  18.727  0.00  0.00    +0.000 A 
ATOM     23  C   UNL     1       2.193   9.060  17.847  0.00  0.00    +0.000 A 
ATOM     24  C   UNL     1       1.589  10.272  18.201  0.00  0.00    +0.000 A 
ATOM     25  C   UNL     1       0.942  10.414  19.435  0.00  0.00    +0.000 A 
ATOM     26  C   UNL     1       0.939   9.331  20.318  0.00  0.00    +0.000 A 
ATOM     27  C   UNL     1       1.549   8.123  19.967  0.00  0.00    +0.000 A 
ENDBRANCH  18  25
BRANCH  19  28
ATOM     28  C   UNL     1      -1.559  11.395  18.162  0.00  0.00    +0.000 A 
ATOM     29  C   UNL     1      -2.087  10.111  18.203  0.00  0.00    +0.000 A 
ATOM     30  C   UNL     1      -2.613   9.804  16.923  0.00  0.00    +0.000 A 
ATOM     31  C   UNL     1      -2.510  10.942  16.161  0.00  0.00    +0.000 A 
ATOM     32  N   UNL     1      -1.948  11.916  16.942  0.00  0.00    +0.000 N 
ATOM     33  H   UNL     1      -1.767  12.873  16.661  0.00  0.00    +0.000 HD
ENDBRANCH  19  28
ENDBRANCH   1  18
TORSDOF 6
ENDMDL
