MODEL 1
REMARK VINA RESULT:      -8.2      0.000      0.000
REMARK  Name = 
REMARK  9 active torsions:
REMARK  status: ('A' for Active; 'I' for Inactive)
REMARK    1  A    between atoms: C_1  and  O_2
REMARK    2  A    between atoms: O_2  and  C_3
REMARK    3  A    between atoms: C_7  and  C_8
REMARK    4  A    between atoms: C_8  and  N_9
REMARK    5  A    between atoms: N_9  and  C_10
REMARK    6  A    between atoms: N_9  and  C_19
REMARK    7  A    between atoms: C_10  and  C_11
REMARK    8  A    between atoms: C_15  and  O_16
REMARK    9  A    between atoms: O_16  and  C_17
REMARK                            x       y       z     vdW  Elec       q    Type
REMARK                         _______ _______ _______ _____ _____    ______ ____
ROOT
ATOM      1  N   UNL     1       2.946   6.990  18.101  0.00  0.00    +0.000 N 
ENDROOT
BRANCH   1   2
ATOM      2  C   UNL     1       2.150   7.914  18.826  0.00  0.00    +0.000 A 
ATOM      3  C   UNL     1       1.597   9.070  18.230  0.00  0.00    +0.000 A 
ATOM      4  C   UNL     1       0.791  10.009  18.913  0.00  0.00    +0.000 A 
ATOM      5  C   UNL     1       0.507   9.781  20.253  0.00  0.00    +0.000 A 
ATOM      6  N   UNL     1      -0.254  10.513  21.135  0.00  0.00    +0.000 NA
ATOM      7  C   UNL     1      -0.221   9.833  22.249  0.00  0.00    +0.000 A 
ATOM      8  N   UNL     1      -0.849  10.135  23.396  0.00  0.00    +0.000 N 
ATOM      9  N   UNL     1       0.541   8.708  22.138  0.00  0.00    +0.000 N 
ATOM     10  C   UNL     1       1.025   8.648  20.846  0.00  0.00    +0.000 A 
ATOM     11  C   UNL     1       1.833   7.703  20.179  0.00  0.00    +0.000 A 
ATOM     12  H   UNL     1      -1.279  11.058  23.418  0.00  0.00    +0.000 HD
ATOM     13  H   UNL     1      -0.479   9.850  24.295  0.00  0.00    +0.000 HD
ATOM     14  H   UNL     1       0.704   8.032  22.857  0.00  0.00    +0.000 HD
ENDBRANCH   1   2
BRANCH   1  15
ATOM     15  C   UNL     1       2.242   5.820  17.465  0.00  0.00    +0.000 C 
BRANCH  15  20
ATOM     16  C   UNL     1       2.114   2.605  19.593  0.00  0.00    +0.000 A 
ATOM     17  C   UNL     1       2.964   1.742  18.913  0.00  0.00    +0.000 A 
ATOM     18  C   UNL     1       3.637   2.192  17.773  0.00  0.00    +0.000 A 
ATOM     19  C   UNL     1       3.444   3.519  17.321  0.00  0.00    +0.000 A 
ATOM     20  C   UNL     1       2.566   4.403  17.986  0.00  0.00    +0.000 A 
ATOM     21  C   UNL     1       1.906   3.902  19.123  0.00  0.00    +0.000 A 
BRANCH  16  23
ATOM     22  C   UNL     1       2.023   3.229  21.855  0.00  0.00    +0.000 C 
ATOM     23  O   UNL     1       1.704   2.274  20.851  0.00  0.00    +0.000 OA
ENDBRANCH  16  23
ENDBRANCH  15  20
ENDBRANCH   1  15
BRANCH   1  24
ATOM     24  C   UNL     1       4.224   7.462  17.462  0.00  0.00    +0.000 C 
BRANCH  24  25
ATOM     25  C   UNL     1       5.449   6.527  17.286  0.00  0.00    +0.000 A 
ATOM     26  C   UNL     1       6.097   5.918  18.366  0.00  0.00    +0.000 A 
ATOM     27  C   UNL     1       7.037   4.886  18.156  0.00  0.00    +0.000 A 
ATOM     28  C   UNL     1       7.335   4.439  16.867  0.00  0.00    +0.000 A 
ATOM     29  C   UNL     1       6.737   5.034  15.752  0.00  0.00    +0.000 A 
ATOM     30  C   UNL     1       5.797   6.063  15.968  0.00  0.00    +0.000 A 
BRANCH  29  31
ATOM     31  O   UNL     1       7.059   4.420  14.580  0.00  0.00    +0.000 OA
ATOM     32  C   UNL     1       6.019   3.904  13.767  0.00  0.00    +0.000 C 
ENDBRANCH  29  31
ENDBRANCH  24  25
ENDBRANCH   1  24
TORSDOF 7
ENDMDL
MODEL 2
REMARK VINA RESULT:      -8.1      1.435      2.275
REMARK  Name = 
REMARK  9 active torsions:
REMARK  status: ('A' for Active; 'I' for Inactive)
REMARK    1  A    between atoms: C_1  and  O_2
REMARK    2  A    between atoms: O_2  and  C_3
REMARK    3  A    between atoms: C_7  and  C_8
REMARK    4  A    between atoms: C_8  and  N_9
REMARK    5  A    between atoms: N_9  and  C_10
REMARK    6  A    between atoms: N_9  and  C_19
REMARK    7  A    between atoms: C_10  and  C_11
REMARK    8  A    between atoms: C_15  and  O_16
REMARK    9  A    between atoms: O_16  and  C_17
REMARK                            x       y       z     vdW  Elec       q    Type
REMARK                         _______ _______ _______ _____ _____    ______ ____
ROOT
ATOM      1  N   UNL     1       2.861   6.971  18.208  0.00  0.00    +0.000 N 
ENDROOT
BRANCH   1   2
ATOM      2  C   UNL     1       2.060   7.959  18.836  0.00  0.00    +0.000 A 
ATOM      3  C   UNL     1       1.757   7.925  20.216  0.00  0.00    +0.000 A 
ATOM      4  C   UNL     1       0.973   8.894  20.883  0.00  0.00    +0.000 A 
ATOM      5  C   UNL     1       0.476   9.959  20.144  0.00  0.00    +0.000 A 
ATOM      6  N   UNL     1      -0.288  11.034  20.541  0.00  0.00    +0.000 NA
ATOM      7  C   UNL     1      -0.441  11.751  19.461  0.00  0.00    +0.000 A 
ATOM      8  N   UNL     1      -1.089  12.921  19.356  0.00  0.00    +0.000 N 
ATOM      9  N   UNL     1       0.169  11.183  18.380  0.00  0.00    +0.000 N 
ATOM     10  C   UNL     1       0.776  10.016  18.798  0.00  0.00    +0.000 A 
ATOM     11  C   UNL     1       1.554   9.057  18.119  0.00  0.00    +0.000 A 
ATOM     12  H   UNL     1      -1.621  13.190  20.182  0.00  0.00    +0.000 HD
ATOM     13  H   UNL     1      -1.532  13.208  18.492  0.00  0.00    +0.000 HD
ATOM     14  H   UNL     1       0.192  11.557  17.453  0.00  0.00    +0.000 HD
ENDBRANCH   1   2
BRANCH   1  15
ATOM     15  C   UNL     1       2.236   5.621  17.971  0.00  0.00    +0.000 C 
BRANCH  15  20
ATOM     16  C   UNL     1       3.875   2.985  20.260  0.00  0.00    +0.000 A 
ATOM     17  C   UNL     1       2.860   2.665  21.154  0.00  0.00    +0.000 A 
ATOM     18  C   UNL     1       1.603   3.261  21.010  0.00  0.00    +0.000 A 
ATOM     19  C   UNL     1       1.379   4.184  19.961  0.00  0.00    +0.000 A 
ATOM     20  C   UNL     1       2.405   4.538  19.059  0.00  0.00    +0.000 A 
ATOM     21  C   UNL     1       3.654   3.918  19.249  0.00  0.00    +0.000 A 
BRANCH  16  23
ATOM     22  C   UNL     1       5.012   1.140  21.168  0.00  0.00    +0.000 C 
ATOM     23  O   UNL     1       4.986   2.193  20.212  0.00  0.00    +0.000 OA
ENDBRANCH  16  23
ENDBRANCH  15  20
ENDBRANCH   1  15
BRANCH   1  24
ATOM     24  C   UNL     1       3.962   7.400  17.275  0.00  0.00    +0.000 C 
BRANCH  24  25
ATOM     25  C   UNL     1       5.195   6.504  16.993  0.00  0.00    +0.000 A 
ATOM     26  C   UNL     1       6.247   6.357  17.903  0.00  0.00    +0.000 A 
ATOM     27  C   UNL     1       7.220   5.350  17.725  0.00  0.00    +0.000 A 
ATOM     28  C   UNL     1       7.150   4.466  16.646  0.00  0.00    +0.000 A 
ATOM     29  C   UNL     1       6.135   4.590  15.692  0.00  0.00    +0.000 A 
ATOM     30  C   UNL     1       5.165   5.596  15.874  0.00  0.00    +0.000 A 
BRANCH  29  31
ATOM     31  O   UNL     1       6.153   3.595  14.760  0.00  0.00    +0.000 OA
ATOM     32  C   UNL     1       6.326   3.938  13.396  0.00  0.00    +0.000 C 
ENDBRANCH  29  31
ENDBRANCH  24  25
ENDBRANCH   1  24
TORSDOF 7
ENDMDL
MODEL 3
REMARK VINA RESULT:      -7.8      1.318      2.384
REMARK  Name = 
REMARK  9 active torsions:
REMARK  status: ('A' for Active; 'I' for Inactive)
REMARK    1  A    between atoms: C_1  and  O_2
REMARK    2  A    between atoms: O_2  and  C_3
REMARK    3  A    between atoms: C_7  and  C_8
REMARK    4  A    between atoms: C_8  and  N_9
REMARK    5  A    between atoms: N_9  and  C_10
REMARK    6  A    between atoms: N_9  and  C_19
REMARK    7  A    between atoms: C_10  and  C_11
REMARK    8  A    between atoms: C_15  and  O_16
REMARK    9  A    between atoms: O_16  and  C_17
REMARK                            x       y       z     vdW  Elec       q    Type
REMARK                         _______ _______ _______ _____ _____    ______ ____
ROOT
ATOM      1  N   UNL     1       2.746   7.048  18.282  0.00  0.00    +0.000 N 
ENDROOT
BRANCH   1   2
ATOM      2  C   UNL     1       2.047   8.160  18.819  0.00  0.00    +0.000 A 
ATOM      3  C   UNL     1       1.733   9.302  18.049  0.00  0.00    +0.000 A 
ATOM      4  C   UNL     1       1.030  10.426  18.542  0.00  0.00    +0.000 A 
ATOM      5  C   UNL     1       0.604  10.406  19.863  0.00  0.00    +0.000 A 
ATOM      6  N   UNL     1      -0.105  11.344  20.579  0.00  0.00    +0.000 NA
ATOM      7  C   UNL     1      -0.271  10.808  21.758  0.00  0.00    +0.000 A 
ATOM      8  N   UNL     1      -0.937  11.336  22.796  0.00  0.00    +0.000 N 
ATOM      9  N   UNL     1       0.312   9.578  21.846  0.00  0.00    +0.000 N 
ATOM     10  C   UNL     1       0.887   9.291  20.624  0.00  0.00    +0.000 A 
ATOM     11  C   UNL     1       1.589   8.164  20.148  0.00  0.00    +0.000 A 
ATOM     12  H   UNL     1      -1.217  12.307  22.675  0.00  0.00    +0.000 HD
ATOM     13  H   UNL     1      -0.693  11.112  23.753  0.00  0.00    +0.000 HD
ATOM     14  H   UNL     1       0.307   8.978  22.647  0.00  0.00    +0.000 HD
ENDBRANCH   1   2
BRANCH   1  15
ATOM     15  C   UNL     1       1.968   5.775  18.076  0.00  0.00    +0.000 C 
BRANCH  15  20
ATOM     16  C   UNL     1       3.427   2.785  20.028  0.00  0.00    +0.000 A 
ATOM     17  C   UNL     1       2.570   2.668  21.115  0.00  0.00    +0.000 A 
ATOM     18  C   UNL     1       1.469   3.524  21.221  0.00  0.00    +0.000 A 
ATOM     19  C   UNL     1       1.242   4.502  20.224  0.00  0.00    +0.000 A 
ATOM     20  C   UNL     1       2.116   4.652  19.126  0.00  0.00    +0.000 A 
ATOM     21  C   UNL     1       3.212   3.772  19.067  0.00  0.00    +0.000 A 
BRANCH  16  23
ATOM     22  C   UNL     1       4.112   1.120  18.520  0.00  0.00    +0.000 C 
ATOM     23  O   UNL     1       4.306   1.775  19.767  0.00  0.00    +0.000 OA
ENDBRANCH  16  23
ENDBRANCH  15  20
ENDBRANCH   1  15
BRANCH   1  24
ATOM     24  C   UNL     1       3.935   7.287  17.391  0.00  0.00    +0.000 C 
BRANCH  24  25
ATOM     25  C   UNL     1       4.968   6.172  17.084  0.00  0.00    +0.000 A 
ATOM     26  C   UNL     1       5.122   5.611  15.812  0.00  0.00    +0.000 A 
ATOM     27  C   UNL     1       6.229   4.788  15.514  0.00  0.00    +0.000 A 
ATOM     28  C   UNL     1       7.206   4.523  16.476  0.00  0.00    +0.000 A 
ATOM     29  C   UNL     1       7.084   5.035  17.771  0.00  0.00    +0.000 A 
ATOM     30  C   UNL     1       5.977   5.857  18.064  0.00  0.00    +0.000 A 
BRANCH  29  31
ATOM     31  O   UNL     1       8.164   4.765  18.557  0.00  0.00    +0.000 OA
ATOM     32  C   UNL     1       8.212   5.307  19.866  0.00  0.00    +0.000 C 
ENDBRANCH  29  31
ENDBRANCH  24  25
ENDBRANCH   1  24
TORSDOF 7
ENDMDL
MODEL 4
REMARK VINA RESULT:      -7.8      1.368      2.433
REMARK  Name = 
REMARK  9 active torsions:
REMARK  status: ('A' for Active; 'I' for Inactive)
REMARK    1  A    between atoms: C_1  and  O_2
REMARK    2  A    between atoms: O_2  and  C_3
REMARK    3  A    between atoms: C_7  and  C_8
REMARK    4  A    between atoms: C_8  and  N_9
REMARK    5  A    between atoms: N_9  and  C_10
REMARK    6  A    between atoms: N_9  and  C_19
REMARK    7  A    between atoms: C_10  and  C_11
REMARK    8  A    between atoms: C_15  and  O_16
REMARK    9  A    between atoms: O_16  and  C_17
REMARK                            x       y       z     vdW  Elec       q    Type
REMARK                         _______ _______ _______ _____ _____    ______ ____
ROOT
ATOM      1  N   UNL     1       2.605   7.061  18.066  0.00  0.00    +0.000 N 
ENDROOT
BRANCH   1   2
ATOM      2  C   UNL     1       1.958   8.099  18.783  0.00  0.00    +0.000 A 
ATOM      3  C   UNL     1       1.694   8.014  20.169  0.00  0.00    +0.000 A 
ATOM      4  C   UNL     1       1.061   9.030  20.922  0.00  0.00    +0.000 A 
ATOM      5  C   UNL     1       0.685  10.195  20.269  0.00  0.00    +0.000 A 
ATOM      6  N   UNL     1       0.079  11.330  20.759  0.00  0.00    +0.000 NA
ATOM      7  C   UNL     1      -0.012  12.130  19.731  0.00  0.00    +0.000 A 
ATOM      8  N   UNL     1      -0.506  13.377  19.723  0.00  0.00    +0.000 N 
ATOM      9  N   UNL     1       0.487  11.561  18.596  0.00  0.00    +0.000 N 
ATOM     10  C   UNL     1       0.950  10.302  18.919  0.00  0.00    +0.000 A 
ATOM     11  C   UNL     1       1.578   9.297  18.154  0.00  0.00    +0.000 A 
ATOM     12  H   UNL     1      -0.973  13.657  20.583  0.00  0.00    +0.000 HD
ATOM     13  H   UNL     1      -0.933  13.774  18.894  0.00  0.00    +0.000 HD
ATOM     14  H   UNL     1       0.531  11.989  17.693  0.00  0.00    +0.000 HD
ENDBRANCH   1   2
BRANCH   1  15
ATOM     15  C   UNL     1       1.741   5.958  17.513  0.00  0.00    +0.000 C 
BRANCH  15  20
ATOM     16  C   UNL     1       1.471   2.854  19.786  0.00  0.00    +0.000 A 
ATOM     17  C   UNL     1       2.119   1.867  19.053  0.00  0.00    +0.000 A 
ATOM     18  C   UNL     1       2.702   2.192  17.824  0.00  0.00    +0.000 A 
ATOM     19  C   UNL     1       2.622   3.518  17.338  0.00  0.00    +0.000 A 
ATOM     20  C   UNL     1       1.946   4.528  18.057  0.00  0.00    +0.000 A 
ATOM     21  C   UNL     1       1.371   4.151  19.285  0.00  0.00    +0.000 A 
BRANCH  16  23
ATOM     22  C   UNL     1       2.174   3.034  22.020  0.00  0.00    +0.000 C 
ATOM     23  O   UNL     1       1.176   2.617  21.097  0.00  0.00    +0.000 OA
ENDBRANCH  16  23
ENDBRANCH  15  20
ENDBRANCH   1  15
BRANCH   1  24
ATOM     24  C   UNL     1       3.898   7.354  17.352  0.00  0.00    +0.000 C 
BRANCH  24  25
ATOM     25  C   UNL     1       4.937   6.245  17.048  0.00  0.00    +0.000 A 
ATOM     26  C   UNL     1       5.217   5.806  15.749  0.00  0.00    +0.000 A 
ATOM     27  C   UNL     1       6.335   4.985  15.490  0.00  0.00    +0.000 A 
ATOM     28  C   UNL     1       7.197   4.599  16.519  0.00  0.00    +0.000 A 
ATOM     29  C   UNL     1       6.945   4.986  17.838  0.00  0.00    +0.000 A 
ATOM     30  C   UNL     1       5.828   5.808  18.092  0.00  0.00    +0.000 A 
BRANCH  29  31
ATOM     31  O   UNL     1       7.929   4.610  18.703  0.00  0.00    +0.000 OA
ATOM     32  C   UNL     1       8.240   5.457  19.797  0.00  0.00    +0.000 C 
ENDBRANCH  29  31
ENDBRANCH  24  25
ENDBRANCH   1  24
TORSDOF 7
ENDMDL
MODEL 5
REMARK VINA RESULT:      -7.8      0.948      1.746
REMARK  Name = 
REMARK  9 active torsions:
REMARK  status: ('A' for Active; 'I' for Inactive)
REMARK    1  A    between atoms: C_1  and  O_2
REMARK    2  A    between atoms: O_2  and  C_3
REMARK    3  A    between atoms: C_7  and  C_8
REMARK    4  A    between atoms: C_8  and  N_9
REMARK    5  A    between atoms: N_9  and  C_10
REMARK    6  A    between atoms: N_9  and  C_19
REMARK    7  A    between atoms: C_10  and  C_11
REMARK    8  A    between atoms: C_15  and  O_16
REMARK    9  A    between atoms: O_16  and  C_17
REMARK                            x       y       z     vdW  Elec       q    Type
REMARK                         _______ _______ _______ _____ _____    ______ ____
ROOT
ATOM      1  N   UNL     1       2.685   7.009  18.101  0.00  0.00    +0.000 N 
ENDROOT
BRANCH   1   2
ATOM      2  C   UNL     1       2.005   8.037  18.803  0.00  0.00    +0.000 A 
ATOM      3  C   UNL     1       1.664   9.269  18.201  0.00  0.00    +0.000 A 
ATOM      4  C   UNL     1       0.979  10.315  18.861  0.00  0.00    +0.000 A 
ATOM      5  C   UNL     1       0.600  10.121  20.183  0.00  0.00    +0.000 A 
ATOM      6  N   UNL     1      -0.082  10.953  21.041  0.00  0.00    +0.000 NA
ATOM      7  C   UNL     1      -0.206  10.266  22.144  0.00  0.00    +0.000 A 
ATOM      8  N   UNL     1      -0.835  10.651  23.265  0.00  0.00    +0.000 N 
ATOM      9  N   UNL     1       0.380   9.038  22.049  0.00  0.00    +0.000 N 
ATOM     10  C   UNL     1       0.910   8.916  20.781  0.00  0.00    +0.000 A 
ATOM     11  C   UNL     1       1.595   7.865  20.136  0.00  0.00    +0.000 A 
ATOM     12  H   UNL     1      -1.120  11.628  23.282  0.00  0.00    +0.000 HD
ATOM     13  H   UNL     1      -0.557  10.305  24.176  0.00  0.00    +0.000 HD
ATOM     14  H   UNL     1       0.403   8.339  22.764  0.00  0.00    +0.000 HD
ENDBRANCH   1   2
BRANCH   1  15
ATOM     15  C   UNL     1       1.863   5.845  17.612  0.00  0.00    +0.000 C 
BRANCH  15  20
ATOM     16  C   UNL     1       2.238   2.654  19.746  0.00  0.00    +0.000 A 
ATOM     17  C   UNL     1       2.847   1.760  18.874  0.00  0.00    +0.000 A 
ATOM     18  C   UNL     1       3.196   2.180  17.587  0.00  0.00    +0.000 A 
ATOM     19  C   UNL     1       2.921   3.509  17.184  0.00  0.00    +0.000 A 
ATOM     20  C   UNL     1       2.280   4.423  18.048  0.00  0.00    +0.000 A 
ATOM     21  C   UNL     1       1.943   3.951  19.330  0.00  0.00    +0.000 A 
BRANCH  16  23
ATOM     22  C   UNL     1       2.160   3.466  21.948  0.00  0.00    +0.000 C 
ATOM     23  O   UNL     1       2.177   2.345  21.074  0.00  0.00    +0.000 OA
ENDBRANCH  16  23
ENDBRANCH  15  20
ENDBRANCH   1  15
BRANCH   1  24
ATOM     24  C   UNL     1       3.938   7.343  17.337  0.00  0.00    +0.000 C 
BRANCH  24  25
ATOM     25  C   UNL     1       5.005   6.269  17.000  0.00  0.00    +0.000 A 
ATOM     26  C   UNL     1       5.331   5.911  15.687  0.00  0.00    +0.000 A 
ATOM     27  C   UNL     1       6.469   5.123  15.415  0.00  0.00    +0.000 A 
ATOM     28  C   UNL     1       7.306   4.691  16.446  0.00  0.00    +0.000 A 
ATOM     29  C   UNL     1       7.009   4.996  17.777  0.00  0.00    +0.000 A 
ATOM     30  C   UNL     1       5.871   5.784  18.044  0.00  0.00    +0.000 A 
BRANCH  29  31
ATOM     31  O   UNL     1       7.972   4.585  18.648  0.00  0.00    +0.000 OA
ATOM     32  C   UNL     1       8.271   5.395  19.772  0.00  0.00    +0.000 C 
ENDBRANCH  29  31
ENDBRANCH  24  25
ENDBRANCH   1  24
TORSDOF 7
ENDMDL
MODEL 6
REMARK VINA RESULT:      -7.8      1.126      1.599
REMARK  Name = 
REMARK  9 active torsions:
REMARK  status: ('A' for Active; 'I' for Inactive)
REMARK    1  A    between atoms: C_1  and  O_2
REMARK    2  A    between atoms: O_2  and  C_3
REMARK    3  A    between atoms: C_7  and  C_8
REMARK    4  A    between atoms: C_8  and  N_9
REMARK    5  A    between atoms: N_9  and  C_10
REMARK    6  A    between atoms: N_9  and  C_19
REMARK    7  A    between atoms: C_10  and  C_11
REMARK    8  A    between atoms: C_15  and  O_16
REMARK    9  A    between atoms: O_16  and  C_17
REMARK                            x       y       z     vdW  Elec       q    Type
REMARK                         _______ _______ _______ _____ _____    ______ ____
ROOT
ATOM      1  N   UNL     1       2.990   7.016  18.395  0.00  0.00    +0.000 N 
ENDROOT
BRANCH   1   2
ATOM      2  C   UNL     1       2.131   7.978  18.986  0.00  0.00    +0.000 A 
ATOM      3  C   UNL     1       1.520   9.010  18.239  0.00  0.00    +0.000 A 
ATOM      4  C   UNL     1       0.651   9.981  18.787  0.00  0.00    +0.000 A 
ATOM      5  C   UNL     1       0.361   9.914  20.143  0.00  0.00    +0.000 A 
ATOM      6  N   UNL     1      -0.455  10.709  20.915  0.00  0.00    +0.000 NA
ATOM      7  C   UNL     1      -0.399  10.185  22.109  0.00  0.00    +0.000 A 
ATOM      8  N   UNL     1      -1.060  10.596  23.202  0.00  0.00    +0.000 N 
ATOM      9  N   UNL     1       0.430   9.102  22.153  0.00  0.00    +0.000 N 
ATOM     10  C   UNL     1       0.936   8.902  20.884  0.00  0.00    +0.000 A 
ATOM     11  C   UNL     1       1.807   7.928  20.353  0.00  0.00    +0.000 A 
ATOM     12  H   UNL     1      -1.543  11.487  23.099  0.00  0.00    +0.000 HD
ATOM     13  H   UNL     1      -0.688  10.455  24.133  0.00  0.00    +0.000 HD
ATOM     14  H   UNL     1       0.621   8.537  22.956  0.00  0.00    +0.000 HD
ENDBRANCH   1   2
BRANCH   1  15
ATOM     15  C   UNL     1       2.385   5.691  18.011  0.00  0.00    +0.000 C 
BRANCH  15  20
ATOM     16  C   UNL     1       3.570   2.646  20.061  0.00  0.00    +0.000 A 
ATOM     17  C   UNL     1       2.604   2.536  21.053  0.00  0.00    +0.000 A 
ATOM     18  C   UNL     1       1.517   3.417  21.057  0.00  0.00    +0.000 A 
ATOM     19  C   UNL     1       1.415   4.411  20.056  0.00  0.00    +0.000 A 
ATOM     20  C   UNL     1       2.400   4.553  19.055  0.00  0.00    +0.000 A 
ATOM     21  C   UNL     1       3.478   3.649  19.096  0.00  0.00    +0.000 A 
BRANCH  16  23
ATOM     22  C   UNL     1       5.281   1.336  20.996  0.00  0.00    +0.000 C 
ATOM     23  O   UNL     1       4.449   1.619  19.877  0.00  0.00    +0.000 OA
ENDBRANCH  16  23
ENDBRANCH  15  20
ENDBRANCH   1  15
BRANCH   1  24
ATOM     24  C   UNL     1       4.193   7.482  17.619  0.00  0.00    +0.000 C 
BRANCH  24  25
ATOM     25  C   UNL     1       5.212   6.485  17.009  0.00  0.00    +0.000 A 
ATOM     26  C   UNL     1       6.234   5.894  17.759  0.00  0.00    +0.000 A 
ATOM     27  C   UNL     1       6.979   4.813  17.239  0.00  0.00    +0.000 A 
ATOM     28  C   UNL     1       6.706   4.298  15.970  0.00  0.00    +0.000 A 
ATOM     29  C   UNL     1       5.715   4.872  15.169  0.00  0.00    +0.000 A 
ATOM     30  C   UNL     1       4.973   5.951  15.692  0.00  0.00    +0.000 A 
BRANCH  29  31
ATOM     31  O   UNL     1       5.509   4.194  14.005  0.00  0.00    +0.000 OA
ATOM     32  C   UNL     1       6.631   3.809  13.229  0.00  0.00    +0.000 C 
ENDBRANCH  29  31
ENDBRANCH  24  25
ENDBRANCH   1  24
TORSDOF 7
ENDMDL
MODEL 7
REMARK VINA RESULT:      -7.7      1.620      2.292
REMARK  Name = 
REMARK  9 active torsions:
REMARK  status: ('A' for Active; 'I' for Inactive)
REMARK    1  A    between atoms: C_1  and  O_2
REMARK    2  A    between atoms: O_2  and  C_3
REMARK    3  A    between atoms: C_7  and  C_8
REMARK    4  A    between atoms: C_8  and  N_9
REMARK    5  A    between atoms: N_9  and  C_10
REMARK    6  A    between atoms: N_9  and  C_19
REMARK    7  A    between atoms: C_10  and  C_11
REMARK    8  A    between atoms: C_15  and  O_16
REMARK    9  A    between atoms: O_16  and  C_17
REMARK                            x       y       z     vdW  Elec       q    Type
REMARK                         _______ _______ _______ _____ _____    ______ ____
ROOT
ATOM      1  N   UNL     1       3.164   7.600  18.528  0.00  0.00    +0.000 N 
ENDROOT
BRANCH   1   2
ATOM      2  C   UNL     1       2.031   8.393  18.845  0.00  0.00    +0.000 A 
ATOM      3  C   UNL     1       1.572   8.564  20.171  0.00  0.00    +0.000 A 
ATOM      4  C   UNL     1       0.455   9.352  20.530  0.00  0.00    +0.000 A 
ATOM      5  C   UNL     1      -0.231  10.019  19.524  0.00  0.00    +0.000 A 
ATOM      6  N   UNL     1      -1.323  10.854  19.598  0.00  0.00    +0.000 NA
ATOM      7  C   UNL     1      -1.535  11.235  18.368  0.00  0.00    +0.000 A 
ATOM      8  N   UNL     1      -2.480  12.087  17.940  0.00  0.00    +0.000 N 
ATOM      9  N   UNL     1      -0.648  10.672  17.498  0.00  0.00    +0.000 N 
ATOM     10  C   UNL     1       0.215   9.877  18.226  0.00  0.00    +0.000 A 
ATOM     11  C   UNL     1       1.325   9.092  17.851  0.00  0.00    +0.000 A 
ATOM     12  H   UNL     1      -3.171  12.344  18.642  0.00  0.00    +0.000 HD
ATOM     13  H   UNL     1      -2.868  12.025  17.007  0.00  0.00    +0.000 HD
ATOM     14  H   UNL     1      -0.612  10.824  16.510  0.00  0.00    +0.000 HD
ENDBRANCH   1   2
BRANCH   1  15
ATOM     15  C   UNL     1       3.434   6.400  19.397  0.00  0.00    +0.000 C 
BRANCH  15  20
ATOM     16  C   UNL     1       1.100   3.443  20.224  0.00  0.00    +0.000 A 
ATOM     17  C   UNL     1       0.740   2.963  18.971  0.00  0.00    +0.000 A 
ATOM     18  C   UNL     1       1.280   3.555  17.824  0.00  0.00    +0.000 A 
ATOM     19  C   UNL     1       2.183   4.637  17.952  0.00  0.00    +0.000 A 
ATOM     20  C   UNL     1       2.541   5.153  19.216  0.00  0.00    +0.000 A 
ATOM     21  C   UNL     1       1.966   4.529  20.339  0.00  0.00    +0.000 A 
BRANCH  16  23
ATOM     22  C   UNL     1       1.957   2.299  22.087  0.00  0.00    +0.000 C 
ATOM     23  O   UNL     1       0.821   2.688  21.326  0.00  0.00    +0.000 OA
ENDBRANCH  16  23
ENDBRANCH  15  20
ENDBRANCH   1  15
BRANCH   1  24
ATOM     24  C   UNL     1       3.653   7.552  17.105  0.00  0.00    +0.000 C 
BRANCH  24  25
ATOM     25  C   UNL     1       4.981   6.851  16.717  0.00  0.00    +0.000 A 
ATOM     26  C   UNL     1       6.193   7.112  17.367  0.00  0.00    +0.000 A 
ATOM     27  C   UNL     1       7.316   6.284  17.160  0.00  0.00    +0.000 A 
ATOM     28  C   UNL     1       7.245   5.175  16.314  0.00  0.00    +0.000 A 
ATOM     29  C   UNL     1       6.067   4.888  15.618  0.00  0.00    +0.000 A 
ATOM     30  C   UNL     1       4.947   5.718  15.829  0.00  0.00    +0.000 A 
BRANCH  29  31
ATOM     31  O   UNL     1       6.132   3.724  14.913  0.00  0.00    +0.000 OA
ATOM     32  C   UNL     1       6.190   3.782  13.498  0.00  0.00    +0.000 C 
ENDBRANCH  29  31
ENDBRANCH  24  25
ENDBRANCH   1  24
TORSDOF 7
ENDMDL
MODEL 8
REMARK VINA RESULT:      -7.7      1.023      1.123
REMARK  Name = 
REMARK  9 active torsions:
REMARK  status: ('A' for Active; 'I' for Inactive)
REMARK    1  A    between atoms: C_1  and  O_2
REMARK    2  A    between atoms: O_2  and  C_3
REMARK    3  A    between atoms: C_7  and  C_8
REMARK    4  A    between atoms: C_8  and  N_9
REMARK    5  A    between atoms: N_9  and  C_10
REMARK    6  A    between atoms: N_9  and  C_19
REMARK    7  A    between atoms: C_10  and  C_11
REMARK    8  A    between atoms: C_15  and  O_16
REMARK    9  A    between atoms: O_16  and  C_17
REMARK                            x       y       z     vdW  Elec       q    Type
REMARK                         _______ _______ _______ _____ _____    ______ ____
ROOT
ATOM      1  N   UNL     1       2.759   6.903  18.215  0.00  0.00    +0.000 N 
ENDROOT
BRANCH   1   2
ATOM      2  C   UNL     1       2.096   7.953  18.900  0.00  0.00    +0.000 A 
ATOM      3  C   UNL     1       1.809   9.196  18.290  0.00  0.00    +0.000 A 
ATOM      4  C   UNL     1       1.142  10.263  18.933  0.00  0.00    +0.000 A 
ATOM      5  C   UNL     1       0.723  10.082  20.244  0.00  0.00    +0.000 A 
ATOM      6  N   UNL     1       0.046  10.937  21.085  0.00  0.00    +0.000 NA
ATOM      7  C   UNL     1      -0.128  10.255  22.184  0.00  0.00    +0.000 A 
ATOM      8  N   UNL     1      -0.773  10.659  23.289  0.00  0.00    +0.000 N 
ATOM      9  N   UNL     1       0.421   9.008  22.104  0.00  0.00    +0.000 N 
ATOM     10  C   UNL     1       0.979   8.869  20.849  0.00  0.00    +0.000 A 
ATOM     11  C   UNL     1       1.646   7.796  20.222  0.00  0.00    +0.000 A 
ATOM     12  H   UNL     1      -1.026  11.645  23.299  0.00  0.00    +0.000 HD
ATOM     13  H   UNL     1      -0.529  10.305  24.206  0.00  0.00    +0.000 HD
ATOM     14  H   UNL     1       0.403   8.309  22.819  0.00  0.00    +0.000 HD
ENDBRANCH   1   2
BRANCH   1  15
ATOM     15  C   UNL     1       1.975   5.645  17.951  0.00  0.00    +0.000 C 
BRANCH  15  20
ATOM     16  C   UNL     1       3.956   2.768  19.587  0.00  0.00    +0.000 A 
ATOM     17  C   UNL     1       3.875   1.752  18.643  0.00  0.00    +0.000 A 
ATOM     18  C   UNL     1       3.217   1.986  17.432  0.00  0.00    +0.000 A 
ATOM     19  C   UNL     1       2.637   3.252  17.181  0.00  0.00    +0.000 A 
ATOM     20  C   UNL     1       2.688   4.288  18.138  0.00  0.00    +0.000 A 
ATOM     21  C   UNL     1       3.354   4.002  19.344  0.00  0.00    +0.000 A 
BRANCH  16  23
ATOM     22  C   UNL     1       5.199   1.307  20.942  0.00  0.00    +0.000 C 
ATOM     23  O   UNL     1       4.842   2.645  20.617  0.00  0.00    +0.000 OA
ENDBRANCH  16  23
ENDBRANCH  15  20
ENDBRANCH   1  15
BRANCH   1  24
ATOM     24  C   UNL     1       3.878   7.236  17.265  0.00  0.00    +0.000 C 
BRANCH  24  25
ATOM     25  C   UNL     1       5.150   6.355  17.154  0.00  0.00    +0.000 A 
ATOM     26  C   UNL     1       6.013   6.132  18.232  0.00  0.00    +0.000 A 
ATOM     27  C   UNL     1       7.009   5.134  18.165  0.00  0.00    +0.000 A 
ATOM     28  C   UNL     1       7.151   4.337  17.028  0.00  0.00    +0.000 A 
ATOM     29  C   UNL     1       6.333   4.539  15.912  0.00  0.00    +0.000 A 
ATOM     30  C   UNL     1       5.339   5.536  15.984  0.00  0.00    +0.000 A 
BRANCH  29  31
ATOM     31  O   UNL     1       6.534   3.619  14.927  0.00  0.00    +0.000 OA
ATOM     32  C   UNL     1       6.234   3.972  13.588  0.00  0.00    +0.000 C 
ENDBRANCH  29  31
ENDBRANCH  24  25
ENDBRANCH   1  24
TORSDOF 7
ENDMDL
MODEL 9
REMARK VINA RESULT:      -7.7      1.554      2.585
REMARK  Name = 
REMARK  9 active torsions:
REMARK  status: ('A' for Active; 'I' for Inactive)
REMARK    1  A    between atoms: C_1  and  O_2
REMARK    2  A    between atoms: O_2  and  C_3
REMARK    3  A    between atoms: C_7  and  C_8
REMARK    4  A    between atoms: C_8  and  N_9
REMARK    5  A    between atoms: N_9  and  C_10
REMARK    6  A    between atoms: N_9  and  C_19
REMARK    7  A    between atoms: C_10  and  C_11
REMARK    8  A    between atoms: C_15  and  O_16
REMARK    9  A    between atoms: O_16  and  C_17
REMARK                            x       y       z     vdW  Elec       q    Type
REMARK                         _______ _______ _______ _____ _____    ______ ____
ROOT
ATOM      1  N   UNL     1       2.971   7.228  18.944  0.00  0.00    +0.000 N 
ENDROOT
BRANCH   1   2
ATOM      2  C   UNL     1       1.940   8.162  19.224  0.00  0.00    +0.000 A 
ATOM      3  C   UNL     1       1.399   8.329  20.518  0.00  0.00    +0.000 A 
ATOM      4  C   UNL     1       0.380   9.254  20.842  0.00  0.00    +0.000 A 
ATOM      5  C   UNL     1      -0.116  10.066  19.830  0.00  0.00    +0.000 A 
ATOM      6  N   UNL     1      -1.079  11.048  19.874  0.00  0.00    +0.000 NA
ATOM      7  C   UNL     1      -1.130  11.520  18.658  0.00  0.00    +0.000 A 
ATOM      8  N   UNL     1      -1.904  12.523  18.215  0.00  0.00    +0.000 N 
ATOM      9  N   UNL     1      -0.262  10.877  17.824  0.00  0.00    +0.000 N 
ATOM     10  C   UNL     1       0.414   9.927  18.563  0.00  0.00    +0.000 A 
ATOM     11  C   UNL     1       1.428   9.008  18.225  0.00  0.00    +0.000 A 
ATOM     12  H   UNL     1      -2.608  12.843  18.876  0.00  0.00    +0.000 HD
ATOM     13  H   UNL     1      -2.216  12.567  17.252  0.00  0.00    +0.000 HD
ATOM     14  H   UNL     1      -0.122  11.074  16.854  0.00  0.00    +0.000 HD
ENDBRANCH   1   2
BRANCH   1  15
ATOM     15  C   UNL     1       3.274   6.195  19.997  0.00  0.00    +0.000 C 
BRANCH  15  20
ATOM     16  C   UNL     1       2.690   2.439  19.342  0.00  0.00    +0.000 A 
ATOM     17  C   UNL     1       1.413   2.224  19.847  0.00  0.00    +0.000 A 
ATOM     18  C   UNL     1       0.689   3.299  20.372  0.00  0.00    +0.000 A 
ATOM     19  C   UNL     1       1.263   4.592  20.386  0.00  0.00    +0.000 A 
ATOM     20  C   UNL     1       2.568   4.825  19.899  0.00  0.00    +0.000 A 
ATOM     21  C   UNL     1       3.259   3.711  19.389  0.00  0.00    +0.000 A 
BRANCH  16  23
ATOM     22  C   UNL     1       3.967   1.960  17.430  0.00  0.00    +0.000 C 
ATOM     23  O   UNL     1       3.265   1.474  18.567  0.00  0.00    +0.000 OA
ENDBRANCH  16  23
ENDBRANCH  15  20
ENDBRANCH   1  15
BRANCH   1  24
ATOM     24  C   UNL     1       3.270   6.869  17.513  0.00  0.00    +0.000 C 
BRANCH  24  25
ATOM     25  C   UNL     1       4.678   6.402  17.061  0.00  0.00    +0.000 A 
ATOM     26  C   UNL     1       5.851   6.789  17.718  0.00  0.00    +0.000 A 
ATOM     27  C   UNL     1       7.079   6.152  17.438  0.00  0.00    +0.000 A 
ATOM     28  C   UNL     1       7.153   5.111  16.510  0.00  0.00    +0.000 A 
ATOM     29  C   UNL     1       6.015   4.707  15.805  0.00  0.00    +0.000 A 
ATOM     30  C   UNL     1       4.791   5.345  16.088  0.00  0.00    +0.000 A 
BRANCH  29  31
ATOM     31  O   UNL     1       6.236   3.620  15.012  0.00  0.00    +0.000 OA
ATOM     32  C   UNL     1       6.232   3.787  13.604  0.00  0.00    +0.000 C 
ENDBRANCH  29  31
ENDBRANCH  24  25
ENDBRANCH   1  24
TORSDOF 7
ENDMDL
