MODEL 1
REMARK VINA RESULT:      -8.3      0.000      0.000
REMARK  Name = 
REMARK  9 active torsions:
REMARK  status: ('A' for Active; 'I' for Inactive)
REMARK    1  A    between atoms: C_1  and  C_2
REMARK    2  A    between atoms: N_5  and  C_6
REMARK    3  A    between atoms: C_9  and  C_10
REMARK    4  A    between atoms: C_10  and  C_11
REMARK    5  A    between atoms: C_10  and  C_12
REMARK    6  A    between atoms: C_16  and  S_17
REMARK    7  A    between atoms: S_17  and  C_18
REMARK    8  A    between atoms: C_18  and  C_19
REMARK    9  A    between atoms: C_18  and  C_22
REMARK                            x       y       z     vdW  Elec       q    Type
REMARK                         _______ _______ _______ _____ _____    ______ ____
ROOT
ATOM      1  C   UNL     1       0.765   2.570  18.733  0.00  0.00    +0.000 C 
ATOM      2  C   UNL     1       1.873   3.474  18.296  0.00  0.00    +0.000 A 
ATOM      3  N   UNL     1       1.654   4.781  18.380  0.00  0.00    +0.000 NA
ATOM      4  C   UNL     1       2.616   5.575  17.924  0.00  0.00    +0.000 A 
ATOM      5  N   UNL     1       2.435   6.959  17.955  0.00  0.00    +0.000 N 
ATOM      6  N   UNL     1       3.746   5.126  17.395  0.00  0.00    +0.000 NA
ATOM      7  C   UNL     1       3.890   3.799  17.396  0.00  0.00    +0.000 A 
ATOM      8  N   UNL     1       2.998   2.925  17.844  0.00  0.00    +0.000 NA
ATOM      9  H   UNL     1       3.241   7.416  17.551  0.00  0.00    +0.000 HD
ENDROOT
BRANCH   5  10
ATOM     10  C   UNL     1       1.791   7.724  18.946  0.00  0.00    +0.000 A 
ATOM     11  C   UNL     1       1.247   8.989  18.695  0.00  0.00    +0.000 A 
ATOM     12  C   UNL     1       0.582   9.702  19.699  0.00  0.00    +0.000 A 
ATOM     13  C   UNL     1       0.453   9.175  20.989  0.00  0.00    +0.000 A 
ATOM     14  C   UNL     1       1.032   7.927  21.254  0.00  0.00    +0.000 A 
ATOM     15  C   UNL     1       1.679   7.206  20.242  0.00  0.00    +0.000 A 
BRANCH  13  16
ATOM     16  C   UNL     1      -0.335   9.939  22.039  0.00  0.00    +0.000 C 
ATOM     17  C   UNL     1       0.165   9.608  23.449  0.00  0.00    +0.000 C 
ATOM     18  C   UNL     1      -0.321  11.449  21.799  0.00  0.00    +0.000 C 
ENDBRANCH  13  16
ENDBRANCH   5  10
BRANCH   7  19
ATOM     19  S   UNL     1       5.460   3.207  16.826  0.00  0.00    +0.000 S 
BRANCH  19  20
ATOM     20  C   UNL     1       6.169   4.717  16.042  0.00  0.00    +0.000 C 
BRANCH  20  21
ATOM     21  C   UNL     1       6.484   4.518  14.553  0.00  0.00    +0.000 A 
ATOM     22  C   UNL     1       5.716   3.605  13.808  0.00  0.00    +0.000 A 
ATOM     23  C   UNL     1       5.965   3.398  12.448  0.00  0.00    +0.000 A 
ATOM     24  C   UNL     1       6.980   4.105  11.805  0.00  0.00    +0.000 A 
ATOM     25  C   UNL     1       7.739   5.022  12.518  0.00  0.00    +0.000 A 
ATOM     26  C   UNL     1       7.488   5.235  13.877  0.00  0.00    +0.000 A 
ENDBRANCH  20  21
BRANCH  20  27
ATOM     27  C   UNL     1       7.402   5.217  16.812  0.00  0.00    +0.000 C 
ATOM     28  N   UNL     1       7.635   6.564  16.824  0.00  0.00    +0.000 N 
ATOM     29  O   UNL     1       8.163   4.467  17.422  0.00  0.00    +0.000 OA
ATOM     30  H   UNL     1       6.945   7.231  16.506  0.00  0.00    +0.000 HD
ATOM     31  H   UNL     1       8.404   6.896  17.391  0.00  0.00    +0.000 HD
ENDBRANCH  20  27
ENDBRANCH  19  20
ENDBRANCH   7  19
TORSDOF 6
ENDMDL
MODEL 2
REMARK VINA RESULT:      -8.2      2.730      4.434
REMARK  Name = 
REMARK  9 active torsions:
REMARK  status: ('A' for Active; 'I' for Inactive)
REMARK    1  A    between atoms: C_1  and  C_2
REMARK    2  A    between atoms: N_5  and  C_6
REMARK    3  A    between atoms: C_9  and  C_10
REMARK    4  A    between atoms: C_10  and  C_11
REMARK    5  A    between atoms: C_10  and  C_12
REMARK    6  A    between atoms: C_16  and  S_17
REMARK    7  A    between atoms: S_17  and  C_18
REMARK    8  A    between atoms: C_18  and  C_19
REMARK    9  A    between atoms: C_18  and  C_22
REMARK                            x       y       z     vdW  Elec       q    Type
REMARK                         _______ _______ _______ _____ _____    ______ ____
ROOT
ATOM      1  C   UNL     1       2.712   8.617  17.268  0.00  0.00    +0.000 C 
ATOM      2  C   UNL     1       2.352   7.762  18.441  0.00  0.00    +0.000 A 
ATOM      3  N   UNL     1       1.996   8.389  19.556  0.00  0.00    +0.000 NA
ATOM      4  C   UNL     1       1.746   7.623  20.613  0.00  0.00    +0.000 A 
ATOM      5  N   UNL     1       1.397   8.222  21.825  0.00  0.00    +0.000 N 
ATOM      6  N   UNL     1       1.846   6.301  20.599  0.00  0.00    +0.000 NA
ATOM      7  C   UNL     1       2.168   5.765  19.420  0.00  0.00    +0.000 A 
ATOM      8  N   UNL     1       2.417   6.440  18.306  0.00  0.00    +0.000 NA
ATOM      9  H   UNL     1       1.266   7.509  22.530  0.00  0.00    +0.000 HD
ENDROOT
BRANCH   5  10
ATOM     10  C   UNL     1       0.602   9.366  22.026  0.00  0.00    +0.000 A 
ATOM     11  C   UNL     1       0.752  10.537  21.274  0.00  0.00    +0.000 A 
ATOM     12  C   UNL     1      -0.083  11.641  21.481  0.00  0.00    +0.000 A 
ATOM     13  C   UNL     1      -1.087  11.610  22.455  0.00  0.00    +0.000 A 
ATOM     14  C   UNL     1      -1.213  10.454  23.237  0.00  0.00    +0.000 A 
ATOM     15  C   UNL     1      -0.389   9.343  23.014  0.00  0.00    +0.000 A 
BRANCH  13  16
ATOM     16  C   UNL     1      -2.024  12.795  22.609  0.00  0.00    +0.000 C 
ATOM     17  C   UNL     1      -2.537  13.271  21.246  0.00  0.00    +0.000 C 
ATOM     18  C   UNL     1      -3.188  12.503  23.556  0.00  0.00    +0.000 C 
ENDBRANCH  13  16
ENDBRANCH   5  10
BRANCH   7  19
ATOM     19  S   UNL     1       2.156   3.993  19.366  0.00  0.00    +0.000 S 
BRANCH  19  20
ATOM     20  C   UNL     1       3.954   3.602  19.478  0.00  0.00    +0.000 C 
BRANCH  20  21
ATOM     21  C   UNL     1       4.787   4.341  18.422  0.00  0.00    +0.000 A 
ATOM     22  C   UNL     1       5.757   5.268  18.842  0.00  0.00    +0.000 A 
ATOM     23  C   UNL     1       6.542   5.958  17.913  0.00  0.00    +0.000 A 
ATOM     24  C   UNL     1       6.378   5.730  16.548  0.00  0.00    +0.000 A 
ATOM     25  C   UNL     1       5.436   4.807  16.112  0.00  0.00    +0.000 A 
ATOM     26  C   UNL     1       4.655   4.111  17.040  0.00  0.00    +0.000 A 
ENDBRANCH  20  21
BRANCH  20  27
ATOM     27  C   UNL     1       4.198   2.086  19.422  0.00  0.00    +0.000 C 
ATOM     28  N   UNL     1       5.178   1.574  20.228  0.00  0.00    +0.000 N 
ATOM     29  O   UNL     1       3.546   1.326  18.708  0.00  0.00    +0.000 OA
ATOM     30  H   UNL     1       5.607   2.118  20.964  0.00  0.00    +0.000 HD
ATOM     31  H   UNL     1       5.287   0.568  20.242  0.00  0.00    +0.000 HD
ENDBRANCH  20  27
ENDBRANCH  19  20
ENDBRANCH   7  19
TORSDOF 6
ENDMDL
MODEL 3
REMARK VINA RESULT:      -8.1      2.471      4.251
REMARK  Name = 
REMARK  9 active torsions:
REMARK  status: ('A' for Active; 'I' for Inactive)
REMARK    1  A    between atoms: C_1  and  C_2
REMARK    2  A    between atoms: N_5  and  C_6
REMARK    3  A    between atoms: C_9  and  C_10
REMARK    4  A    between atoms: C_10  and  C_11
REMARK    5  A    between atoms: C_10  and  C_12
REMARK    6  A    between atoms: C_16  and  S_17
REMARK    7  A    between atoms: S_17  and  C_18
REMARK    8  A    between atoms: C_18  and  C_19
REMARK    9  A    between atoms: C_18  and  C_22
REMARK                            x       y       z     vdW  Elec       q    Type
REMARK                         _______ _______ _______ _____ _____    ______ ____
ROOT
ATOM      1  C   UNL     1       2.929   8.536  17.273  0.00  0.00    +0.000 C 
ATOM      2  C   UNL     1       2.514   7.621  18.380  0.00  0.00    +0.000 A 
ATOM      3  N   UNL     1       2.068   8.187  19.495  0.00  0.00    +0.000 NA
ATOM      4  C   UNL     1       1.768   7.368  20.498  0.00  0.00    +0.000 A 
ATOM      5  N   UNL     1       1.323   7.903  21.708  0.00  0.00    +0.000 N 
ATOM      6  N   UNL     1       1.905   6.051  20.433  0.00  0.00    +0.000 NA
ATOM      7  C   UNL     1       2.319   5.577  19.256  0.00  0.00    +0.000 A 
ATOM      8  N   UNL     1       2.624   6.308  18.192  0.00  0.00    +0.000 NA
ATOM      9  H   UNL     1       1.165   7.156  22.371  0.00  0.00    +0.000 HD
ENDROOT
BRANCH   5  10
ATOM     10  C   UNL     1       0.486   9.017  21.905  0.00  0.00    +0.000 A 
ATOM     11  C   UNL     1      -0.097   9.322  23.140  0.00  0.00    +0.000 A 
ATOM     12  C   UNL     1      -0.895  10.460  23.303  0.00  0.00    +0.000 A 
ATOM     13  C   UNL     1      -1.144  11.322  22.229  0.00  0.00    +0.000 A 
ATOM     14  C   UNL     1      -0.595  10.998  20.981  0.00  0.00    +0.000 A 
ATOM     15  C   UNL     1       0.220   9.869  20.826  0.00  0.00    +0.000 A 
BRANCH  13  16
ATOM     16  C   UNL     1      -1.954  12.587  22.452  0.00  0.00    +0.000 C 
ATOM     17  C   UNL     1      -3.153  12.318  23.367  0.00  0.00    +0.000 C 
ATOM     18  C   UNL     1      -1.106  13.739  22.992  0.00  0.00    +0.000 C 
ENDBRANCH  13  16
ENDBRANCH   5  10
BRANCH   7  19
ATOM     19  S   UNL     1       2.359   3.810  19.124  0.00  0.00    +0.000 S 
BRANCH  19  20
ATOM     20  C   UNL     1       4.156   3.458  19.336  0.00  0.00    +0.000 C 
BRANCH  20  21
ATOM     21  C   UNL     1       5.005   4.003  18.179  0.00  0.00    +0.000 A 
ATOM     22  C   UNL     1       6.202   4.681  18.471  0.00  0.00    +0.000 A 
ATOM     23  C   UNL     1       7.010   5.188  17.447  0.00  0.00    +0.000 A 
ATOM     24  C   UNL     1       6.640   5.021  16.114  0.00  0.00    +0.000 A 
ATOM     25  C   UNL     1       5.470   4.341  15.804  0.00  0.00    +0.000 A 
ATOM     26  C   UNL     1       4.664   3.827  16.825  0.00  0.00    +0.000 A 
ENDBRANCH  20  21
BRANCH  20  27
ATOM     27  C   UNL     1       4.407   1.957  19.554  0.00  0.00    +0.000 C 
ATOM     28  N   UNL     1       3.844   1.087  18.662  0.00  0.00    +0.000 N 
ATOM     29  O   UNL     1       5.098   1.519  20.473  0.00  0.00    +0.000 OA
ATOM     30  H   UNL     1       3.433   1.399  17.793  0.00  0.00    +0.000 HD
ATOM     31  H   UNL     1       4.071   0.106  18.767  0.00  0.00    +0.000 HD
ENDBRANCH  20  27
ENDBRANCH  19  20
ENDBRANCH   7  19
TORSDOF 6
ENDMDL
MODEL 4
REMARK VINA RESULT:      -8.0      2.656      4.409
REMARK  Name = 
REMARK  9 active torsions:
REMARK  status: ('A' for Active; 'I' for Inactive)
REMARK    1  A    between atoms: C_1  and  C_2
REMARK    2  A    between atoms: N_5  and  C_6
REMARK    3  A    between atoms: C_9  and  C_10
REMARK    4  A    between atoms: C_10  and  C_11
REMARK    5  A    between atoms: C_10  and  C_12
REMARK    6  A    between atoms: C_16  and  S_17
REMARK    7  A    between atoms: S_17  and  C_18
REMARK    8  A    between atoms: C_18  and  C_19
REMARK    9  A    between atoms: C_18  and  C_22
REMARK                            x       y       z     vdW  Elec       q    Type
REMARK                         _______ _______ _______ _____ _____    ______ ____
ROOT
ATOM      1  C   UNL     1       2.703   8.610  17.169  0.00  0.00    +0.000 C 
ATOM      2  C   UNL     1       2.408   7.736  18.346  0.00  0.00    +0.000 A 
ATOM      3  N   UNL     1       2.049   8.342  19.472  0.00  0.00    +0.000 NA
ATOM      4  C   UNL     1       1.857   7.562  20.530  0.00  0.00    +0.000 A 
ATOM      5  N   UNL     1       1.507   8.140  21.752  0.00  0.00    +0.000 N 
ATOM      6  N   UNL     1       2.017   6.246  20.509  0.00  0.00    +0.000 NA
ATOM      7  C   UNL     1       2.338   5.729  19.321  0.00  0.00    +0.000 A 
ATOM      8  N   UNL     1       2.531   6.419  18.204  0.00  0.00    +0.000 NA
ATOM      9  H   UNL     1       1.425   7.421  22.457  0.00  0.00    +0.000 HD
ENDROOT
BRANCH   5  10
ATOM     10  C   UNL     1       0.665   9.246  21.975  0.00  0.00    +0.000 A 
ATOM     11  C   UNL     1      -0.299   9.275  22.990  0.00  0.00    +0.000 A 
ATOM     12  C   UNL     1      -1.092  10.408  23.202  0.00  0.00    +0.000 A 
ATOM     13  C   UNL     1      -0.952  11.544  22.396  0.00  0.00    +0.000 A 
ATOM     14  C   UNL     1      -0.016  11.503  21.354  0.00  0.00    +0.000 A 
ATOM     15  C   UNL     1       0.791  10.375  21.157  0.00  0.00    +0.000 A 
BRANCH  13  16
ATOM     16  C   UNL     1      -1.776  12.784  22.694  0.00  0.00    +0.000 C 
ATOM     17  C   UNL     1      -2.140  13.525  21.403  0.00  0.00    +0.000 C 
ATOM     18  C   UNL     1      -3.029  12.474  23.514  0.00  0.00    +0.000 C 
ENDBRANCH  13  16
ENDBRANCH   5  10
BRANCH   7  19
ATOM     19  S   UNL     1       2.406   3.959  19.259  0.00  0.00    +0.000 S 
BRANCH  19  20
ATOM     20  C   UNL     1       4.175   3.638  19.662  0.00  0.00    +0.000 C 
BRANCH  20  21
ATOM     21  C   UNL     1       5.139   4.347  18.701  0.00  0.00    +0.000 A 
ATOM     22  C   UNL     1       5.013   4.124  17.318  0.00  0.00    +0.000 A 
ATOM     23  C   UNL     1       5.865   4.755  16.407  0.00  0.00    +0.000 A 
ATOM     24  C   UNL     1       6.855   5.626  16.859  0.00  0.00    +0.000 A 
ATOM     25  C   UNL     1       6.987   5.872  18.219  0.00  0.00    +0.000 A 
ATOM     26  C   UNL     1       6.130   5.248  19.131  0.00  0.00    +0.000 A 
ENDBRANCH  20  21
BRANCH  20  27
ATOM     27  C   UNL     1       4.465   2.130  19.732  0.00  0.00    +0.000 C 
ATOM     28  N   UNL     1       3.918   1.336  18.762  0.00  0.00    +0.000 N 
ATOM     29  O   UNL     1       5.173   1.621  20.601  0.00  0.00    +0.000 OA
ATOM     30  H   UNL     1       3.494   1.721  17.929  0.00  0.00    +0.000 HD
ATOM     31  H   UNL     1       4.170   0.356  18.769  0.00  0.00    +0.000 HD
ENDBRANCH  20  27
ENDBRANCH  19  20
ENDBRANCH   7  19
TORSDOF 6
ENDMDL
MODEL 5
REMARK VINA RESULT:      -7.8      2.422      4.092
REMARK  Name = 
REMARK  9 active torsions:
REMARK  status: ('A' for Active; 'I' for Inactive)
REMARK    1  A    between atoms: C_1  and  C_2
REMARK    2  A    between atoms: N_5  and  C_6
REMARK    3  A    between atoms: C_9  and  C_10
REMARK    4  A    between atoms: C_10  and  C_11
REMARK    5  A    between atoms: C_10  and  C_12
REMARK    6  A    between atoms: C_16  and  S_17
REMARK    7  A    between atoms: S_17  and  C_18
REMARK    8  A    between atoms: C_18  and  C_19
REMARK    9  A    between atoms: C_18  and  C_22
REMARK                            x       y       z     vdW  Elec       q    Type
REMARK                         _______ _______ _______ _____ _____    ______ ____
ROOT
ATOM      1  C   UNL     1       1.837   5.738  20.715  0.00  0.00    +0.000 C 
ATOM      2  C   UNL     1       2.390   6.563  19.597  0.00  0.00    +0.000 A 
ATOM      3  N   UNL     1       1.683   7.624  19.224  0.00  0.00    +0.000 NA
ATOM      4  C   UNL     1       2.145   8.310  18.185  0.00  0.00    +0.000 A 
ATOM      5  N   UNL     1       1.432   9.418  17.723  0.00  0.00    +0.000 N 
ATOM      6  N   UNL     1       3.244   7.980  17.520  0.00  0.00    +0.000 NA
ATOM      7  C   UNL     1       3.906   6.924  17.998  0.00  0.00    +0.000 A 
ATOM      8  N   UNL     1       3.538   6.188  19.039  0.00  0.00    +0.000 NA
ATOM      9  H   UNL     1       1.898   9.810  16.917  0.00  0.00    +0.000 HD
ENDROOT
BRANCH   5  10
ATOM     10  C   UNL     1       0.726  10.369  18.484  0.00  0.00    +0.000 A 
ATOM     11  C   UNL     1      -0.662  10.323  18.661  0.00  0.00    +0.000 A 
ATOM     12  C   UNL     1      -1.322  11.267  19.456  0.00  0.00    +0.000 A 
ATOM     13  C   UNL     1      -0.613  12.295  20.088  0.00  0.00    +0.000 A 
ATOM     14  C   UNL     1       0.771  12.368  19.879  0.00  0.00    +0.000 A 
ATOM     15  C   UNL     1       1.432  11.409  19.100  0.00  0.00    +0.000 A 
BRANCH  13  16
ATOM     16  C   UNL     1      -1.344  13.263  21.000  0.00  0.00    +0.000 C 
ATOM     17  C   UNL     1      -2.843  13.290  20.685  0.00  0.00    +0.000 C 
ATOM     18  C   UNL     1      -1.106  12.967  22.481  0.00  0.00    +0.000 C 
ENDBRANCH  13  16
ENDBRANCH   5  10
BRANCH   7  19
ATOM     19  S   UNL     1       5.450   6.574  17.202  0.00  0.00    +0.000 S 
BRANCH  19  20
ATOM     20  C   UNL     1       5.088   4.969  16.372  0.00  0.00    +0.000 C 
BRANCH  20  21
ATOM     21  C   UNL     1       4.375   3.973  17.296  0.00  0.00    +0.000 A 
ATOM     22  C   UNL     1       3.112   3.479  16.925  0.00  0.00    +0.000 A 
ATOM     23  C   UNL     1       2.430   2.565  17.734  0.00  0.00    +0.000 A 
ATOM     24  C   UNL     1       3.000   2.122  18.926  0.00  0.00    +0.000 A 
ATOM     25  C   UNL     1       4.253   2.585  19.304  0.00  0.00    +0.000 A 
ATOM     26  C   UNL     1       4.940   3.493  18.492  0.00  0.00    +0.000 A 
ENDBRANCH  20  21
BRANCH  20  27
ATOM     27  C   UNL     1       6.362   4.356  15.767  0.00  0.00    +0.000 C 
ATOM     28  N   UNL     1       6.219   3.577  14.652  0.00  0.00    +0.000 N 
ATOM     29  O   UNL     1       7.486   4.551  16.228  0.00  0.00    +0.000 OA
ATOM     30  H   UNL     1       5.355   3.542  14.128  0.00  0.00    +0.000 HD
ATOM     31  H   UNL     1       7.065   3.235  14.214  0.00  0.00    +0.000 HD
ENDBRANCH  20  27
ENDBRANCH  19  20
ENDBRANCH   7  19
TORSDOF 6
ENDMDL
MODEL 6
REMARK VINA RESULT:      -7.7      1.212      1.748
REMARK  Name = 
REMARK  9 active torsions:
REMARK  status: ('A' for Active; 'I' for Inactive)
REMARK    1  A    between atoms: C_1  and  C_2
REMARK    2  A    between atoms: N_5  and  C_6
REMARK    3  A    between atoms: C_9  and  C_10
REMARK    4  A    between atoms: C_10  and  C_11
REMARK    5  A    between atoms: C_10  and  C_12
REMARK    6  A    between atoms: C_16  and  S_17
REMARK    7  A    between atoms: S_17  and  C_18
REMARK    8  A    between atoms: C_18  and  C_19
REMARK    9  A    between atoms: C_18  and  C_22
REMARK                            x       y       z     vdW  Elec       q    Type
REMARK                         _______ _______ _______ _____ _____    ______ ____
ROOT
ATOM      1  C   UNL     1       1.708   3.870  20.897  0.00  0.00    +0.000 C 
ATOM      2  C   UNL     1       2.397   4.543  19.753  0.00  0.00    +0.000 A 
ATOM      3  N   UNL     1       1.969   5.755  19.419  0.00  0.00    +0.000 NA
ATOM      4  C   UNL     1       2.539   6.314  18.358  0.00  0.00    +0.000 A 
ATOM      5  N   UNL     1       2.112   7.575  17.936  0.00  0.00    +0.000 N 
ATOM      6  N   UNL     1       3.481   5.724  17.636  0.00  0.00    +0.000 NA
ATOM      7  C   UNL     1       3.872   4.526  18.077  0.00  0.00    +0.000 A 
ATOM      8  N   UNL     1       3.380   3.893  19.134  0.00  0.00    +0.000 NA
ATOM      9  H   UNL     1       2.623   7.847  17.107  0.00  0.00    +0.000 HD
ENDROOT
BRANCH   5  10
ATOM     10  C   UNL     1       1.715   8.664  18.735  0.00  0.00    +0.000 A 
ATOM     11  C   UNL     1       1.578   9.964  18.233  0.00  0.00    +0.000 A 
ATOM     12  C   UNL     1       1.144  11.013  19.052  0.00  0.00    +0.000 A 
ATOM     13  C   UNL     1       0.847  10.795  20.402  0.00  0.00    +0.000 A 
ATOM     14  C   UNL     1       1.022   9.503  20.916  0.00  0.00    +0.000 A 
ATOM     15  C   UNL     1       1.436   8.451  20.090  0.00  0.00    +0.000 A 
BRANCH  13  16
ATOM     16  C   UNL     1       0.311  11.935  21.249  0.00  0.00    +0.000 C 
ATOM     17  C   UNL     1       0.842  13.284  20.753  0.00  0.00    +0.000 C 
ATOM     18  C   UNL     1      -1.217  11.946  21.320  0.00  0.00    +0.000 C 
ENDBRANCH  13  16
ENDBRANCH   5  10
BRANCH   7  19
ATOM     19  S   UNL     1       5.233   3.803  17.200  0.00  0.00    +0.000 S 
BRANCH  19  20
ATOM     20  C   UNL     1       5.815   5.220  16.177  0.00  0.00    +0.000 C 
BRANCH  20  21
ATOM     21  C   UNL     1       6.194   4.803  14.750  0.00  0.00    +0.000 A 
ATOM     22  C   UNL     1       7.353   5.343  14.164  0.00  0.00    +0.000 A 
ATOM     23  C   UNL     1       7.738   4.984  12.868  0.00  0.00    +0.000 A 
ATOM     24  C   UNL     1       6.977   4.074  12.137  0.00  0.00    +0.000 A 
ATOM     25  C   UNL     1       5.838   3.517  12.701  0.00  0.00    +0.000 A 
ATOM     26  C   UNL     1       5.455   3.869  14.000  0.00  0.00    +0.000 A 
ENDBRANCH  20  21
BRANCH  20  27
ATOM     27  C   UNL     1       6.969   5.967  16.866  0.00  0.00    +0.000 C 
ATOM     28  N   UNL     1       6.954   7.333  16.819  0.00  0.00    +0.000 N 
ATOM     29  O   UNL     1       7.879   5.392  17.463  0.00  0.00    +0.000 OA
ATOM     30  H   UNL     1       6.142   7.851  16.512  0.00  0.00    +0.000 HD
ATOM     31  H   UNL     1       7.675   7.822  17.334  0.00  0.00    +0.000 HD
ENDBRANCH  20  27
ENDBRANCH  19  20
ENDBRANCH   7  19
TORSDOF 6
ENDMDL
MODEL 7
REMARK VINA RESULT:      -7.7      5.315      9.697
REMARK  Name = 
REMARK  9 active torsions:
REMARK  status: ('A' for Active; 'I' for Inactive)
REMARK    1  A    between atoms: C_1  and  C_2
REMARK    2  A    between atoms: N_5  and  C_6
REMARK    3  A    between atoms: C_9  and  C_10
REMARK    4  A    between atoms: C_10  and  C_11
REMARK    5  A    between atoms: C_10  and  C_12
REMARK    6  A    between atoms: C_16  and  S_17
REMARK    7  A    between atoms: S_17  and  C_18
REMARK    8  A    between atoms: C_18  and  C_19
REMARK    9  A    between atoms: C_18  and  C_22
REMARK                            x       y       z     vdW  Elec       q    Type
REMARK                         _______ _______ _______ _____ _____    ______ ____
ROOT
ATOM      1  C   UNL     1       0.206   9.294  23.549  0.00  0.00    +0.000 C 
ATOM      2  C   UNL     1       0.381   9.644  22.106  0.00  0.00    +0.000 A 
ATOM      3  N   UNL     1       1.101   8.809  21.366  0.00  0.00    +0.000 NA
ATOM      4  C   UNL     1       1.310   9.164  20.103  0.00  0.00    +0.000 A 
ATOM      5  N   UNL     1       2.085   8.344  19.281  0.00  0.00    +0.000 N 
ATOM      6  N   UNL     1       0.851  10.289  19.574  0.00  0.00    +0.000 NA
ATOM      7  C   UNL     1       0.102  11.039  20.386  0.00  0.00    +0.000 A 
ATOM      8  N   UNL     1      -0.179  10.762  21.653  0.00  0.00    +0.000 NA
ATOM      9  H   UNL     1       2.170   8.765  18.365  0.00  0.00    +0.000 HD
ENDROOT
BRANCH   5  10
ATOM     10  C   UNL     1       2.134   6.937  19.261  0.00  0.00    +0.000 A 
ATOM     11  C   UNL     1       1.845   6.151  20.383  0.00  0.00    +0.000 A 
ATOM     12  C   UNL     1       1.869   4.754  20.312  0.00  0.00    +0.000 A 
ATOM     13  C   UNL     1       2.195   4.100  19.119  0.00  0.00    +0.000 A 
ATOM     14  C   UNL     1       2.524   4.885  18.005  0.00  0.00    +0.000 A 
ATOM     15  C   UNL     1       2.479   6.283  18.073  0.00  0.00    +0.000 A 
BRANCH  13  16
ATOM     16  C   UNL     1       2.144   2.584  19.052  0.00  0.00    +0.000 C 
ATOM     17  C   UNL     1       0.713   2.093  18.811  0.00  0.00    +0.000 C 
ATOM     18  C   UNL     1       3.100   2.011  18.005  0.00  0.00    +0.000 C 
ENDBRANCH  13  16
ENDBRANCH   5  10
BRANCH   7  19
ATOM     19  S   UNL     1      -0.633  12.466  19.635  0.00  0.00    +0.000 S 
BRANCH  19  20
ATOM     20  C   UNL     1      -2.425  12.040  19.693  0.00  0.00    +0.000 C 
BRANCH  20  21
ATOM     21  C   UNL     1      -2.976  11.616  18.325  0.00  0.00    +0.000 A 
ATOM     22  C   UNL     1      -2.106  11.032  17.388  0.00  0.00    +0.000 A 
ATOM     23  C   UNL     1      -2.568  10.625  16.132  0.00  0.00    +0.000 A 
ATOM     24  C   UNL     1      -3.910  10.788  15.792  0.00  0.00    +0.000 A 
ATOM     25  C   UNL     1      -4.790  11.348  16.708  0.00  0.00    +0.000 A 
ATOM     26  C   UNL     1      -4.331  11.749  17.967  0.00  0.00    +0.000 A 
ENDBRANCH  20  21
BRANCH  20  27
ATOM     27  C   UNL     1      -3.251  13.187  20.298  0.00  0.00    +0.000 C 
ATOM     28  N   UNL     1      -2.768  14.458  20.150  0.00  0.00    +0.000 N 
ATOM     29  O   UNL     1      -4.319  13.010  20.882  0.00  0.00    +0.000 OA
ATOM     30  H   UNL     1      -2.005  14.673  19.523  0.00  0.00    +0.000 HD
ATOM     31  H   UNL     1      -3.349  15.216  20.485  0.00  0.00    +0.000 HD
ENDBRANCH  20  27
ENDBRANCH  19  20
ENDBRANCH   7  19
TORSDOF 6
ENDMDL
MODEL 8
REMARK VINA RESULT:      -7.7      2.495      4.200
REMARK  Name = 
REMARK  9 active torsions:
REMARK  status: ('A' for Active; 'I' for Inactive)
REMARK    1  A    between atoms: C_1  and  C_2
REMARK    2  A    between atoms: N_5  and  C_6
REMARK    3  A    between atoms: C_9  and  C_10
REMARK    4  A    between atoms: C_10  and  C_11
REMARK    5  A    between atoms: C_10  and  C_12
REMARK    6  A    between atoms: C_16  and  S_17
REMARK    7  A    between atoms: S_17  and  C_18
REMARK    8  A    between atoms: C_18  and  C_19
REMARK    9  A    between atoms: C_18  and  C_22
REMARK                            x       y       z     vdW  Elec       q    Type
REMARK                         _______ _______ _______ _____ _____    ______ ____
ROOT
ATOM      1  C   UNL     1       1.827   5.778  20.704  0.00  0.00    +0.000 C 
ATOM      2  C   UNL     1       2.389   6.597  19.586  0.00  0.00    +0.000 A 
ATOM      3  N   UNL     1       1.691   7.663  19.210  0.00  0.00    +0.000 NA
ATOM      4  C   UNL     1       2.162   8.343  18.171  0.00  0.00    +0.000 A 
ATOM      5  N   UNL     1       1.458   9.456  17.706  0.00  0.00    +0.000 N 
ATOM      6  N   UNL     1       3.260   8.004  17.510  0.00  0.00    +0.000 NA
ATOM      7  C   UNL     1       3.912   6.944  17.992  0.00  0.00    +0.000 A 
ATOM      8  N   UNL     1       3.535   6.212  19.032  0.00  0.00    +0.000 NA
ATOM      9  H   UNL     1       1.930   9.844  16.900  0.00  0.00    +0.000 HD
ENDROOT
BRANCH   5  10
ATOM     10  C   UNL     1       0.758  10.414  18.463  0.00  0.00    +0.000 A 
ATOM     11  C   UNL     1       1.390  11.481  19.111  0.00  0.00    +0.000 A 
ATOM     12  C   UNL     1       0.653  12.433  19.825  0.00  0.00    +0.000 A 
ATOM     13  C   UNL     1      -0.739  12.339  19.921  0.00  0.00    +0.000 A 
ATOM     14  C   UNL     1      -1.371  11.248  19.308  0.00  0.00    +0.000 A 
ATOM     15  C   UNL     1      -0.634  10.309  18.577  0.00  0.00    +0.000 A 
BRANCH  13  16
ATOM     16  C   UNL     1      -1.519  13.424  20.642  0.00  0.00    +0.000 C 
ATOM     17  C   UNL     1      -1.120  14.814  20.137  0.00  0.00    +0.000 C 
ATOM     18  C   UNL     1      -3.032  13.224  20.542  0.00  0.00    +0.000 C 
ENDBRANCH  13  16
ENDBRANCH   5  10
BRANCH   7  19
ATOM     19  S   UNL     1       5.456   6.581  17.201  0.00  0.00    +0.000 S 
BRANCH  19  20
ATOM     20  C   UNL     1       5.092   4.965  16.392  0.00  0.00    +0.000 C 
BRANCH  20  21
ATOM     21  C   UNL     1       4.392   3.977  17.335  0.00  0.00    +0.000 A 
ATOM     22  C   UNL     1       3.133   3.464  16.975  0.00  0.00    +0.000 A 
ATOM     23  C   UNL     1       2.463   2.556  17.801  0.00  0.00    +0.000 A 
ATOM     24  C   UNL     1       3.040   2.139  18.999  0.00  0.00    +0.000 A 
ATOM     25  C   UNL     1       4.289   2.621  19.366  0.00  0.00    +0.000 A 
ATOM     26  C   UNL     1       4.964   3.524  18.538  0.00  0.00    +0.000 A 
ENDBRANCH  20  21
BRANCH  20  27
ATOM     27  C   UNL     1       6.362   4.350  15.782  0.00  0.00    +0.000 C 
ATOM     28  N   UNL     1       6.210   3.551  14.682  0.00  0.00    +0.000 N 
ATOM     29  O   UNL     1       7.490   4.559  16.226  0.00  0.00    +0.000 OA
ATOM     30  H   UNL     1       5.340   3.502  14.170  0.00  0.00    +0.000 HD
ATOM     31  H   UNL     1       7.053   3.208  14.240  0.00  0.00    +0.000 HD
ENDBRANCH  20  27
ENDBRANCH  19  20
ENDBRANCH   7  19
TORSDOF 6
ENDMDL
MODEL 9
REMARK VINA RESULT:      -7.7      2.492      4.153
REMARK  Name = 
REMARK  9 active torsions:
REMARK  status: ('A' for Active; 'I' for Inactive)
REMARK    1  A    between atoms: C_1  and  C_2
REMARK    2  A    between atoms: N_5  and  C_6
REMARK    3  A    between atoms: C_9  and  C_10
REMARK    4  A    between atoms: C_10  and  C_11
REMARK    5  A    between atoms: C_10  and  C_12
REMARK    6  A    between atoms: C_16  and  S_17
REMARK    7  A    between atoms: S_17  and  C_18
REMARK    8  A    between atoms: C_18  and  C_19
REMARK    9  A    between atoms: C_18  and  C_22
REMARK                            x       y       z     vdW  Elec       q    Type
REMARK                         _______ _______ _______ _____ _____    ______ ____
ROOT
ATOM      1  C   UNL     1       1.840   5.760  20.755  0.00  0.00    +0.000 C 
ATOM      2  C   UNL     1       2.387   6.558  19.614  0.00  0.00    +0.000 A 
ATOM      3  N   UNL     1       1.663   7.591  19.198  0.00  0.00    +0.000 NA
ATOM      4  C   UNL     1       2.122   8.250  18.141  0.00  0.00    +0.000 A 
ATOM      5  N   UNL     1       1.391   9.327  17.635  0.00  0.00    +0.000 N 
ATOM      6  N   UNL     1       3.234   7.920  17.498  0.00  0.00    +0.000 NA
ATOM      7  C   UNL     1       3.912   6.895  18.019  0.00  0.00    +0.000 A 
ATOM      8  N   UNL     1       3.548   6.187  19.080  0.00  0.00    +0.000 NA
ATOM      9  H   UNL     1       1.858   9.701  16.820  0.00  0.00    +0.000 HD
ENDROOT
BRANCH   5  10
ATOM     10  C   UNL     1       0.659  10.289  18.356  0.00  0.00    +0.000 A 
ATOM     11  C   UNL     1       1.267  11.274  19.142  0.00  0.00    +0.000 A 
ATOM     12  C   UNL     1       0.504  12.235  19.815  0.00  0.00    +0.000 A 
ATOM     13  C   UNL     1      -0.893  12.232  19.731  0.00  0.00    +0.000 A 
ATOM     14  C   UNL     1      -1.506  11.221  18.977  0.00  0.00    +0.000 A 
ATOM     15  C   UNL     1      -0.739  10.273  18.288  0.00  0.00    +0.000 A 
BRANCH  13  16
ATOM     16  C   UNL     1      -1.691  13.328  20.413  0.00  0.00    +0.000 C 
ATOM     17  C   UNL     1      -2.321  12.821  21.714  0.00  0.00    +0.000 C 
ATOM     18  C   UNL     1      -0.861  14.587  20.666  0.00  0.00    +0.000 C 
ENDBRANCH  13  16
ENDBRANCH   5  10
BRANCH   7  19
ATOM     19  S   UNL     1       5.471   6.549  17.250  0.00  0.00    +0.000 S 
BRANCH  19  20
ATOM     20  C   UNL     1       5.115   4.967  16.375  0.00  0.00    +0.000 C 
BRANCH  20  21
ATOM     21  C   UNL     1       4.377   3.955  17.261  0.00  0.00    +0.000 A 
ATOM     22  C   UNL     1       4.977   3.530  18.459  0.00  0.00    +0.000 A 
ATOM     23  C   UNL     1       4.336   2.614  19.299  0.00  0.00    +0.000 A 
ATOM     24  C   UNL     1       3.081   2.111  18.961  0.00  0.00    +0.000 A 
ATOM     25  C   UNL     1       2.463   2.529  17.790  0.00  0.00    +0.000 A 
ATOM     26  C   UNL     1       3.100   3.451  16.952  0.00  0.00    +0.000 A 
ENDBRANCH  20  21
BRANCH  20  27
ATOM     27  C   UNL     1       6.396   4.360  15.780  0.00  0.00    +0.000 C 
ATOM     28  N   UNL     1       6.264   3.564  14.676  0.00  0.00    +0.000 N 
ATOM     29  O   UNL     1       7.517   4.573  16.241  0.00  0.00    +0.000 OA
ATOM     30  H   UNL     1       5.401   3.513  14.151  0.00  0.00    +0.000 HD
ATOM     31  H   UNL     1       7.114   3.226  14.244  0.00  0.00    +0.000 HD
ENDBRANCH  20  27
ENDBRANCH  19  20
ENDBRANCH   7  19
TORSDOF 6
ENDMDL
