MODEL 1
REMARK VINA RESULT:      -7.9      0.000      0.000
REMARK  Name = 
REMARK  11 active torsions:
REMARK  status: ('A' for Active; 'I' for Inactive)
REMARK    1  A    between atoms: C_1  and  O_2
REMARK    2  A    between atoms: O_2  and  C_3
REMARK    3  A    between atoms: C_3  and  C_4
REMARK    4  A    between atoms: C_4  and  C_5
REMARK    5  A    between atoms: C_10  and  C_11
REMARK    6  A    between atoms: N_13  and  C_14
REMARK    7  A    between atoms: N_13  and  C_15
REMARK    8  A    between atoms: C_15  and  C_16
REMARK    9  A    between atoms: C_20  and  N_21
REMARK   10  A    between atoms: C_23  and  C_24
REMARK   11  A    between atoms: C_26  and  C_27
REMARK                            x       y       z     vdW  Elec       q    Type
REMARK                         _______ _______ _______ _____ _____    ______ ____
ROOT
ATOM      1  C   UNL     1       1.426   9.059  18.392  0.00  0.00    +0.000 C 
ATOM      2  O   UNL     1       2.115   9.288  17.400  0.00  0.00    +0.000 OA
ATOM      3  N   UNL     1       1.807   8.104  19.350  0.00  0.00    +0.000 N 
ATOM      4  C   UNL     1       1.244   7.912  20.681  0.00  0.00    +0.000 C 
ENDROOT
BRANCH   1  10
ATOM      5  C   UNL     1      -3.920  11.565  17.995  0.00  0.00    +0.000 A 
ATOM      6  N   UNL     1      -3.245  12.206  18.931  0.00  0.00    +0.000 NA
ATOM      7  C   UNL     1      -2.026  11.577  18.941  0.00  0.00    +0.000 A 
ATOM      8  C   UNL     1      -0.858  11.834  19.666  0.00  0.00    +0.000 A 
ATOM      9  C   UNL     1       0.245  10.982  19.450  0.00  0.00    +0.000 A 
ATOM     10  C   UNL     1       0.197   9.900  18.538  0.00  0.00    +0.000 A 
ATOM     11  C   UNL     1      -0.941   9.718  17.746  0.00  0.00    +0.000 A 
ATOM     12  C   UNL     1      -2.022  10.550  18.016  0.00  0.00    +0.000 A 
ATOM     13  O   UNL     1      -3.242  10.530  17.406  0.00  0.00    +0.000 OA
BRANCH   5  14
ATOM     14  C   UNL     1      -5.264  11.868  17.447  0.00  0.00    +0.000 C 
BRANCH  14  15
ATOM     15  C   UNL     1      -6.088  12.735  18.385  0.00  0.00    +0.000 C 
BRANCH  15  17
ATOM     16  C   UNL     1      -7.103  10.904  19.476  0.00  0.00    +0.000 C 
ATOM     17  O   UNL     1      -7.314  12.057  18.671  0.00  0.00    +0.000 OA
ENDBRANCH  15  17
ENDBRANCH  14  15
ENDBRANCH   5  14
ENDBRANCH   1  10
BRANCH   3  18
ATOM     18  C   UNL     1       3.132   7.497  19.174  0.00  0.00    +0.000 C 
BRANCH  18  19
ATOM     19  C   UNL     1       3.130   6.218  18.376  0.00  0.00    +0.000 A 
ATOM     20  C   UNL     1       2.183   5.212  18.617  0.00  0.00    +0.000 A 
ATOM     21  C   UNL     1       2.288   3.976  17.987  0.00  0.00    +0.000 A 
ATOM     22  C   UNL     1       3.335   3.728  17.096  0.00  0.00    +0.000 A 
ATOM     23  C   UNL     1       4.261   4.734  16.798  0.00  0.00    +0.000 A 
ATOM     24  C   UNL     1       4.149   5.977  17.439  0.00  0.00    +0.000 A 
BRANCH  23  25
ATOM     25  N   UNL     1       5.361   4.499  15.922  0.00  0.00    +0.000 N 
ATOM     26  N   UNL     1       5.120   4.101  14.642  0.00  0.00    +0.000 NA
ATOM     27  C   UNL     1       6.303   4.145  14.028  0.00  0.00    +0.000 A 
ATOM     28  C   UNL     1       6.418   3.855  12.579  0.00  0.00    +0.000 C 
ATOM     29  C   UNL     1       7.338   4.459  14.925  0.00  0.00    +0.000 A 
ATOM     30  C   UNL     1       6.725   4.644  16.148  0.00  0.00    +0.000 A 
ATOM     31  C   UNL     1       7.363   4.859  17.471  0.00  0.00    +0.000 C 
ENDBRANCH  23  25
ENDBRANCH  18  19
ENDBRANCH   3  18
TORSDOF 7
ENDMDL
MODEL 2
REMARK VINA RESULT:      -7.8      2.687     10.250
REMARK  Name = 
REMARK  11 active torsions:
REMARK  status: ('A' for Active; 'I' for Inactive)
REMARK    1  A    between atoms: C_1  and  O_2
REMARK    2  A    between atoms: O_2  and  C_3
REMARK    3  A    between atoms: C_3  and  C_4
REMARK    4  A    between atoms: C_4  and  C_5
REMARK    5  A    between atoms: C_10  and  C_11
REMARK    6  A    between atoms: N_13  and  C_14
REMARK    7  A    between atoms: N_13  and  C_15
REMARK    8  A    between atoms: C_15  and  C_16
REMARK    9  A    between atoms: C_20  and  N_21
REMARK   10  A    between atoms: C_23  and  C_24
REMARK   11  A    between atoms: C_26  and  C_27
REMARK                            x       y       z     vdW  Elec       q    Type
REMARK                         _______ _______ _______ _____ _____    ______ ____
ROOT
ATOM      1  C   UNL     1       1.888   7.243  19.822  0.00  0.00    +0.000 C 
ATOM      2  O   UNL     1       1.654   6.838  20.960  0.00  0.00    +0.000 OA
ATOM      3  N   UNL     1       1.541   8.542  19.416  0.00  0.00    +0.000 N 
ATOM      4  C   UNL     1       1.979   9.240  18.213  0.00  0.00    +0.000 C 
ENDROOT
BRANCH   1  10
ATOM      5  C   UNL     1       5.690   4.444  16.253  0.00  0.00    +0.000 A 
ATOM      6  N   UNL     1       4.664   3.639  16.458  0.00  0.00    +0.000 NA
ATOM      7  C   UNL     1       3.835   4.369  17.271  0.00  0.00    +0.000 A 
ATOM      8  C   UNL     1       2.563   4.092  17.784  0.00  0.00    +0.000 A 
ATOM      9  C   UNL     1       1.967   5.065  18.613  0.00  0.00    +0.000 A 
ATOM     10  C   UNL     1       2.613   6.286  18.929  0.00  0.00    +0.000 A 
ATOM     11  C   UNL     1       3.838   6.592  18.328  0.00  0.00    +0.000 A 
ATOM     12  C   UNL     1       4.412   5.593  17.550  0.00  0.00    +0.000 A 
ATOM     13  O   UNL     1       5.612   5.647  16.905  0.00  0.00    +0.000 OA
BRANCH   5  14
ATOM     14  C   UNL     1       6.856   4.254  15.358  0.00  0.00    +0.000 C 
BRANCH  14  15
ATOM     15  C   UNL     1       6.522   4.551  13.905  0.00  0.00    +0.000 C 
BRANCH  15  17
ATOM     16  C   UNL     1       5.490   3.390  12.127  0.00  0.00    +0.000 C 
ATOM     17  O   UNL     1       6.420   3.311  13.200  0.00  0.00    +0.000 OA
ENDBRANCH  15  17
ENDBRANCH  14  15
ENDBRANCH   5  14
ENDBRANCH   1  10
BRANCH   3  18
ATOM     18  C   UNL     1       1.012   9.431  20.458  0.00  0.00    +0.000 C 
BRANCH  18  19
ATOM     19  C   UNL     1       0.317  10.662  19.933  0.00  0.00    +0.000 A 
ATOM     20  C   UNL     1       0.621  11.937  20.431  0.00  0.00    +0.000 A 
ATOM     21  C   UNL     1      -0.134  13.042  20.053  0.00  0.00    +0.000 A 
ATOM     22  C   UNL     1      -1.201  12.894  19.164  0.00  0.00    +0.000 A 
ATOM     23  C   UNL     1      -1.491  11.641  18.612  0.00  0.00    +0.000 A 
ATOM     24  C   UNL     1      -0.724  10.531  18.999  0.00  0.00    +0.000 A 
BRANCH  23  25
ATOM     25  N   UNL     1      -2.596  11.451  17.732  0.00  0.00    +0.000 N 
ATOM     26  N   UNL     1      -2.365  11.051  16.451  0.00  0.00    +0.000 NA
ATOM     27  C   UNL     1      -3.568  10.782  15.941  0.00  0.00    +0.000 A 
ATOM     28  C   UNL     1      -3.706  10.232  14.572  0.00  0.00    +0.000 C 
ATOM     29  C   UNL     1      -4.595  11.112  16.841  0.00  0.00    +0.000 A 
ATOM     30  C   UNL     1      -3.959  11.578  17.974  0.00  0.00    +0.000 A 
ATOM     31  C   UNL     1      -4.568  12.190  19.181  0.00  0.00    +0.000 C 
ENDBRANCH  23  25
ENDBRANCH  18  19
ENDBRANCH   3  18
TORSDOF 7
ENDMDL
MODEL 3
REMARK VINA RESULT:      -7.8      1.823      2.158
REMARK  Name = 
REMARK  11 active torsions:
REMARK  status: ('A' for Active; 'I' for Inactive)
REMARK    1  A    between atoms: C_1  and  O_2
REMARK    2  A    between atoms: O_2  and  C_3
REMARK    3  A    between atoms: C_3  and  C_4
REMARK    4  A    between atoms: C_4  and  C_5
REMARK    5  A    between atoms: C_10  and  C_11
REMARK    6  A    between atoms: N_13  and  C_14
REMARK    7  A    between atoms: N_13  and  C_15
REMARK    8  A    between atoms: C_15  and  C_16
REMARK    9  A    between atoms: C_20  and  N_21
REMARK   10  A    between atoms: C_23  and  C_24
REMARK   11  A    between atoms: C_26  and  C_27
REMARK                            x       y       z     vdW  Elec       q    Type
REMARK                         _______ _______ _______ _____ _____    ______ ____
ROOT
ATOM      1  C   UNL     1       1.397   9.141  18.458  0.00  0.00    +0.000 C 
ATOM      2  O   UNL     1       2.053   9.431  17.459  0.00  0.00    +0.000 OA
ATOM      3  N   UNL     1       1.818   8.142  19.352  0.00  0.00    +0.000 N 
ATOM      4  C   UNL     1       1.297   7.872  20.686  0.00  0.00    +0.000 C 
ENDROOT
BRANCH   1  10
ATOM      5  C   UNL     1      -2.858  12.708  20.506  0.00  0.00    +0.000 A 
ATOM      6  N   UNL     1      -3.250  12.249  19.332  0.00  0.00    +0.000 NA
ATOM      7  C   UNL     1      -2.223  11.425  18.946  0.00  0.00    +0.000 A 
ATOM      8  C   UNL     1      -2.069  10.599  17.827  0.00  0.00    +0.000 A 
ATOM      9  C   UNL     1      -0.867   9.870  17.714  0.00  0.00    +0.000 A 
ATOM     10  C   UNL     1       0.162   9.955  18.683  0.00  0.00    +0.000 A 
ATOM     11  C   UNL     1      -0.047  10.705  19.845  0.00  0.00    +0.000 A 
ATOM     12  C   UNL     1      -1.225  11.441  19.902  0.00  0.00    +0.000 A 
ATOM     13  O   UNL     1      -1.623  12.272  20.908  0.00  0.00    +0.000 OA
BRANCH   5  14
ATOM     14  C   UNL     1      -3.603  13.554  21.468  0.00  0.00    +0.000 C 
BRANCH  14  15
ATOM     15  C   UNL     1      -3.744  12.893  22.830  0.00  0.00    +0.000 C 
BRANCH  15  17
ATOM     16  C   UNL     1      -5.933  13.148  23.678  0.00  0.00    +0.000 C 
ATOM     17  O   UNL     1      -5.053  12.323  22.924  0.00  0.00    +0.000 OA
ENDBRANCH  15  17
ENDBRANCH  14  15
ENDBRANCH   5  14
ENDBRANCH   1  10
BRANCH   3  18
ATOM     18  C   UNL     1       3.145   7.564  19.104  0.00  0.00    +0.000 C 
BRANCH  18  19
ATOM     19  C   UNL     1       3.126   6.268  18.335  0.00  0.00    +0.000 A 
ATOM     20  C   UNL     1       2.172   5.275  18.604  0.00  0.00    +0.000 A 
ATOM     21  C   UNL     1       2.261   4.026  17.999  0.00  0.00    +0.000 A 
ATOM     22  C   UNL     1       3.299   3.749  17.107  0.00  0.00    +0.000 A 
ATOM     23  C   UNL     1       4.232   4.740  16.781  0.00  0.00    +0.000 A 
ATOM     24  C   UNL     1       4.136   5.998  17.396  0.00  0.00    +0.000 A 
BRANCH  23  25
ATOM     25  N   UNL     1       5.324   4.477  15.903  0.00  0.00    +0.000 N 
ATOM     26  N   UNL     1       5.070   4.059  14.632  0.00  0.00    +0.000 NA
ATOM     27  C   UNL     1       6.251   4.078  14.010  0.00  0.00    +0.000 A 
ATOM     28  C   UNL     1       6.352   3.762  12.566  0.00  0.00    +0.000 C 
ATOM     29  C   UNL     1       7.294   4.396  14.895  0.00  0.00    +0.000 A 
ATOM     30  C   UNL     1       6.692   4.610  16.117  0.00  0.00    +0.000 A 
ATOM     31  C   UNL     1       7.340   4.840  17.432  0.00  0.00    +0.000 C 
ENDBRANCH  23  25
ENDBRANCH  18  19
ENDBRANCH   3  18
TORSDOF 7
ENDMDL
MODEL 4
REMARK VINA RESULT:      -7.6      2.620     10.550
REMARK  Name = 
REMARK  11 active torsions:
REMARK  status: ('A' for Active; 'I' for Inactive)
REMARK    1  A    between atoms: C_1  and  O_2
REMARK    2  A    between atoms: O_2  and  C_3
REMARK    3  A    between atoms: C_3  and  C_4
REMARK    4  A    between atoms: C_4  and  C_5
REMARK    5  A    between atoms: C_10  and  C_11
REMARK    6  A    between atoms: N_13  and  C_14
REMARK    7  A    between atoms: N_13  and  C_15
REMARK    8  A    between atoms: C_15  and  C_16
REMARK    9  A    between atoms: C_20  and  N_21
REMARK   10  A    between atoms: C_23  and  C_24
REMARK   11  A    between atoms: C_26  and  C_27
REMARK                            x       y       z     vdW  Elec       q    Type
REMARK                         _______ _______ _______ _____ _____    ______ ____
ROOT
ATOM      1  C   UNL     1       1.928   7.575  19.675  0.00  0.00    +0.000 C 
ATOM      2  O   UNL     1       1.791   7.189  20.835  0.00  0.00    +0.000 OA
ATOM      3  N   UNL     1       1.460   8.833  19.258  0.00  0.00    +0.000 N 
ATOM      4  C   UNL     1       1.773   9.524  18.014  0.00  0.00    +0.000 C 
ENDROOT
BRANCH   1  10
ATOM      5  C   UNL     1       5.490   5.049  15.681  0.00  0.00    +0.000 A 
ATOM      6  N   UNL     1       4.765   4.094  16.233  0.00  0.00    +0.000 NA
ATOM      7  C   UNL     1       3.965   4.766  17.122  0.00  0.00    +0.000 A 
ATOM      8  C   UNL     1       2.938   4.322  17.962  0.00  0.00    +0.000 A 
ATOM      9  C   UNL     1       2.301   5.280  18.777  0.00  0.00    +0.000 A 
ATOM     10  C   UNL     1       2.670   6.648  18.764  0.00  0.00    +0.000 A 
ATOM     11  C   UNL     1       3.626   7.094  17.848  0.00  0.00    +0.000 A 
ATOM     12  C   UNL     1       4.261   6.116  17.090  0.00  0.00    +0.000 A 
ATOM     13  O   UNL     1       5.248   6.307  16.170  0.00  0.00    +0.000 OA
BRANCH   5  14
ATOM     14  C   UNL     1       6.456   4.952  14.561  0.00  0.00    +0.000 C 
BRANCH  14  15
ATOM     15  C   UNL     1       6.372   3.616  13.841  0.00  0.00    +0.000 C 
BRANCH  15  17
ATOM     16  C   UNL     1       5.604   2.667  11.820  0.00  0.00    +0.000 C 
ATOM     17  O   UNL     1       6.025   3.858  12.474  0.00  0.00    +0.000 OA
ENDBRANCH  15  17
ENDBRANCH  14  15
ENDBRANCH   5  14
ENDBRANCH   1  10
BRANCH   3  18
ATOM     18  C   UNL     1       0.927   9.711  20.307  0.00  0.00    +0.000 C 
BRANCH  18  19
ATOM     19  C   UNL     1       0.187  10.919  19.791  0.00  0.00    +0.000 A 
ATOM     20  C   UNL     1       0.679  12.216  19.997  0.00  0.00    +0.000 A 
ATOM     21  C   UNL     1      -0.088  13.325  19.657  0.00  0.00    +0.000 A 
ATOM     22  C   UNL     1      -1.356  13.158  19.096  0.00  0.00    +0.000 A 
ATOM     23  C   UNL     1      -1.847  11.874  18.832  0.00  0.00    +0.000 A 
ATOM     24  C   UNL     1      -1.067  10.760  19.178  0.00  0.00    +0.000 A 
BRANCH  23  25
ATOM     25  N   UNL     1      -3.152  11.671  18.295  0.00  0.00    +0.000 N 
ATOM     26  N   UNL     1      -4.239  11.912  19.079  0.00  0.00    +0.000 NA
ATOM     27  C   UNL     1      -5.291  11.819  18.264  0.00  0.00    +0.000 A 
ATOM     28  C   UNL     1      -6.659  12.108  18.756  0.00  0.00    +0.000 C 
ATOM     29  C   UNL     1      -4.911  11.406  16.976  0.00  0.00    +0.000 A 
ATOM     30  C   UNL     1      -3.538  11.274  17.019  0.00  0.00    +0.000 A 
ATOM     31  C   UNL     1      -2.635  10.732  15.974  0.00  0.00    +0.000 C 
ENDBRANCH  23  25
ENDBRANCH  18  19
ENDBRANCH   3  18
TORSDOF 7
ENDMDL
MODEL 5
REMARK VINA RESULT:      -7.4      2.774      3.654
REMARK  Name = 
REMARK  11 active torsions:
REMARK  status: ('A' for Active; 'I' for Inactive)
REMARK    1  A    between atoms: C_1  and  O_2
REMARK    2  A    between atoms: O_2  and  C_3
REMARK    3  A    between atoms: C_3  and  C_4
REMARK    4  A    between atoms: C_4  and  C_5
REMARK    5  A    between atoms: C_10  and  C_11
REMARK    6  A    between atoms: N_13  and  C_14
REMARK    7  A    between atoms: N_13  and  C_15
REMARK    8  A    between atoms: C_15  and  C_16
REMARK    9  A    between atoms: C_20  and  N_21
REMARK   10  A    between atoms: C_23  and  C_24
REMARK   11  A    between atoms: C_26  and  C_27
REMARK                            x       y       z     vdW  Elec       q    Type
REMARK                         _______ _______ _______ _____ _____    ______ ____
ROOT
ATOM      1  C   UNL     1       1.236   8.810  20.260  0.00  0.00    +0.000 C 
ATOM      2  O   UNL     1       0.885   8.483  21.392  0.00  0.00    +0.000 OA
ATOM      3  N   UNL     1       2.024   7.965  19.460  0.00  0.00    +0.000 N 
ATOM      4  C   UNL     1       2.293   8.095  18.033  0.00  0.00    +0.000 C 
ENDROOT
BRANCH   1  10
ATOM      5  C   UNL     1       0.397  14.490  18.828  0.00  0.00    +0.000 A 
ATOM      6  N   UNL     1      -0.662  13.814  18.424  0.00  0.00    +0.000 NA
ATOM      7  C   UNL     1      -0.392  12.525  18.810  0.00  0.00    +0.000 A 
ATOM      8  C   UNL     1      -1.152  11.354  18.724  0.00  0.00    +0.000 A 
ATOM      9  C   UNL     1      -0.576  10.164  19.214  0.00  0.00    +0.000 A 
ATOM     10  C   UNL     1       0.724  10.130  19.776  0.00  0.00    +0.000 A 
ATOM     11  C   UNL     1       1.431  11.324  19.948  0.00  0.00    +0.000 A 
ATOM     12  C   UNL     1       0.849  12.469  19.417  0.00  0.00    +0.000 A 
ATOM     13  O   UNL     1       1.368  13.730  19.426  0.00  0.00    +0.000 OA
BRANCH   5  14
ATOM     14  C   UNL     1       0.632  15.953  18.796  0.00  0.00    +0.000 C 
BRANCH  14  15
ATOM     15  C   UNL     1      -0.531  16.738  19.382  0.00  0.00    +0.000 C 
BRANCH  15  17
ATOM     16  C   UNL     1      -0.429  17.978  17.376  0.00  0.00    +0.000 C 
ATOM     17  O   UNL     1      -1.276  17.316  18.307  0.00  0.00    +0.000 OA
ENDBRANCH  15  17
ENDBRANCH  14  15
ENDBRANCH   5  14
ENDBRANCH   1  10
BRANCH   3  18
ATOM     18  C   UNL     1       2.287   6.622  19.993  0.00  0.00    +0.000 C 
BRANCH  18  19
ATOM     19  C   UNL     1       2.452   5.555  18.940  0.00  0.00    +0.000 A 
ATOM     20  C   UNL     1       1.513   4.523  18.796  0.00  0.00    +0.000 A 
ATOM     21  C   UNL     1       1.756   3.461  17.931  0.00  0.00    +0.000 A 
ATOM     22  C   UNL     1       2.937   3.417  17.187  0.00  0.00    +0.000 A 
ATOM     23  C   UNL     1       3.865   4.462  17.273  0.00  0.00    +0.000 A 
ATOM     24  C   UNL     1       3.613   5.529  18.148  0.00  0.00    +0.000 A 
BRANCH  23  25
ATOM     25  N   UNL     1       5.096   4.427  16.554  0.00  0.00    +0.000 N 
ATOM     26  N   UNL     1       5.089   4.074  15.239  0.00  0.00    +0.000 NA
ATOM     27  C   UNL     1       6.327   4.312  14.802  0.00  0.00    +0.000 A 
ATOM     28  C   UNL     1       6.677   4.123  13.374  0.00  0.00    +0.000 C 
ATOM     29  C   UNL     1       7.176   4.711  15.848  0.00  0.00    +0.000 A 
ATOM     30  C   UNL     1       6.382   4.742  16.977  0.00  0.00    +0.000 A 
ATOM     31  C   UNL     1       6.798   4.964  18.384  0.00  0.00    +0.000 C 
ENDBRANCH  23  25
ENDBRANCH  18  19
ENDBRANCH   3  18
TORSDOF 7
ENDMDL
MODEL 6
REMARK VINA RESULT:      -7.4      2.768     10.522
REMARK  Name = 
REMARK  11 active torsions:
REMARK  status: ('A' for Active; 'I' for Inactive)
REMARK    1  A    between atoms: C_1  and  O_2
REMARK    2  A    between atoms: O_2  and  C_3
REMARK    3  A    between atoms: C_3  and  C_4
REMARK    4  A    between atoms: C_4  and  C_5
REMARK    5  A    between atoms: C_10  and  C_11
REMARK    6  A    between atoms: N_13  and  C_14
REMARK    7  A    between atoms: N_13  and  C_15
REMARK    8  A    between atoms: C_15  and  C_16
REMARK    9  A    between atoms: C_20  and  N_21
REMARK   10  A    between atoms: C_23  and  C_24
REMARK   11  A    between atoms: C_26  and  C_27
REMARK                            x       y       z     vdW  Elec       q    Type
REMARK                         _______ _______ _______ _____ _____    ______ ____
ROOT
ATOM      1  C   UNL     1       2.335   7.127  19.368  0.00  0.00    +0.000 C 
ATOM      2  O   UNL     1       1.948   6.606  20.412  0.00  0.00    +0.000 OA
ATOM      3  N   UNL     1       1.790   8.335  18.900  0.00  0.00    +0.000 N 
ATOM      4  C   UNL     1       2.314   9.191  17.844  0.00  0.00    +0.000 C 
ENDROOT
BRANCH   1  10
ATOM      5  C   UNL     1       6.278   4.992  15.506  0.00  0.00    +0.000 A 
ATOM      6  N   UNL     1       6.574   4.500  16.695  0.00  0.00    +0.000 NA
ATOM      7  C   UNL     1       5.608   5.027  17.514  0.00  0.00    +0.000 A 
ATOM      8  C   UNL     1       5.340   4.833  18.873  0.00  0.00    +0.000 A 
ATOM      9  C   UNL     1       4.257   5.542  19.433  0.00  0.00    +0.000 A 
ATOM     10  C   UNL     1       3.456   6.424  18.668  0.00  0.00    +0.000 A 
ATOM     11  C   UNL     1       3.671   6.530  17.291  0.00  0.00    +0.000 A 
ATOM     12  C   UNL     1       4.771   5.849  16.782  0.00  0.00    +0.000 A 
ATOM     13  O   UNL     1       5.201   5.838  15.488  0.00  0.00    +0.000 OA
BRANCH   5  14
ATOM     14  C   UNL     1       6.898   4.687  14.195  0.00  0.00    +0.000 C 
BRANCH  14  15
ATOM     15  C   UNL     1       6.189   3.554  13.470  0.00  0.00    +0.000 C 
BRANCH  15  17
ATOM     16  C   UNL     1       4.688   3.109  11.703  0.00  0.00    +0.000 C 
ATOM     17  O   UNL     1       5.427   4.108  12.395  0.00  0.00    +0.000 OA
ENDBRANCH  15  17
ENDBRANCH  14  15
ENDBRANCH   5  14
ENDBRANCH   1  10
BRANCH   3  18
ATOM     18  C   UNL     1       0.836   9.007  19.791  0.00  0.00    +0.000 C 
BRANCH  18  19
ATOM     19  C   UNL     1       0.245  10.275  19.228  0.00  0.00    +0.000 A 
ATOM     20  C   UNL     1       0.933  11.495  19.304  0.00  0.00    +0.000 A 
ATOM     21  C   UNL     1       0.313  12.681  18.925  0.00  0.00    +0.000 A 
ATOM     22  C   UNL     1      -1.001  12.668  18.452  0.00  0.00    +0.000 A 
ATOM     23  C   UNL     1      -1.690  11.457  18.316  0.00  0.00    +0.000 A 
ATOM     24  C   UNL     1      -1.058  10.265  18.702  0.00  0.00    +0.000 A 
BRANCH  23  25
ATOM     25  N   UNL     1      -3.044  11.415  17.873  0.00  0.00    +0.000 N 
ATOM     26  N   UNL     1      -4.037  11.774  18.733  0.00  0.00    +0.000 NA
ATOM     27  C   UNL     1      -5.147  11.815  17.995  0.00  0.00    +0.000 A 
ATOM     28  C   UNL     1      -6.434  12.258  18.583  0.00  0.00    +0.000 C 
ATOM     29  C   UNL     1      -4.910  11.375  16.682  0.00  0.00    +0.000 A 
ATOM     30  C   UNL     1      -3.563  11.083  16.626  0.00  0.00    +0.000 A 
ATOM     31  C   UNL     1      -2.806  10.450  15.517  0.00  0.00    +0.000 C 
ENDBRANCH  23  25
ENDBRANCH  18  19
ENDBRANCH   3  18
TORSDOF 7
ENDMDL
MODEL 7
REMARK VINA RESULT:      -7.4      2.693     10.581
REMARK  Name = 
REMARK  11 active torsions:
REMARK  status: ('A' for Active; 'I' for Inactive)
REMARK    1  A    between atoms: C_1  and  O_2
REMARK    2  A    between atoms: O_2  and  C_3
REMARK    3  A    between atoms: C_3  and  C_4
REMARK    4  A    between atoms: C_4  and  C_5
REMARK    5  A    between atoms: C_10  and  C_11
REMARK    6  A    between atoms: N_13  and  C_14
REMARK    7  A    between atoms: N_13  and  C_15
REMARK    8  A    between atoms: C_15  and  C_16
REMARK    9  A    between atoms: C_20  and  N_21
REMARK   10  A    between atoms: C_23  and  C_24
REMARK   11  A    between atoms: C_26  and  C_27
REMARK                            x       y       z     vdW  Elec       q    Type
REMARK                         _______ _______ _______ _____ _____    ______ ____
ROOT
ATOM      1  C   UNL     1       1.731   7.492  20.091  0.00  0.00    +0.000 C 
ATOM      2  O   UNL     1       1.406   7.242  21.251  0.00  0.00    +0.000 OA
ATOM      3  N   UNL     1       1.449   8.735  19.499  0.00  0.00    +0.000 N 
ATOM      4  C   UNL     1       1.989   9.264  18.253  0.00  0.00    +0.000 C 
ENDROOT
BRANCH   1  10
ATOM      5  C   UNL     1       5.166   4.265  16.513  0.00  0.00    +0.000 A 
ATOM      6  N   UNL     1       4.633   3.448  17.402  0.00  0.00    +0.000 NA
ATOM      7  C   UNL     1       3.847   4.270  18.169  0.00  0.00    +0.000 A 
ATOM      8  C   UNL     1       2.979   3.994  19.231  0.00  0.00    +0.000 A 
ATOM      9  C   UNL     1       2.308   5.082  19.825  0.00  0.00    +0.000 A 
ATOM     10  C   UNL     1       2.491   6.415  19.383  0.00  0.00    +0.000 A 
ATOM     11  C   UNL     1       3.281   6.664  18.257  0.00  0.00    +0.000 A 
ATOM     12  C   UNL     1       3.958   5.574  17.722  0.00  0.00    +0.000 A 
ATOM     13  O   UNL     1       4.812   5.581  16.660  0.00  0.00    +0.000 OA
BRANCH   5  14
ATOM     14  C   UNL     1       6.016   3.939  15.343  0.00  0.00    +0.000 C 
BRANCH  14  15
ATOM     15  C   UNL     1       6.360   5.169  14.518  0.00  0.00    +0.000 C 
BRANCH  15  17
ATOM     16  C   UNL     1       8.016   5.189  12.835  0.00  0.00    +0.000 C 
ATOM     17  O   UNL     1       7.762   5.148  14.234  0.00  0.00    +0.000 OA
ENDBRANCH  15  17
ENDBRANCH  14  15
ENDBRANCH   5  14
ENDBRANCH   1  10
BRANCH   3  18
ATOM     18  C   UNL     1       0.871   9.759  20.378  0.00  0.00    +0.000 C 
BRANCH  18  19
ATOM     19  C   UNL     1       0.229  10.913  19.651  0.00  0.00    +0.000 A 
ATOM     20  C   UNL     1       0.875  12.153  19.537  0.00  0.00    +0.000 A 
ATOM     21  C   UNL     1       0.210  13.252  19.004  0.00  0.00    +0.000 A 
ATOM     22  C   UNL     1      -1.111  13.129  18.566  0.00  0.00    +0.000 A 
ATOM     23  C   UNL     1      -1.760  11.890  18.619  0.00  0.00    +0.000 A 
ATOM     24  C   UNL     1      -1.081  10.786  19.159  0.00  0.00    +0.000 A 
BRANCH  23  25
ATOM     25  N   UNL     1      -3.118  11.742  18.214  0.00  0.00    +0.000 N 
ATOM     26  N   UNL     1      -4.112  12.066  19.087  0.00  0.00    +0.000 NA
ATOM     27  C   UNL     1      -5.240  12.006  18.378  0.00  0.00    +0.000 A 
ATOM     28  C   UNL     1      -6.539  12.384  18.985  0.00  0.00    +0.000 C 
ATOM     29  C   UNL     1      -5.007  11.534  17.076  0.00  0.00    +0.000 A 
ATOM     30  C   UNL     1      -3.644  11.329  16.995  0.00  0.00    +0.000 A 
ATOM     31  C   UNL     1      -2.874  10.707  15.889  0.00  0.00    +0.000 C 
ENDBRANCH  23  25
ENDBRANCH  18  19
ENDBRANCH   3  18
TORSDOF 7
ENDMDL
MODEL 8
REMARK VINA RESULT:      -7.3      3.547     10.348
REMARK  Name = 
REMARK  11 active torsions:
REMARK  status: ('A' for Active; 'I' for Inactive)
REMARK    1  A    between atoms: C_1  and  O_2
REMARK    2  A    between atoms: O_2  and  C_3
REMARK    3  A    between atoms: C_3  and  C_4
REMARK    4  A    between atoms: C_4  and  C_5
REMARK    5  A    between atoms: C_10  and  C_11
REMARK    6  A    between atoms: N_13  and  C_14
REMARK    7  A    between atoms: N_13  and  C_15
REMARK    8  A    between atoms: C_15  and  C_16
REMARK    9  A    between atoms: C_20  and  N_21
REMARK   10  A    between atoms: C_23  and  C_24
REMARK   11  A    between atoms: C_26  and  C_27
REMARK                            x       y       z     vdW  Elec       q    Type
REMARK                         _______ _______ _______ _____ _____    ______ ____
ROOT
ATOM      1  C   UNL     1       3.701   5.588  19.041  0.00  0.00    +0.000 C 
ATOM      2  O   UNL     1       3.746   4.708  19.899  0.00  0.00    +0.000 OA
ATOM      3  N   UNL     1       2.758   6.628  19.100  0.00  0.00    +0.000 N 
ATOM      4  C   UNL     1       2.750   7.860  18.321  0.00  0.00    +0.000 C 
ENDROOT
BRANCH   1  10
ATOM      5  C   UNL     1       6.811   4.770  14.073  0.00  0.00    +0.000 A 
ATOM      6  N   UNL     1       7.624   5.291  14.974  0.00  0.00    +0.000 NA
ATOM      7  C   UNL     1       6.831   5.427  16.086  0.00  0.00    +0.000 A 
ATOM      8  C   UNL     1       7.124   5.860  17.384  0.00  0.00    +0.000 A 
ATOM      9  C   UNL     1       6.065   5.893  18.315  0.00  0.00    +0.000 A 
ATOM     10  C   UNL     1       4.746   5.508  17.973  0.00  0.00    +0.000 A 
ATOM     11  C   UNL     1       4.490   4.982  16.703  0.00  0.00    +0.000 A 
ATOM     12  C   UNL     1       5.547   5.002  15.800  0.00  0.00    +0.000 A 
ATOM     13  O   UNL     1       5.523   4.584  14.503  0.00  0.00    +0.000 OA
BRANCH   5  14
ATOM     14  C   UNL     1       7.126   4.290  12.707  0.00  0.00    +0.000 C 
BRANCH  14  15
ATOM     15  C   UNL     1       6.148   3.229  12.228  0.00  0.00    +0.000 C 
BRANCH  15  17
ATOM     16  C   UNL     1       6.061   1.129  11.152  0.00  0.00    +0.000 C 
ATOM     17  O   UNL     1       6.869   2.257  11.466  0.00  0.00    +0.000 OA
ENDBRANCH  15  17
ENDBRANCH  14  15
ENDBRANCH   5  14
ENDBRANCH   1  10
BRANCH   3  18
ATOM     18  C   UNL     1       1.925   6.684  20.308  0.00  0.00    +0.000 C 
BRANCH  18  19
ATOM     19  C   UNL     1       1.405   8.059  20.643  0.00  0.00    +0.000 A 
ATOM     20  C   UNL     1       1.537   8.592  21.934  0.00  0.00    +0.000 A 
ATOM     21  C   UNL     1       0.917   9.791  22.271  0.00  0.00    +0.000 A 
ATOM     22  C   UNL     1       0.163  10.484  21.321  0.00  0.00    +0.000 A 
ATOM     23  C   UNL     1       0.062  10.000  20.011  0.00  0.00    +0.000 A 
ATOM     24  C   UNL     1       0.690   8.790  19.679  0.00  0.00    +0.000 A 
BRANCH  23  25
ATOM     25  N   UNL     1      -0.730  10.665  19.030  0.00  0.00    +0.000 N 
ATOM     26  N   UNL     1      -1.761   9.997  18.442  0.00  0.00    +0.000 NA
ATOM     27  C   UNL     1      -2.416  10.913  17.728  0.00  0.00    +0.000 A 
ATOM     28  C   UNL     1      -3.665  10.565  17.009  0.00  0.00    +0.000 C 
ATOM     29  C   UNL     1      -1.757  12.154  17.752  0.00  0.00    +0.000 A 
ATOM     30  C   UNL     1      -0.653  11.971  18.559  0.00  0.00    +0.000 A 
ATOM     31  C   UNL     1       0.462  12.917  18.816  0.00  0.00    +0.000 C 
ENDBRANCH  23  25
ENDBRANCH  18  19
ENDBRANCH   3  18
TORSDOF 7
ENDMDL
MODEL 9
REMARK VINA RESULT:      -7.2      2.784     11.061
REMARK  Name = 
REMARK  11 active torsions:
REMARK  status: ('A' for Active; 'I' for Inactive)
REMARK    1  A    between atoms: C_1  and  O_2
REMARK    2  A    between atoms: O_2  and  C_3
REMARK    3  A    between atoms: C_3  and  C_4
REMARK    4  A    between atoms: C_4  and  C_5
REMARK    5  A    between atoms: C_10  and  C_11
REMARK    6  A    between atoms: N_13  and  C_14
REMARK    7  A    between atoms: N_13  and  C_15
REMARK    8  A    between atoms: C_15  and  C_16
REMARK    9  A    between atoms: C_20  and  N_21
REMARK   10  A    between atoms: C_23  and  C_24
REMARK   11  A    between atoms: C_26  and  C_27
REMARK                            x       y       z     vdW  Elec       q    Type
REMARK                         _______ _______ _______ _____ _____    ______ ____
ROOT
ATOM      1  C   UNL     1       1.723   7.927  19.840  0.00  0.00    +0.000 C 
ATOM      2  O   UNL     1       1.436   7.810  21.031  0.00  0.00    +0.000 OA
ATOM      3  N   UNL     1       1.487   9.122  19.140  0.00  0.00    +0.000 N 
ATOM      4  C   UNL     1       2.000   9.494  17.827  0.00  0.00    +0.000 C 
ENDROOT
BRANCH   1  10
ATOM      5  C   UNL     1       4.984   4.186  16.618  0.00  0.00    +0.000 A 
ATOM      6  N   UNL     1       4.262   3.468  17.457  0.00  0.00    +0.000 NA
ATOM      7  C   UNL     1       3.532   4.406  18.143  0.00  0.00    +0.000 A 
ATOM      8  C   UNL     1       2.539   4.273  19.120  0.00  0.00    +0.000 A 
ATOM      9  C   UNL     1       1.977   5.456  19.643  0.00  0.00    +0.000 A 
ATOM     10  C   UNL     1       2.385   6.742  19.212  0.00  0.00    +0.000 A 
ATOM     11  C   UNL     1       3.304   6.857  18.164  0.00  0.00    +0.000 A 
ATOM     12  C   UNL     1       3.866   5.672  17.702  0.00  0.00    +0.000 A 
ATOM     13  O   UNL     1       4.807   5.541  16.724  0.00  0.00    +0.000 OA
BRANCH   5  14
ATOM     14  C   UNL     1       5.884   3.722  15.535  0.00  0.00    +0.000 C 
BRANCH  14  15
ATOM     15  C   UNL     1       6.954   4.747  15.195  0.00  0.00    +0.000 C 
BRANCH  15  17
ATOM     16  C   UNL     1       6.316   3.821  13.119  0.00  0.00    +0.000 C 
ATOM     17  O   UNL     1       7.045   4.853  13.771  0.00  0.00    +0.000 OA
ENDBRANCH  15  17
ENDBRANCH  14  15
ENDBRANCH   5  14
ENDBRANCH   1  10
BRANCH   3  18
ATOM     18  C   UNL     1       1.011  10.261  19.935  0.00  0.00    +0.000 C 
BRANCH  18  19
ATOM     19  C   UNL     1      -0.400  10.691  19.625  0.00  0.00    +0.000 A 
ATOM     20  C   UNL     1      -0.990  10.409  18.384  0.00  0.00    +0.000 A 
ATOM     21  C   UNL     1      -2.230  10.946  18.052  0.00  0.00    +0.000 A 
ATOM     22  C   UNL     1      -2.907  11.765  18.959  0.00  0.00    +0.000 A 
ATOM     23  C   UNL     1      -2.364  12.017  20.224  0.00  0.00    +0.000 A 
ATOM     24  C   UNL     1      -1.112  11.472  20.551  0.00  0.00    +0.000 A 
BRANCH  23  25
ATOM     25  N   UNL     1      -3.012  12.878  21.156  0.00  0.00    +0.000 N 
ATOM     26  N   UNL     1      -3.999  12.378  21.950  0.00  0.00    +0.000 NA
ATOM     27  C   UNL     1      -4.275  13.346  22.825  0.00  0.00    +0.000 A 
ATOM     28  C   UNL     1      -5.255  13.127  23.916  0.00  0.00    +0.000 C 
ATOM     29  C   UNL     1      -3.557  14.520  22.540  0.00  0.00    +0.000 A 
ATOM     30  C   UNL     1      -2.779  14.219  21.440  0.00  0.00    +0.000 A 
ATOM     31  C   UNL     1      -1.932  15.137  20.638  0.00  0.00    +0.000 C 
ENDBRANCH  23  25
ENDBRANCH  18  19
ENDBRANCH   3  18
TORSDOF 7
ENDMDL
