MODEL 1
REMARK VINA RESULT:      -7.7      0.000      0.000
REMARK  Name = 
REMARK  1 active torsions:
REMARK  status: ('A' for Active; 'I' for Inactive)
REMARK    1  A    between atoms: C_1  and  N_2
REMARK                            x       y       z     vdW  Elec       q    Type
REMARK                         _______ _______ _______ _____ _____    ______ ____
ROOT
ATOM      1  C   UNL     1      -1.334  11.495  19.462  0.00  0.00    +0.000 C 
ATOM      2  N   UNL     1      -0.051  10.803  19.443  0.00  0.00    +0.000 NA
ATOM      3  C   UNL     1       0.087   9.997  18.213  0.00  0.00    +0.000 C 
ATOM      4  C   UNL     1       1.439   9.262  18.159  0.00  0.00    +0.000 C 
ATOM      5  N   UNL     1       1.632   8.443  19.354  0.00  0.00    +0.000 N 
ATOM      6  C   UNL     1       2.216   7.191  19.337  0.00  0.00    +0.000 A 
ATOM      7  N   UNL     1       1.826   6.324  20.238  0.00  0.00    +0.000 NA
ATOM      8  C   UNL     1       2.328   5.010  20.242  0.00  0.00    +0.000 A 
ATOM      9  C   UNL     1       1.832   4.114  21.189  0.00  0.00    +0.000 A 
ATOM     10  C   UNL     1       2.296   2.804  21.213  0.00  0.00    +0.000 A 
ATOM     11  F   UNL     1       1.813   1.948  22.124  0.00  0.00    +0.000 F 
ATOM     12  C   UNL     1       3.257   2.361  20.308  0.00  0.00    +0.000 A 
ATOM     13  C   UNL     1       3.764   3.241  19.350  0.00  0.00    +0.000 A 
ATOM     14  C   UNL     1       3.289   4.555  19.324  0.00  0.00    +0.000 A 
ATOM     15  N   UNL     1       3.731   5.503  18.386  0.00  0.00    +0.000 N 
ATOM     16  C   UNL     1       4.666   5.376  17.387  0.00  0.00    +0.000 A 
ATOM     17  C   UNL     1       4.793   6.589  16.753  0.00  0.00    +0.000 A 
ATOM     18  C   UNL     1       3.905   7.483  17.389  0.00  0.00    +0.000 A 
ATOM     19  C   UNL     1       3.230   6.785  18.375  0.00  0.00    +0.000 A 
ATOM     20  C   UNL     1       1.430   9.158  20.620  0.00  0.00    +0.000 C 
ATOM     21  C   UNL     1       0.082   9.907  20.615  0.00  0.00    +0.000 C 
ENDROOT
TORSDOF 0
ENDMDL
MODEL 2
REMARK VINA RESULT:      -7.6      2.376      3.942
REMARK  Name = 
REMARK  1 active torsions:
REMARK  status: ('A' for Active; 'I' for Inactive)
REMARK    1  A    between atoms: C_1  and  N_2
REMARK                            x       y       z     vdW  Elec       q    Type
REMARK                         _______ _______ _______ _____ _____    ______ ____
ROOT
ATOM      1  C   UNL     1       0.896  12.169  20.823  0.00  0.00    +0.000 C 
ATOM      2  N   UNL     1       0.734  10.784  20.395  0.00  0.00    +0.000 NA
ATOM      3  C   UNL     1       1.466   9.872  21.297  0.00  0.00    +0.000 C 
ATOM      4  C   UNL     1       1.304   8.400  20.878  0.00  0.00    +0.000 C 
ATOM      5  N   UNL     1       1.710   8.209  19.487  0.00  0.00    +0.000 N 
ATOM      6  C   UNL     1       2.400   7.099  19.036  0.00  0.00    +0.000 A 
ATOM      7  N   UNL     1       3.212   7.257  18.021  0.00  0.00    +0.000 NA
ATOM      8  C   UNL     1       3.995   6.189  17.549  0.00  0.00    +0.000 A 
ATOM      9  C   UNL     1       4.886   6.431  16.504  0.00  0.00    +0.000 A 
ATOM     10  C   UNL     1       5.686   5.401  16.022  0.00  0.00    +0.000 A 
ATOM     11  F   UNL     1       6.541   5.643  15.018  0.00  0.00    +0.000 F 
ATOM     12  C   UNL     1       5.615   4.119  16.560  0.00  0.00    +0.000 A 
ATOM     13  C   UNL     1       4.733   3.856  17.610  0.00  0.00    +0.000 A 
ATOM     14  C   UNL     1       3.936   4.896  18.097  0.00  0.00    +0.000 A 
ATOM     15  N   UNL     1       3.033   4.726  19.159  0.00  0.00    +0.000 N 
ATOM     16  C   UNL     1       2.732   3.596  19.880  0.00  0.00    +0.000 A 
ATOM     17  C   UNL     1       1.753   3.909  20.793  0.00  0.00    +0.000 A 
ATOM     18  C   UNL     1       1.449   5.277  20.620  0.00  0.00    +0.000 A 
ATOM     19  C   UNL     1       2.276   5.775  19.628  0.00  0.00    +0.000 A 
ATOM     20  C   UNL     1       1.083   9.137  18.538  0.00  0.00    +0.000 C 
ATOM     21  C   UNL     1       1.239  10.594  19.016  0.00  0.00    +0.000 C 
ENDROOT
TORSDOF 0
ENDMDL
MODEL 3
REMARK VINA RESULT:      -7.5      1.264      1.336
REMARK  Name = 
REMARK  1 active torsions:
REMARK  status: ('A' for Active; 'I' for Inactive)
REMARK    1  A    between atoms: C_1  and  N_2
REMARK                            x       y       z     vdW  Elec       q    Type
REMARK                         _______ _______ _______ _____ _____    ______ ____
ROOT
ATOM      1  C   UNL     1      -0.592  11.242  19.693  0.00  0.00    +0.000 C 
ATOM      2  N   UNL     1       0.617  10.433  19.591  0.00  0.00    +0.000 NA
ATOM      3  C   UNL     1       0.834   9.992  18.198  0.00  0.00    +0.000 C 
ATOM      4  C   UNL     1       2.111   9.145  18.058  0.00  0.00    +0.000 C 
ATOM      5  N   UNL     1       2.083   8.007  18.975  0.00  0.00    +0.000 N 
ATOM      6  C   UNL     1       2.551   6.749  18.649  0.00  0.00    +0.000 A 
ATOM      7  N   UNL     1       1.978   5.718  19.219  0.00  0.00    +0.000 NA
ATOM      8  C   UNL     1       2.357   4.405  18.887  0.00  0.00    +0.000 A 
ATOM      9  C   UNL     1       1.671   3.347  19.482  0.00  0.00    +0.000 A 
ATOM     10  C   UNL     1       2.010   2.036  19.166  0.00  0.00    +0.000 A 
ATOM     11  F   UNL     1       1.344   1.024  19.741  0.00  0.00    +0.000 F 
ATOM     12  C   UNL     1       3.032   1.752  18.265  0.00  0.00    +0.000 A 
ATOM     13  C   UNL     1       3.729   2.796  17.655  0.00  0.00    +0.000 A 
ATOM     14  C   UNL     1       3.379   4.113  17.969  0.00  0.00    +0.000 A 
ATOM     15  N   UNL     1       4.015   5.224  17.392  0.00  0.00    +0.000 N 
ATOM     16  C   UNL     1       5.051   5.270  16.490  0.00  0.00    +0.000 A 
ATOM     17  C   UNL     1       5.363   6.588  16.250  0.00  0.00    +0.000 A 
ATOM     18  C   UNL     1       4.486   7.368  17.035  0.00  0.00    +0.000 A 
ATOM     19  C   UNL     1       3.635   6.509  17.708  0.00  0.00    +0.000 A 
ATOM     20  C   UNL     1       1.791   8.359  20.370  0.00  0.00    +0.000 C 
ATOM     21  C   UNL     1       0.526   9.236  20.459  0.00  0.00    +0.000 C 
ENDROOT
TORSDOF 0
ENDMDL
MODEL 4
REMARK VINA RESULT:      -7.2      1.075      1.195
REMARK  Name = 
REMARK  1 active torsions:
REMARK  status: ('A' for Active; 'I' for Inactive)
REMARK    1  A    between atoms: C_1  and  N_2
REMARK                            x       y       z     vdW  Elec       q    Type
REMARK                         _______ _______ _______ _____ _____    ______ ____
ROOT
ATOM      1  C   UNL     1      -1.423  11.557  21.835  0.00  0.00    +0.000 C 
ATOM      2  N   UNL     1      -0.200  10.884  21.413  0.00  0.00    +0.000 NA
ATOM      3  C   UNL     1      -0.357  10.320  20.057  0.00  0.00    +0.000 C 
ATOM      4  C   UNL     1       0.925   9.613  19.579  0.00  0.00    +0.000 C 
ATOM      5  N   UNL     1       1.339   8.589  20.536  0.00  0.00    +0.000 N 
ATOM      6  C   UNL     1       1.860   7.363  20.166  0.00  0.00    +0.000 A 
ATOM      7  N   UNL     1       1.641   6.344  20.958  0.00  0.00    +0.000 NA
ATOM      8  C   UNL     1       2.085   5.054  20.616  0.00  0.00    +0.000 A 
ATOM      9  C   UNL     1       1.771   3.996  21.469  0.00  0.00    +0.000 A 
ATOM     10  C   UNL     1       2.182   2.706  21.154  0.00  0.00    +0.000 A 
ATOM     11  F   UNL     1       1.874   1.695  21.978  0.00  0.00    +0.000 F 
ATOM     12  C   UNL     1       2.910   2.442  19.998  0.00  0.00    +0.000 A 
ATOM     13  C   UNL     1       3.232   3.485  19.128  0.00  0.00    +0.000 A 
ATOM     14  C   UNL     1       2.810   4.780  19.444  0.00  0.00    +0.000 A 
ATOM     15  N   UNL     1       3.076   5.886  18.620  0.00  0.00    +0.000 N 
ATOM     16  C   UNL     1       3.770   5.949  17.436  0.00  0.00    +0.000 A 
ATOM     17  C   UNL     1       3.803   7.259  17.019  0.00  0.00    +0.000 A 
ATOM     18  C   UNL     1       3.104   8.017  17.984  0.00  0.00    +0.000 A 
ATOM     19  C   UNL     1       2.630   7.146  18.950  0.00  0.00    +0.000 A 
ATOM     20  C   UNL     1       1.438   9.056  21.923  0.00  0.00    +0.000 C 
ATOM     21  C   UNL     1       0.148   9.788  22.346  0.00  0.00    +0.000 C 
ENDROOT
TORSDOF 0
ENDMDL
MODEL 5
REMARK VINA RESULT:      -7.1      4.672      6.688
REMARK  Name = 
REMARK  1 active torsions:
REMARK  status: ('A' for Active; 'I' for Inactive)
REMARK    1  A    between atoms: C_1  and  N_2
REMARK                            x       y       z     vdW  Elec       q    Type
REMARK                         _______ _______ _______ _____ _____    ______ ____
ROOT
ATOM      1  C   UNL     1       1.064   2.894  20.988  0.00  0.00    +0.000 C 
ATOM      2  N   UNL     1       2.437   3.148  20.566  0.00  0.00    +0.000 NA
ATOM      3  C   UNL     1       2.598   4.553  20.140  0.00  0.00    +0.000 C 
ATOM      4  C   UNL     1       4.042   4.855  19.699  0.00  0.00    +0.000 C 
ATOM      5  N   UNL     1       4.469   3.930  18.651  0.00  0.00    +0.000 N 
ATOM      6  C   UNL     1       5.245   4.304  17.571  0.00  0.00    +0.000 A 
ATOM      7  N   UNL     1       5.081   3.651  16.447  0.00  0.00    +0.000 NA
ATOM      8  C   UNL     1       5.790   4.018  15.289  0.00  0.00    +0.000 A 
ATOM      9  C   UNL     1       5.530   3.325  14.107  0.00  0.00    +0.000 A 
ATOM     10  C   UNL     1       6.202   3.670  12.939  0.00  0.00    +0.000 A 
ATOM     11  F   UNL     1       5.946   3.001  11.806  0.00  0.00    +0.000 F 
ATOM     12  C   UNL     1       7.141   4.697  12.923  0.00  0.00    +0.000 A 
ATOM     13  C   UNL     1       7.413   5.406  14.094  0.00  0.00    +0.000 A 
ATOM     14  C   UNL     1       6.729   5.062  15.264  0.00  0.00    +0.000 A 
ATOM     15  N   UNL     1       6.928   5.730  16.483  0.00  0.00    +0.000 N 
ATOM     16  C   UNL     1       7.781   6.764  16.786  0.00  0.00    +0.000 A 
ATOM     17  C   UNL     1       7.654   7.057  18.124  0.00  0.00    +0.000 A 
ATOM     18  C   UNL     1       6.690   6.170  18.650  0.00  0.00    +0.000 A 
ATOM     19  C   UNL     1       6.225   5.379  17.613  0.00  0.00    +0.000 A 
ATOM     20  C   UNL     1       4.262   2.513  18.970  0.00  0.00    +0.000 C 
ATOM     21  C   UNL     1       2.815   2.264  19.440  0.00  0.00    +0.000 C 
ENDROOT
TORSDOF 0
ENDMDL
MODEL 6
REMARK VINA RESULT:      -6.8      2.895      6.644
REMARK  Name = 
REMARK  1 active torsions:
REMARK  status: ('A' for Active; 'I' for Inactive)
REMARK    1  A    between atoms: C_1  and  N_2
REMARK                            x       y       z     vdW  Elec       q    Type
REMARK                         _______ _______ _______ _____ _____    ______ ____
ROOT
ATOM      1  C   UNL     1       6.442   4.009  13.738  0.00  0.00    +0.000 C 
ATOM      2  N   UNL     1       6.163   4.385  15.119  0.00  0.00    +0.000 NA
ATOM      3  C   UNL     1       4.872   3.820  15.561  0.00  0.00    +0.000 C 
ATOM      4  C   UNL     1       4.554   4.191  17.021  0.00  0.00    +0.000 C 
ATOM      5  N   UNL     1       4.591   5.640  17.208  0.00  0.00    +0.000 N 
ATOM      6  C   UNL     1       3.704   6.331  18.011  0.00  0.00    +0.000 A 
ATOM      7  N   UNL     1       3.411   7.563  17.677  0.00  0.00    +0.000 NA
ATOM      8  C   UNL     1       2.467   8.306  18.409  0.00  0.00    +0.000 A 
ATOM      9  C   UNL     1       2.150   9.591  17.971  0.00  0.00    +0.000 A 
ATOM     10  C   UNL     1       1.212  10.348  18.663  0.00  0.00    +0.000 A 
ATOM     11  F   UNL     1       0.911  11.582  18.233  0.00  0.00    +0.000 F 
ATOM     12  C   UNL     1       0.577   9.851  19.797  0.00  0.00    +0.000 A 
ATOM     13  C   UNL     1       0.876   8.565  20.251  0.00  0.00    +0.000 A 
ATOM     14  C   UNL     1       1.814   7.803  19.547  0.00  0.00    +0.000 A 
ATOM     15  N   UNL     1       2.165   6.496  19.923  0.00  0.00    +0.000 N 
ATOM     16  C   UNL     1       1.727   5.743  20.985  0.00  0.00    +0.000 A 
ATOM     17  C   UNL     1       2.387   4.537  20.966  0.00  0.00    +0.000 A 
ATOM     18  C   UNL     1       3.256   4.559  19.853  0.00  0.00    +0.000 A 
ATOM     19  C   UNL     1       3.079   5.766  19.198  0.00  0.00    +0.000 A 
ATOM     20  C   UNL     1       5.814   6.286  16.716  0.00  0.00    +0.000 C 
ATOM     21  C   UNL     1       6.111   5.858  15.265  0.00  0.00    +0.000 C 
ENDROOT
TORSDOF 0
ENDMDL
MODEL 7
REMARK VINA RESULT:      -6.6      2.696      6.334
REMARK  Name = 
REMARK  1 active torsions:
REMARK  status: ('A' for Active; 'I' for Inactive)
REMARK    1  A    between atoms: C_1  and  N_2
REMARK                            x       y       z     vdW  Elec       q    Type
REMARK                         _______ _______ _______ _____ _____    ______ ____
ROOT
ATOM      1  C   UNL     1       6.698   4.399  13.817  0.00  0.00    +0.000 C 
ATOM      2  N   UNL     1       6.412   4.462  15.245  0.00  0.00    +0.000 NA
ATOM      3  C   UNL     1       5.176   3.717  15.562  0.00  0.00    +0.000 C 
ATOM      4  C   UNL     1       4.854   3.756  17.067  0.00  0.00    +0.000 C 
ATOM      5  N   UNL     1       4.781   5.135  17.546  0.00  0.00    +0.000 N 
ATOM      6  C   UNL     1       3.855   5.574  18.474  0.00  0.00    +0.000 A 
ATOM      7  N   UNL     1       3.461   6.821  18.398  0.00  0.00    +0.000 NA
ATOM      8  C   UNL     1       2.474   7.320  19.267  0.00  0.00    +0.000 A 
ATOM      9  C   UNL     1       2.050   8.638  19.100  0.00  0.00    +0.000 A 
ATOM     10  C   UNL     1       1.066   9.161  19.933  0.00  0.00    +0.000 A 
ATOM     11  F   UNL     1       0.664  10.429  19.765  0.00  0.00    +0.000 F 
ATOM     12  C   UNL     1       0.491   8.393  20.941  0.00  0.00    +0.000 A 
ATOM     13  C   UNL     1       0.897   7.070  21.122  0.00  0.00    +0.000 A 
ATOM     14  C   UNL     1       1.881   6.546  20.278  0.00  0.00    +0.000 A 
ATOM     15  N   UNL     1       2.339   5.222  20.378  0.00  0.00    +0.000 N 
ATOM     16  C   UNL     1       1.978   4.235  21.264  0.00  0.00    +0.000 A 
ATOM     17  C   UNL     1       2.730   3.115  20.998  0.00  0.00    +0.000 A 
ATOM     18  C   UNL     1       3.576   3.433  19.913  0.00  0.00    +0.000 A 
ATOM     19  C   UNL     1       3.296   4.730  19.520  0.00  0.00    +0.000 A 
ATOM     20  C   UNL     1       5.941   5.963  17.197  0.00  0.00    +0.000 C 
ATOM     21  C   UNL     1       6.247   5.865  15.689  0.00  0.00    +0.000 C 
ENDROOT
TORSDOF 0
ENDMDL
MODEL 8
REMARK VINA RESULT:      -6.6      2.824      4.461
REMARK  Name = 
REMARK  1 active torsions:
REMARK  status: ('A' for Active; 'I' for Inactive)
REMARK    1  A    between atoms: C_1  and  N_2
REMARK                            x       y       z     vdW  Elec       q    Type
REMARK                         _______ _______ _______ _____ _____    ______ ____
ROOT
ATOM      1  C   UNL     1       1.053  10.391  21.264  0.00  0.00    +0.000 C 
ATOM      2  N   UNL     1       0.975   9.252  20.357  0.00  0.00    +0.000 NA
ATOM      3  C   UNL     1       1.487   8.031  21.010  0.00  0.00    +0.000 C 
ATOM      4  C   UNL     1       1.407   6.806  20.080  0.00  0.00    +0.000 C 
ATOM      5  N   UNL     1       2.101   7.065  18.821  0.00  0.00    +0.000 N 
ATOM      6  C   UNL     1       2.863   6.121  18.158  0.00  0.00    +0.000 A 
ATOM      7  N   UNL     1       3.876   6.546  17.446  0.00  0.00    +0.000 NA
ATOM      8  C   UNL     1       4.733   5.639  16.797  0.00  0.00    +0.000 A 
ATOM      9  C   UNL     1       5.831   6.146  16.102  0.00  0.00    +0.000 A 
ATOM     10  C   UNL     1       6.707   5.278  15.460  0.00  0.00    +0.000 A 
ATOM     11  F   UNL     1       7.761   5.773  14.796  0.00  0.00    +0.000 F 
ATOM     12  C   UNL     1       6.510   3.900  15.491  0.00  0.00    +0.000 A 
ATOM     13  C   UNL     1       5.421   3.371  16.185  0.00  0.00    +0.000 A 
ATOM     14  C   UNL     1       4.547   4.247  16.836  0.00  0.00    +0.000 A 
ATOM     15  N   UNL     1       3.434   3.803  17.569  0.00  0.00    +0.000 N 
ATOM     16  C   UNL     1       2.975   2.524  17.775  0.00  0.00    +0.000 A 
ATOM     17  C   UNL     1       1.825   2.589  18.525  0.00  0.00    +0.000 A 
ATOM     18  C   UNL     1       1.577   3.955  18.783  0.00  0.00    +0.000 A 
ATOM     19  C   UNL     1       2.603   4.690  18.214  0.00  0.00    +0.000 A 
ATOM     20  C   UNL     1       1.702   8.309  18.151  0.00  0.00    +0.000 C 
ATOM     21  C   UNL     1       1.764   9.499  19.129  0.00  0.00    +0.000 C 
ENDROOT
TORSDOF 0
ENDMDL
MODEL 9
REMARK VINA RESULT:      -6.6      3.089      6.348
REMARK  Name = 
REMARK  1 active torsions:
REMARK  status: ('A' for Active; 'I' for Inactive)
REMARK    1  A    between atoms: C_1  and  N_2
REMARK                            x       y       z     vdW  Elec       q    Type
REMARK                         _______ _______ _______ _____ _____    ______ ____
ROOT
ATOM      1  C   UNL     1       7.855   5.442  13.200  0.00  0.00    +0.000 C 
ATOM      2  N   UNL     1       7.416   4.884  14.474  0.00  0.00    +0.000 NA
ATOM      3  C   UNL     1       6.123   4.187  14.319  0.00  0.00    +0.000 C 
ATOM      4  C   UNL     1       5.639   3.577  15.647  0.00  0.00    +0.000 C 
ATOM      5  N   UNL     1       5.571   4.596  16.692  0.00  0.00    +0.000 N 
ATOM      6  C   UNL     1       4.568   4.653  17.641  0.00  0.00    +0.000 A 
ATOM      7  N   UNL     1       4.237   5.830  18.109  0.00  0.00    +0.000 NA
ATOM      8  C   UNL     1       3.182   5.973  19.028  0.00  0.00    +0.000 A 
ATOM      9  C   UNL     1       2.836   7.257  19.445  0.00  0.00    +0.000 A 
ATOM     10  C   UNL     1       1.789   7.436  20.343  0.00  0.00    +0.000 A 
ATOM     11  F   UNL     1       1.461   8.674  20.738  0.00  0.00    +0.000 F 
ATOM     12  C   UNL     1       1.074   6.352  20.844  0.00  0.00    +0.000 A 
ATOM     13  C   UNL     1       1.402   5.058  20.436  0.00  0.00    +0.000 A 
ATOM     14  C   UNL     1       2.449   4.883  19.527  0.00  0.00    +0.000 A 
ATOM     15  N   UNL     1       2.838   3.620  19.051  0.00  0.00    +0.000 N 
ATOM     16  C   UNL     1       2.340   2.377  19.360  0.00  0.00    +0.000 A 
ATOM     17  C   UNL     1       3.069   1.433  18.676  0.00  0.00    +0.000 A 
ATOM     18  C   UNL     1       4.042   2.127  17.925  0.00  0.00    +0.000 A 
ATOM     19  C   UNL     1       3.862   3.483  18.142  0.00  0.00    +0.000 A 
ATOM     20  C   UNL     1       6.797   5.387  16.850  0.00  0.00    +0.000 C 
ATOM     21  C   UNL     1       7.263   5.949  15.492  0.00  0.00    +0.000 C 
ENDROOT
TORSDOF 0
ENDMDL
