MODEL 1
REMARK VINA RESULT:      -8.9      0.000      0.000
REMARK  Name = 
REMARK  9 active torsions:
REMARK  status: ('A' for Active; 'I' for Inactive)
REMARK    1  A    between atoms: C_2  and  C_12
REMARK    2  A    between atoms: N_3  and  C_4
REMARK    3  A    between atoms: C_4  and  C_5
REMARK    4  A    between atoms: C_5  and  C_6
REMARK    5  A    between atoms: C_15  and  C_16
REMARK    6  A    between atoms: C_16  and  S_17
REMARK    7  A    between atoms: S_17  and  C_18
REMARK    8  A    between atoms: N_26  and  C_27
REMARK    9  A    between atoms: C_27  and  C_28
REMARK                            x       y       z     vdW  Elec       q    Type
REMARK                         _______ _______ _______ _____ _____    ______ ____
ROOT
ATOM      1  C   UNL     1      -0.194   9.593  21.599  0.00  0.00    +0.000 C 
ENDROOT
BRANCH   1   5
ATOM      2  C   UNL     1       2.492   7.857  18.660  0.00  0.00    +0.000 A 
ATOM      3  C   UNL     1       2.259   7.203  19.875  0.00  0.00    +0.000 A 
ATOM      4  C   UNL     1       1.383   7.756  20.812  0.00  0.00    +0.000 A 
ATOM      5  C   UNL     1       0.725   8.973  20.560  0.00  0.00    +0.000 A 
ATOM      6  C   UNL     1       0.948   9.609  19.329  0.00  0.00    +0.000 A 
ATOM      7  C   UNL     1       1.822   9.055  18.384  0.00  0.00    +0.000 A 
BRANCH   2   9
ATOM      8  O   UNL     1       3.492   7.681  16.529  0.00  0.00    +0.000 OA
ATOM      9  C   UNL     1       3.423   7.242  17.673  0.00  0.00    +0.000 C 
ATOM     10  N   UNL     1       4.151   6.154  18.120  0.00  0.00    +0.000 N 
ATOM     11  H   UNL     1       3.843   5.692  18.965  0.00  0.00    +0.000 HD
BRANCH  10  12
ATOM     12  C   UNL     1       5.044   5.442  17.221  0.00  0.00    +0.000 C 
BRANCH  12  13
ATOM     13  C   UNL     1       4.473   4.091  16.789  0.00  0.00    +0.000 C 
BRANCH  13  14
ATOM     14  C   UNL     1       3.473   3.554  17.782  0.00  0.00    +0.000 A 
ATOM     15  C   UNL     1       3.905   2.865  18.923  0.00  0.00    +0.000 A 
ATOM     16  C   UNL     1       2.980   2.333  19.823  0.00  0.00    +0.000 A 
ATOM     17  C   UNL     1       1.614   2.484  19.591  0.00  0.00    +0.000 A 
ATOM     18  C   UNL     1       1.173   3.170  18.461  0.00  0.00    +0.000 A 
ATOM     19  C   UNL     1       2.096   3.701  17.559  0.00  0.00    +0.000 A 
ENDBRANCH  13  14
ENDBRANCH  12  13
ENDBRANCH  10  12
ENDBRANCH   2   9
ENDBRANCH   1   5
BRANCH   1  20
ATOM     20  S   UNL     1      -0.148  11.401  21.479  0.00  0.00    +0.000 S 
BRANCH  20  21
ATOM     21  C   UNL     1      -1.658  11.911  22.153  0.00  0.00    +0.000 A 
ATOM     22  N   UNL     1      -2.063  11.745  23.396  0.00  0.00    +0.000 NA
ATOM     23  C   UNL     1      -3.330  12.283  23.426  0.00  0.00    +0.000 A 
ATOM     24  C   UNL     1      -4.267  12.409  24.463  0.00  0.00    +0.000 A 
ATOM     25  C   UNL     1      -5.497  13.000  24.151  0.00  0.00    +0.000 A 
ATOM     26  C   UNL     1      -5.731  13.437  22.853  0.00  0.00    +0.000 A 
ATOM     27  N   UNL     1      -4.855  13.362  21.824  0.00  0.00    +0.000 NA
ATOM     28  C   UNL     1      -3.691  12.778  22.178  0.00  0.00    +0.000 A 
ATOM     29  N   UNL     1      -2.596  12.557  21.382  0.00  0.00    +0.000 N 
BRANCH  29  30
ATOM     30  C   UNL     1      -2.444  13.071  20.032  0.00  0.00    +0.000 C 
BRANCH  30  31
ATOM     31  C   UNL     1      -2.797  12.068  18.966  0.00  0.00    +0.000 A 
ATOM     32  C   UNL     1      -4.105  11.580  18.827  0.00  0.00    +0.000 A 
ATOM     33  C   UNL     1      -4.434  10.720  17.775  0.00  0.00    +0.000 A 
ATOM     34  C   UNL     1      -3.462  10.336  16.852  0.00  0.00    +0.000 A 
ATOM     35  C   UNL     1      -2.157  10.802  16.987  0.00  0.00    +0.000 A 
ATOM     36  C   UNL     1      -1.836  11.660  18.036  0.00  0.00    +0.000 A 
ATOM     37  F   UNL     1      -0.580  12.117  18.126  0.00  0.00    +0.000 F 
ENDBRANCH  30  31
ENDBRANCH  29  30
ENDBRANCH  20  21
ENDBRANCH   1  20
TORSDOF 9
ENDMDL
MODEL 2
REMARK VINA RESULT:      -8.9      1.775      3.047
REMARK  Name = 
REMARK  9 active torsions:
REMARK  status: ('A' for Active; 'I' for Inactive)
REMARK    1  A    between atoms: C_2  and  C_12
REMARK    2  A    between atoms: N_3  and  C_4
REMARK    3  A    between atoms: C_4  and  C_5
REMARK    4  A    between atoms: C_5  and  C_6
REMARK    5  A    between atoms: C_15  and  C_16
REMARK    6  A    between atoms: C_16  and  S_17
REMARK    7  A    between atoms: S_17  and  C_18
REMARK    8  A    between atoms: N_26  and  C_27
REMARK    9  A    between atoms: C_27  and  C_28
REMARK                            x       y       z     vdW  Elec       q    Type
REMARK                         _______ _______ _______ _____ _____    ______ ____
ROOT
ATOM      1  C   UNL     1       0.971   8.922  21.594  0.00  0.00    +0.000 C 
ENDROOT
BRANCH   1   5
ATOM      2  C   UNL     1       2.449   5.837  18.919  0.00  0.00    +0.000 A 
ATOM      3  C   UNL     1       2.471   7.179  18.526  0.00  0.00    +0.000 A 
ATOM      4  C   UNL     1       2.009   8.171  19.395  0.00  0.00    +0.000 A 
ATOM      5  C   UNL     1       1.512   7.845  20.669  0.00  0.00    +0.000 A 
ATOM      6  C   UNL     1       1.515   6.498  21.062  0.00  0.00    +0.000 A 
ATOM      7  C   UNL     1       1.982   5.501  20.195  0.00  0.00    +0.000 A 
BRANCH   2   9
ATOM      8  O   UNL     1       2.448   3.681  17.956  0.00  0.00    +0.000 OA
ATOM      9  C   UNL     1       2.956   4.798  17.978  0.00  0.00    +0.000 C 
ATOM     10  N   UNL     1       4.027   5.167  17.186  0.00  0.00    +0.000 N 
ATOM     11  H   UNL     1       4.554   5.989  17.452  0.00  0.00    +0.000 HD
BRANCH  10  12
ATOM     12  C   UNL     1       4.638   4.211  16.277  0.00  0.00    +0.000 C 
BRANCH  12  13
ATOM     13  C   UNL     1       5.995   4.691  15.759  0.00  0.00    +0.000 C 
BRANCH  13  14
ATOM     14  C   UNL     1       6.761   5.462  16.805  0.00  0.00    +0.000 A 
ATOM     15  C   UNL     1       7.292   4.805  17.923  0.00  0.00    +0.000 A 
ATOM     16  C   UNL     1       7.967   5.522  18.912  0.00  0.00    +0.000 A 
ATOM     17  C   UNL     1       8.118   6.903  18.794  0.00  0.00    +0.000 A 
ATOM     18  C   UNL     1       7.596   7.566  17.685  0.00  0.00    +0.000 A 
ATOM     19  C   UNL     1       6.920   6.851  16.695  0.00  0.00    +0.000 A 
ENDBRANCH  13  14
ENDBRANCH  12  13
ENDBRANCH  10  12
ENDBRANCH   2   9
ENDBRANCH   1   5
BRANCH   1  20
ATOM     20  S   UNL     1       0.786  10.486  20.696  0.00  0.00    +0.000 S 
BRANCH  20  21
ATOM     21  C   UNL     1      -0.613  11.221  21.401  0.00  0.00    +0.000 A 
ATOM     22  N   UNL     1      -0.970  11.180  22.669  0.00  0.00    +0.000 NA
ATOM     23  C   UNL     1      -2.159  11.873  22.720  0.00  0.00    +0.000 A 
ATOM     24  C   UNL     1      -3.019  12.177  23.787  0.00  0.00    +0.000 A 
ATOM     25  C   UNL     1      -4.182  12.897  23.491  0.00  0.00    +0.000 A 
ATOM     26  C   UNL     1      -4.428  13.282  22.179  0.00  0.00    +0.000 A 
ATOM     27  N   UNL     1      -3.622  13.037  21.119  0.00  0.00    +0.000 NA
ATOM     28  C   UNL     1      -2.521  12.334  21.460  0.00  0.00    +0.000 A 
ATOM     29  N   UNL     1      -1.504  11.932  20.632  0.00  0.00    +0.000 N 
BRANCH  29  30
ATOM     30  C   UNL     1      -1.361  12.341  19.246  0.00  0.00    +0.000 C 
BRANCH  30  31
ATOM     31  C   UNL     1      -2.142  11.486  18.285  0.00  0.00    +0.000 A 
ATOM     32  C   UNL     1      -3.487  11.758  17.991  0.00  0.00    +0.000 A 
ATOM     33  C   UNL     1      -4.170  11.009  17.028  0.00  0.00    +0.000 A 
ATOM     34  C   UNL     1      -3.519   9.979  16.348  0.00  0.00    +0.000 A 
ATOM     35  C   UNL     1      -2.189   9.690  16.640  0.00  0.00    +0.000 A 
ATOM     36  C   UNL     1      -1.514  10.441  17.600  0.00  0.00    +0.000 A 
ATOM     37  F   UNL     1      -0.226  10.161  17.840  0.00  0.00    +0.000 F 
ENDBRANCH  30  31
ENDBRANCH  29  30
ENDBRANCH  20  21
ENDBRANCH   1  20
TORSDOF 9
ENDMDL
MODEL 3
REMARK VINA RESULT:      -8.8      2.198      4.821
REMARK  Name = 
REMARK  9 active torsions:
REMARK  status: ('A' for Active; 'I' for Inactive)
REMARK    1  A    between atoms: C_2  and  C_12
REMARK    2  A    between atoms: N_3  and  C_4
REMARK    3  A    between atoms: C_4  and  C_5
REMARK    4  A    between atoms: C_5  and  C_6
REMARK    5  A    between atoms: C_15  and  C_16
REMARK    6  A    between atoms: C_16  and  S_17
REMARK    7  A    between atoms: S_17  and  C_18
REMARK    8  A    between atoms: N_26  and  C_27
REMARK    9  A    between atoms: C_27  and  C_28
REMARK                            x       y       z     vdW  Elec       q    Type
REMARK                         _______ _______ _______ _____ _____    ______ ____
ROOT
ATOM      1  C   UNL     1       0.884   9.326  20.655  0.00  0.00    +0.000 C 
ENDROOT
BRANCH   1   5
ATOM      2  C   UNL     1       2.882   5.861  18.964  0.00  0.00    +0.000 A 
ATOM      3  C   UNL     1       2.882   7.079  18.276  0.00  0.00    +0.000 A 
ATOM      4  C   UNL     1       2.251   8.196  18.830  0.00  0.00    +0.000 A 
ATOM      5  C   UNL     1       1.605   8.121  20.076  0.00  0.00    +0.000 A 
ATOM      6  C   UNL     1       1.631   6.900  20.768  0.00  0.00    +0.000 A 
ATOM      7  C   UNL     1       2.267   5.779  20.219  0.00  0.00    +0.000 A 
BRANCH   2   9
ATOM      8  O   UNL     1       3.720   3.654  19.004  0.00  0.00    +0.000 OA
ATOM      9  C   UNL     1       3.570   4.687  18.357  0.00  0.00    +0.000 C 
ATOM     10  N   UNL     1       4.042   4.858  17.069  0.00  0.00    +0.000 N 
ATOM     11  H   UNL     1       4.124   5.801  16.715  0.00  0.00    +0.000 HD
BRANCH  10  12
ATOM     12  C   UNL     1       4.781   3.796  16.405  0.00  0.00    +0.000 C 
BRANCH  12  13
ATOM     13  C   UNL     1       6.150   4.265  15.912  0.00  0.00    +0.000 C 
BRANCH  13  14
ATOM     14  C   UNL     1       6.803   5.224  16.876  0.00  0.00    +0.000 A 
ATOM     15  C   UNL     1       6.915   6.584  16.557  0.00  0.00    +0.000 A 
ATOM     16  C   UNL     1       7.554   7.466  17.430  0.00  0.00    +0.000 A 
ATOM     17  C   UNL     1       8.087   6.998  18.630  0.00  0.00    +0.000 A 
ATOM     18  C   UNL     1       7.979   5.648  18.958  0.00  0.00    +0.000 A 
ATOM     19  C   UNL     1       7.342   4.764  18.086  0.00  0.00    +0.000 A 
ENDBRANCH  13  14
ENDBRANCH  12  13
ENDBRANCH  10  12
ENDBRANCH   2   9
ENDBRANCH   1   5
BRANCH   1  20
ATOM     20  S   UNL     1       0.989  10.730  19.512  0.00  0.00    +0.000 S 
BRANCH  20  21
ATOM     21  C   UNL     1      -0.510  10.692  18.650  0.00  0.00    +0.000 A 
ATOM     22  N   UNL     1      -0.919   9.753  17.821  0.00  0.00    +0.000 NA
ATOM     23  C   UNL     1      -2.143  10.194  17.368  0.00  0.00    +0.000 A 
ATOM     24  C   UNL     1      -3.067   9.631  16.475  0.00  0.00    +0.000 A 
ATOM     25  C   UNL     1      -4.231  10.361  16.209  0.00  0.00    +0.000 A 
ATOM     26  C   UNL     1      -4.424  11.587  16.834  0.00  0.00    +0.000 A 
ATOM     27  N   UNL     1      -3.577  12.163  17.720  0.00  0.00    +0.000 NA
ATOM     28  C   UNL     1      -2.470  11.421  17.934  0.00  0.00    +0.000 A 
ATOM     29  N   UNL     1      -1.425  11.710  18.775  0.00  0.00    +0.000 N 
BRANCH  29  30
ATOM     30  C   UNL     1      -1.411  12.816  19.717  0.00  0.00    +0.000 C 
BRANCH  30  31
ATOM     31  C   UNL     1      -2.069  12.492  21.031  0.00  0.00    +0.000 A 
ATOM     32  C   UNL     1      -1.380  11.809  22.044  0.00  0.00    +0.000 A 
ATOM     33  C   UNL     1      -1.975  11.597  23.291  0.00  0.00    +0.000 A 
ATOM     34  C   UNL     1      -3.266  12.063  23.541  0.00  0.00    +0.000 A 
ATOM     35  C   UNL     1      -3.966  12.731  22.539  0.00  0.00    +0.000 A 
ATOM     36  C   UNL     1      -3.366  12.939  21.300  0.00  0.00    +0.000 A 
ATOM     37  F   UNL     1      -4.051  13.611  20.364  0.00  0.00    +0.000 F 
ENDBRANCH  30  31
ENDBRANCH  29  30
ENDBRANCH  20  21
ENDBRANCH   1  20
TORSDOF 9
ENDMDL
MODEL 4
REMARK VINA RESULT:      -8.6      2.386      3.766
REMARK  Name = 
REMARK  9 active torsions:
REMARK  status: ('A' for Active; 'I' for Inactive)
REMARK    1  A    between atoms: C_2  and  C_12
REMARK    2  A    between atoms: N_3  and  C_4
REMARK    3  A    between atoms: C_4  and  C_5
REMARK    4  A    between atoms: C_5  and  C_6
REMARK    5  A    between atoms: C_15  and  C_16
REMARK    6  A    between atoms: C_16  and  S_17
REMARK    7  A    between atoms: S_17  and  C_18
REMARK    8  A    between atoms: N_26  and  C_27
REMARK    9  A    between atoms: C_27  and  C_28
REMARK                            x       y       z     vdW  Elec       q    Type
REMARK                         _______ _______ _______ _____ _____    ______ ____
ROOT
ATOM      1  C   UNL     1       0.145  10.467  19.584  0.00  0.00    +0.000 C 
ENDROOT
BRANCH   1   5
ATOM      2  C   UNL     1       2.917   7.303  18.505  0.00  0.00    +0.000 A 
ATOM      3  C   UNL     1       2.295   7.297  19.758  0.00  0.00    +0.000 A 
ATOM      4  C   UNL     1       1.392   8.308  20.097  0.00  0.00    +0.000 A 
ATOM      5  C   UNL     1       1.095   9.346  19.196  0.00  0.00    +0.000 A 
ATOM      6  C   UNL     1       1.707   9.330  17.933  0.00  0.00    +0.000 A 
ATOM      7  C   UNL     1       2.609   8.314  17.588  0.00  0.00    +0.000 A 
BRANCH   2   9
ATOM      8  O   UNL     1       4.101   5.931  16.990  0.00  0.00    +0.000 OA
ATOM      9  C   UNL     1       3.869   6.208  18.164  0.00  0.00    +0.000 C 
ATOM     10  N   UNL     1       4.422   5.529  19.234  0.00  0.00    +0.000 N 
ATOM     11  H   UNL     1       3.982   5.628  20.139  0.00  0.00    +0.000 HD
BRANCH  10  12
ATOM     12  C   UNL     1       5.317   4.404  19.012  0.00  0.00    +0.000 C 
BRANCH  12  13
ATOM     13  C   UNL     1       4.754   3.098  19.574  0.00  0.00    +0.000 C 
BRANCH  13  14
ATOM     14  C   UNL     1       3.246   3.107  19.629  0.00  0.00    +0.000 A 
ATOM     15  C   UNL     1       2.581   3.424  20.821  0.00  0.00    +0.000 A 
ATOM     16  C   UNL     1       1.188   3.395  20.884  0.00  0.00    +0.000 A 
ATOM     17  C   UNL     1       0.444   3.047  19.758  0.00  0.00    +0.000 A 
ATOM     18  C   UNL     1       1.095   2.733  18.566  0.00  0.00    +0.000 A 
ATOM     19  C   UNL     1       2.489   2.760  18.501  0.00  0.00    +0.000 A 
ENDBRANCH  13  14
ENDBRANCH  12  13
ENDBRANCH  10  12
ENDBRANCH   2   9
ENDBRANCH   1   5
BRANCH   1  20
ATOM     20  S   UNL     1      -0.221  10.394  21.358  0.00  0.00    +0.000 S 
BRANCH  20  21
ATOM     21  C   UNL     1      -0.215  12.049  21.863  0.00  0.00    +0.000 A 
ATOM     22  N   UNL     1       0.587  13.002  21.432  0.00  0.00    +0.000 NA
ATOM     23  C   UNL     1       0.227  14.117  22.155  0.00  0.00    +0.000 A 
ATOM     24  C   UNL     1       0.709  15.435  22.143  0.00  0.00    +0.000 A 
ATOM     25  C   UNL     1       0.127  16.341  23.037  0.00  0.00    +0.000 A 
ATOM     26  C   UNL     1      -0.892  15.909  23.878  0.00  0.00    +0.000 A 
ATOM     27  N   UNL     1      -1.409  14.658  23.912  0.00  0.00    +0.000 NA
ATOM     28  C   UNL     1      -0.807  13.826  23.038  0.00  0.00    +0.000 A 
ATOM     29  N   UNL     1      -1.096  12.503  22.816  0.00  0.00    +0.000 N 
BRANCH  29  30
ATOM     30  C   UNL     1      -2.233  11.803  23.388  0.00  0.00    +0.000 C 
BRANCH  30  31
ATOM     31  C   UNL     1      -3.558  12.422  23.034  0.00  0.00    +0.000 A 
ATOM     32  C   UNL     1      -3.912  12.679  21.701  0.00  0.00    +0.000 A 
ATOM     33  C   UNL     1      -5.182  13.170  21.385  0.00  0.00    +0.000 A 
ATOM     34  C   UNL     1      -6.114  13.411  22.394  0.00  0.00    +0.000 A 
ATOM     35  C   UNL     1      -5.771  13.172  23.723  0.00  0.00    +0.000 A 
ATOM     36  C   UNL     1      -4.504  12.683  24.031  0.00  0.00    +0.000 A 
ATOM     37  F   UNL     1      -4.210  12.434  25.315  0.00  0.00    +0.000 F 
ENDBRANCH  30  31
ENDBRANCH  29  30
ENDBRANCH  20  21
ENDBRANCH   1  20
TORSDOF 9
ENDMDL
MODEL 5
REMARK VINA RESULT:      -8.5      3.099     10.558
REMARK  Name = 
REMARK  9 active torsions:
REMARK  status: ('A' for Active; 'I' for Inactive)
REMARK    1  A    between atoms: C_2  and  C_12
REMARK    2  A    between atoms: N_3  and  C_4
REMARK    3  A    between atoms: C_4  and  C_5
REMARK    4  A    between atoms: C_5  and  C_6
REMARK    5  A    between atoms: C_15  and  C_16
REMARK    6  A    between atoms: C_16  and  S_17
REMARK    7  A    between atoms: S_17  and  C_18
REMARK    8  A    between atoms: N_26  and  C_27
REMARK    9  A    between atoms: C_27  and  C_28
REMARK                            x       y       z     vdW  Elec       q    Type
REMARK                         _______ _______ _______ _____ _____    ______ ____
ROOT
ATOM      1  C   UNL     1       1.934   7.927  20.140  0.00  0.00    +0.000 C 
ENDROOT
BRANCH   1   5
ATOM      2  C   UNL     1      -0.680  10.885  21.953  0.00  0.00    +0.000 A 
ATOM      3  C   UNL     1      -0.413  10.927  20.581  0.00  0.00    +0.000 A 
ATOM      4  C   UNL     1       0.416   9.966  19.997  0.00  0.00    +0.000 A 
ATOM      5  C   UNL     1       0.999   8.946  20.770  0.00  0.00    +0.000 A 
ATOM      6  C   UNL     1       0.707   8.899  22.142  0.00  0.00    +0.000 A 
ATOM      7  C   UNL     1      -0.129   9.859  22.730  0.00  0.00    +0.000 A 
BRANCH   2   9
ATOM      8  O   UNL     1      -2.409  11.600  23.393  0.00  0.00    +0.000 OA
ATOM      9  C   UNL     1      -1.575  11.916  22.550  0.00  0.00    +0.000 C 
ATOM     10  N   UNL     1      -1.422  13.203  22.070  0.00  0.00    +0.000 N 
ATOM     11  H   UNL     1      -0.921  13.330  21.201  0.00  0.00    +0.000 HD
BRANCH  10  12
ATOM     12  C   UNL     1      -2.285  14.275  22.540  0.00  0.00    +0.000 C 
BRANCH  12  13
ATOM     13  C   UNL     1      -3.253  14.756  21.457  0.00  0.00    +0.000 C 
BRANCH  13  14
ATOM     14  C   UNL     1      -4.407  13.804  21.264  0.00  0.00    +0.000 A 
ATOM     15  C   UNL     1      -5.374  13.649  22.266  0.00  0.00    +0.000 A 
ATOM     16  C   UNL     1      -6.421  12.741  22.106  0.00  0.00    +0.000 A 
ATOM     17  C   UNL     1      -6.511  11.976  20.944  0.00  0.00    +0.000 A 
ATOM     18  C   UNL     1      -5.557  12.123  19.940  0.00  0.00    +0.000 A 
ATOM     19  C   UNL     1      -4.508  13.032  20.098  0.00  0.00    +0.000 A 
ENDBRANCH  13  14
ENDBRANCH  12  13
ENDBRANCH  10  12
ENDBRANCH   2   9
ENDBRANCH   1   5
BRANCH   1  20
ATOM     20  S   UNL     1       2.053   8.205  18.353  0.00  0.00    +0.000 S 
BRANCH  20  21
ATOM     21  C   UNL     1       3.290   7.114  17.833  0.00  0.00    +0.000 A 
ATOM     22  N   UNL     1       4.554   7.408  17.601  0.00  0.00    +0.000 NA
ATOM     23  C   UNL     1       5.117   6.224  17.178  0.00  0.00    +0.000 A 
ATOM     24  C   UNL     1       6.426   5.898  16.791  0.00  0.00    +0.000 A 
ATOM     25  C   UNL     1       6.668   4.580  16.388  0.00  0.00    +0.000 A 
ATOM     26  C   UNL     1       5.624   3.663  16.398  0.00  0.00    +0.000 A 
ATOM     27  N   UNL     1       4.352   3.919  16.784  0.00  0.00    +0.000 NA
ATOM     28  C   UNL     1       4.173   5.204  17.154  0.00  0.00    +0.000 A 
ATOM     29  N   UNL     1       3.015   5.786  17.604  0.00  0.00    +0.000 N 
BRANCH  29  30
ATOM     30  C   UNL     1       1.797   5.059  17.916  0.00  0.00    +0.000 C 
BRANCH  30  31
ATOM     31  C   UNL     1       1.872   4.290  19.208  0.00  0.00    +0.000 A 
ATOM     32  C   UNL     1       2.553   4.800  20.323  0.00  0.00    +0.000 A 
ATOM     33  C   UNL     1       2.535   4.115  21.542  0.00  0.00    +0.000 A 
ATOM     34  C   UNL     1       1.839   2.912  21.661  0.00  0.00    +0.000 A 
ATOM     35  C   UNL     1       1.170   2.388  20.557  0.00  0.00    +0.000 A 
ATOM     36  C   UNL     1       1.191   3.076  19.347  0.00  0.00    +0.000 A 
ATOM     37  F   UNL     1       0.515   2.565  18.310  0.00  0.00    +0.000 F 
ENDBRANCH  30  31
ENDBRANCH  29  30
ENDBRANCH  20  21
ENDBRANCH   1  20
TORSDOF 9
ENDMDL
MODEL 6
REMARK VINA RESULT:      -8.4      3.324     11.164
REMARK  Name = 
REMARK  9 active torsions:
REMARK  status: ('A' for Active; 'I' for Inactive)
REMARK    1  A    between atoms: C_2  and  C_12
REMARK    2  A    between atoms: N_3  and  C_4
REMARK    3  A    between atoms: C_4  and  C_5
REMARK    4  A    between atoms: C_5  and  C_6
REMARK    5  A    between atoms: C_15  and  C_16
REMARK    6  A    between atoms: C_16  and  S_17
REMARK    7  A    between atoms: S_17  and  C_18
REMARK    8  A    between atoms: N_26  and  C_27
REMARK    9  A    between atoms: C_27  and  C_28
REMARK                            x       y       z     vdW  Elec       q    Type
REMARK                         _______ _______ _______ _____ _____    ______ ____
ROOT
ATOM      1  C   UNL     1       2.142   8.850  17.962  0.00  0.00    +0.000 C 
ENDROOT
BRANCH   1   5
ATOM      2  C   UNL     1       0.272  11.558  20.795  0.00  0.00    +0.000 A 
ATOM      3  C   UNL     1       0.856  12.056  19.626  0.00  0.00    +0.000 A 
ATOM      4  C   UNL     1       1.444  11.181  18.709  0.00  0.00    +0.000 A 
ATOM      5  C   UNL     1       1.465   9.794  18.940  0.00  0.00    +0.000 A 
ATOM      6  C   UNL     1       0.856   9.303  20.106  0.00  0.00    +0.000 A 
ATOM      7  C   UNL     1       0.261  10.178  21.026  0.00  0.00    +0.000 A 
BRANCH   2   9
ATOM      8  O   UNL     1       0.251  13.513  22.120  0.00  0.00    +0.000 OA
ATOM      9  C   UNL     1      -0.357  12.511  21.753  0.00  0.00    +0.000 C 
ATOM     10  N   UNL     1      -1.618  12.172  22.207  0.00  0.00    +0.000 N 
ATOM     11  H   UNL     1      -1.928  11.218  22.079  0.00  0.00    +0.000 HD
BRANCH  10  12
ATOM     12  C   UNL     1      -2.296  13.001  23.190  0.00  0.00    +0.000 C 
BRANCH  12  13
ATOM     13  C   UNL     1      -3.507  12.296  23.804  0.00  0.00    +0.000 C 
BRANCH  13  14
ATOM     14  C   UNL     1      -4.717  13.195  23.864  0.00  0.00    +0.000 A 
ATOM     15  C   UNL     1      -5.995  12.653  24.056  0.00  0.00    +0.000 A 
ATOM     16  C   UNL     1      -7.120  13.479  24.073  0.00  0.00    +0.000 A 
ATOM     17  C   UNL     1      -6.979  14.855  23.896  0.00  0.00    +0.000 A 
ATOM     18  C   UNL     1      -5.713  15.405  23.707  0.00  0.00    +0.000 A 
ATOM     19  C   UNL     1      -4.587  14.580  23.690  0.00  0.00    +0.000 A 
ENDBRANCH  13  14
ENDBRANCH  12  13
ENDBRANCH  10  12
ENDBRANCH   2   9
ENDBRANCH   1   5
BRANCH   1  20
ATOM     20  S   UNL     1       2.292   7.195  18.686  0.00  0.00    +0.000 S 
BRANCH  20  21
ATOM     21  C   UNL     1       3.618   6.477  17.840  0.00  0.00    +0.000 A 
ATOM     22  N   UNL     1       4.788   7.030  17.592  0.00  0.00    +0.000 NA
ATOM     23  C   UNL     1       5.477   6.083  16.867  0.00  0.00    +0.000 A 
ATOM     24  C   UNL     1       6.770   6.083  16.321  0.00  0.00    +0.000 A 
ATOM     25  C   UNL     1       7.167   4.946  15.608  0.00  0.00    +0.000 A 
ATOM     26  C   UNL     1       6.283   3.881  15.479  0.00  0.00    +0.000 A 
ATOM     27  N   UNL     1       5.037   3.821  16.005  0.00  0.00    +0.000 NA
ATOM     28  C   UNL     1       4.704   4.944  16.674  0.00  0.00    +0.000 A 
ATOM     29  N   UNL     1       3.527   5.203  17.330  0.00  0.00    +0.000 N 
BRANCH  29  30
ATOM     30  C   UNL     1       2.477   4.224  17.550  0.00  0.00    +0.000 C 
BRANCH  30  31
ATOM     31  C   UNL     1       2.384   3.756  18.978  0.00  0.00    +0.000 A 
ATOM     32  C   UNL     1       1.197   3.890  19.714  0.00  0.00    +0.000 A 
ATOM     33  C   UNL     1       1.101   3.368  21.008  0.00  0.00    +0.000 A 
ATOM     34  C   UNL     1       2.187   2.708  21.582  0.00  0.00    +0.000 A 
ATOM     35  C   UNL     1       3.375   2.581  20.866  0.00  0.00    +0.000 A 
ATOM     36  C   UNL     1       3.465   3.102  19.578  0.00  0.00    +0.000 A 
ATOM     37  F   UNL     1       4.610   2.940  18.902  0.00  0.00    +0.000 F 
ENDBRANCH  30  31
ENDBRANCH  29  30
ENDBRANCH  20  21
ENDBRANCH   1  20
TORSDOF 9
ENDMDL
MODEL 7
REMARK VINA RESULT:      -8.4      7.474     10.468
REMARK  Name = 
REMARK  9 active torsions:
REMARK  status: ('A' for Active; 'I' for Inactive)
REMARK    1  A    between atoms: C_2  and  C_12
REMARK    2  A    between atoms: N_3  and  C_4
REMARK    3  A    between atoms: C_4  and  C_5
REMARK    4  A    between atoms: C_5  and  C_6
REMARK    5  A    between atoms: C_15  and  C_16
REMARK    6  A    between atoms: C_16  and  S_17
REMARK    7  A    between atoms: S_17  and  C_18
REMARK    8  A    between atoms: N_26  and  C_27
REMARK    9  A    between atoms: C_27  and  C_28
REMARK                            x       y       z     vdW  Elec       q    Type
REMARK                         _______ _______ _______ _____ _____    ______ ____
ROOT
ATOM      1  C   UNL     1       8.228   9.477  17.646  0.00  0.00    +0.000 C 
ENDROOT
BRANCH   1   5
ATOM      2  C   UNL     1       6.193   5.668  18.109  0.00  0.00    +0.000 A 
ATOM      3  C   UNL     1       5.641   6.668  17.302  0.00  0.00    +0.000 A 
ATOM      4  C   UNL     1       6.305   7.887  17.142  0.00  0.00    +0.000 A 
ATOM      5  C   UNL     1       7.530   8.135  17.788  0.00  0.00    +0.000 A 
ATOM      6  C   UNL     1       8.086   7.116  18.577  0.00  0.00    +0.000 A 
ATOM      7  C   UNL     1       7.425   5.891  18.735  0.00  0.00    +0.000 A 
BRANCH   2   9
ATOM      8  O   UNL     1       5.590   3.708  19.280  0.00  0.00    +0.000 OA
ATOM      9  C   UNL     1       5.470   4.373  18.255  0.00  0.00    +0.000 C 
ATOM     10  N   UNL     1       4.709   3.977  17.171  0.00  0.00    +0.000 N 
ATOM     11  H   UNL     1       4.877   4.429  16.282  0.00  0.00    +0.000 HD
BRANCH  10  12
ATOM     12  C   UNL     1       4.011   2.701  17.185  0.00  0.00    +0.000 C 
BRANCH  12  13
ATOM     13  C   UNL     1       2.498   2.871  17.337  0.00  0.00    +0.000 C 
BRANCH  13  14
ATOM     14  C   UNL     1       2.099   3.138  18.767  0.00  0.00    +0.000 A 
ATOM     15  C   UNL     1       1.767   4.435  19.181  0.00  0.00    +0.000 A 
ATOM     16  C   UNL     1       1.435   4.692  20.512  0.00  0.00    +0.000 A 
ATOM     17  C   UNL     1       1.433   3.655  21.444  0.00  0.00    +0.000 A 
ATOM     18  C   UNL     1       1.759   2.361  21.043  0.00  0.00    +0.000 A 
ATOM     19  C   UNL     1       2.092   2.102  19.712  0.00  0.00    +0.000 A 
ENDBRANCH  13  14
ENDBRANCH  12  13
ENDBRANCH  10  12
ENDBRANCH   2   9
ENDBRANCH   1   5
BRANCH   1  20
ATOM     20  S   UNL     1       9.231   9.821  19.116  0.00  0.00    +0.000 S 
BRANCH  20  21
ATOM     21  C   UNL     1      10.071  11.282  18.727  0.00  0.00    +0.000 A 
ATOM     22  N   UNL     1      10.457  11.674  17.530  0.00  0.00    +0.000 NA
ATOM     23  C   UNL     1      11.109  12.868  17.745  0.00  0.00    +0.000 A 
ATOM     24  C   UNL     1      11.733  13.765  16.865  0.00  0.00    +0.000 A 
ATOM     25  C   UNL     1      12.333  14.900  17.420  0.00  0.00    +0.000 A 
ATOM     26  C   UNL     1      12.279  15.094  18.796  0.00  0.00    +0.000 A 
ATOM     27  N   UNL     1      11.671  14.275  19.685  0.00  0.00    +0.000 NA
ATOM     28  C   UNL     1      11.117  13.194  19.097  0.00  0.00    +0.000 A 
ATOM     29  N   UNL     1      10.422  12.180  19.707  0.00  0.00    +0.000 N 
BRANCH  29  30
ATOM     30  C   UNL     1      10.022  12.184  21.103  0.00  0.00    +0.000 C 
BRANCH  30  31
ATOM     31  C   UNL     1       8.881  13.121  21.397  0.00  0.00    +0.000 A 
ATOM     32  C   UNL     1       8.341  13.950  20.403  0.00  0.00    +0.000 A 
ATOM     33  C   UNL     1       7.224  14.747  20.671  0.00  0.00    +0.000 A 
ATOM     34  C   UNL     1       6.635  14.728  21.934  0.00  0.00    +0.000 A 
ATOM     35  C   UNL     1       7.170  13.920  22.935  0.00  0.00    +0.000 A 
ATOM     36  C   UNL     1       8.282  13.127  22.661  0.00  0.00    +0.000 A 
ATOM     37  F   UNL     1       8.758  12.338  23.633  0.00  0.00    +0.000 F 
ENDBRANCH  30  31
ENDBRANCH  29  30
ENDBRANCH  20  21
ENDBRANCH   1  20
TORSDOF 9
ENDMDL
MODEL 8
REMARK VINA RESULT:      -8.4      2.353      3.815
REMARK  Name = 
REMARK  9 active torsions:
REMARK  status: ('A' for Active; 'I' for Inactive)
REMARK    1  A    between atoms: C_2  and  C_12
REMARK    2  A    between atoms: N_3  and  C_4
REMARK    3  A    between atoms: C_4  and  C_5
REMARK    4  A    between atoms: C_5  and  C_6
REMARK    5  A    between atoms: C_15  and  C_16
REMARK    6  A    between atoms: C_16  and  S_17
REMARK    7  A    between atoms: S_17  and  C_18
REMARK    8  A    between atoms: N_26  and  C_27
REMARK    9  A    between atoms: C_27  and  C_28
REMARK                            x       y       z     vdW  Elec       q    Type
REMARK                         _______ _______ _______ _____ _____    ______ ____
ROOT
ATOM      1  C   UNL     1      -0.023  10.423  19.790  0.00  0.00    +0.000 C 
ENDROOT
BRANCH   1   5
ATOM      2  C   UNL     1       2.801   7.325  18.655  0.00  0.00    +0.000 A 
ATOM      3  C   UNL     1       2.470   8.341  17.753  0.00  0.00    +0.000 A 
ATOM      4  C   UNL     1       1.573   9.345  18.126  0.00  0.00    +0.000 A 
ATOM      5  C   UNL     1       0.985   9.354  19.403  0.00  0.00    +0.000 A 
ATOM      6  C   UNL     1       1.342   8.343  20.309  0.00  0.00    +0.000 A 
ATOM      7  C   UNL     1       2.245   7.338  19.940  0.00  0.00    +0.000 A 
BRANCH   2   9
ATOM      8  O   UNL     1       4.007   6.086  17.047  0.00  0.00    +0.000 OA
ATOM      9  C   UNL     1       3.768   6.272  18.237  0.00  0.00    +0.000 C 
ATOM     10  N   UNL     1       4.328   5.522  19.255  0.00  0.00    +0.000 N 
ATOM     11  H   UNL     1       3.884   5.548  20.163  0.00  0.00    +0.000 HD
BRANCH  10  12
ATOM     12  C   UNL     1       5.238   4.429  18.953  0.00  0.00    +0.000 C 
BRANCH  12  13
ATOM     13  C   UNL     1       4.732   3.090  19.494  0.00  0.00    +0.000 C 
BRANCH  13  14
ATOM     14  C   UNL     1       3.231   3.068  19.642  0.00  0.00    +0.000 A 
ATOM     15  C   UNL     1       2.409   2.928  18.516  0.00  0.00    +0.000 A 
ATOM     16  C   UNL     1       1.020   2.947  18.647  0.00  0.00    +0.000 A 
ATOM     17  C   UNL     1       0.438   3.108  19.903  0.00  0.00    +0.000 A 
ATOM     18  C   UNL     1       1.246   3.247  21.030  0.00  0.00    +0.000 A 
ATOM     19  C   UNL     1       2.636   3.229  20.901  0.00  0.00    +0.000 A 
ENDBRANCH  13  14
ENDBRANCH  12  13
ENDBRANCH  10  12
ENDBRANCH   2   9
ENDBRANCH   1   5
BRANCH   1  20
ATOM     20  S   UNL     1      -0.274  10.429  21.585  0.00  0.00    +0.000 S 
BRANCH  20  21
ATOM     21  C   UNL     1      -0.255  12.105  22.014  0.00  0.00    +0.000 A 
ATOM     22  N   UNL     1       0.569  13.026  21.556  0.00  0.00    +0.000 NA
ATOM     23  C   UNL     1       0.209  14.179  22.219  0.00  0.00    +0.000 A 
ATOM     24  C   UNL     1       0.710  15.488  22.156  0.00  0.00    +0.000 A 
ATOM     25  C   UNL     1       0.123  16.442  22.995  0.00  0.00    +0.000 A 
ATOM     26  C   UNL     1      -0.919  16.063  23.833  0.00  0.00    +0.000 A 
ATOM     27  N   UNL     1      -1.454  14.822  23.915  0.00  0.00    +0.000 NA
ATOM     28  C   UNL     1      -0.846  13.942  23.092  0.00  0.00    +0.000 A 
ATOM     29  N   UNL     1      -1.150  12.614  22.925  0.00  0.00    +0.000 N 
BRANCH  29  30
ATOM     30  C   UNL     1      -2.307  11.957  23.506  0.00  0.00    +0.000 C 
BRANCH  30  31
ATOM     31  C   UNL     1      -3.617  12.448  22.949  0.00  0.00    +0.000 A 
ATOM     32  C   UNL     1      -3.808  12.616  21.570  0.00  0.00    +0.000 A 
ATOM     33  C   UNL     1      -5.058  12.985  21.065  0.00  0.00    +0.000 A 
ATOM     34  C   UNL     1      -6.132  13.192  21.930  0.00  0.00    +0.000 A 
ATOM     35  C   UNL     1      -5.952  13.042  23.303  0.00  0.00    +0.000 A 
ATOM     36  C   UNL     1      -4.704  12.673  23.799  0.00  0.00    +0.000 A 
ATOM     37  F   UNL     1      -4.567  12.506  25.122  0.00  0.00    +0.000 F 
ENDBRANCH  30  31
ENDBRANCH  29  30
ENDBRANCH  20  21
ENDBRANCH   1  20
TORSDOF 9
ENDMDL
MODEL 9
REMARK VINA RESULT:      -8.4      3.237     11.004
REMARK  Name = 
REMARK  9 active torsions:
REMARK  status: ('A' for Active; 'I' for Inactive)
REMARK    1  A    between atoms: C_2  and  C_12
REMARK    2  A    between atoms: N_3  and  C_4
REMARK    3  A    between atoms: C_4  and  C_5
REMARK    4  A    between atoms: C_5  and  C_6
REMARK    5  A    between atoms: C_15  and  C_16
REMARK    6  A    between atoms: C_16  and  S_17
REMARK    7  A    between atoms: S_17  and  C_18
REMARK    8  A    between atoms: N_26  and  C_27
REMARK    9  A    between atoms: C_27  and  C_28
REMARK                            x       y       z     vdW  Elec       q    Type
REMARK                         _______ _______ _______ _____ _____    ______ ____
ROOT
ATOM      1  C   UNL     1       1.944   7.980  20.128  0.00  0.00    +0.000 C 
ENDROOT
BRANCH   1   5
ATOM      2  C   UNL     1      -0.775  10.855  21.917  0.00  0.00    +0.000 A 
ATOM      3  C   UNL     1      -0.552  10.861  20.536  0.00  0.00    +0.000 A 
ATOM      4  C   UNL     1       0.311   9.925  19.961  0.00  0.00    +0.000 A 
ATOM      5  C   UNL     1       0.973   8.968  20.751  0.00  0.00    +0.000 A 
ATOM      6  C   UNL     1       0.726   8.957  22.132  0.00  0.00    +0.000 A 
ATOM      7  C   UNL     1      -0.144   9.891  22.712  0.00  0.00    +0.000 A 
BRANCH   2   9
ATOM      8  O   UNL     1      -2.387  11.571  23.487  0.00  0.00    +0.000 OA
ATOM      9  C   UNL     1      -1.707  11.858  22.505  0.00  0.00    +0.000 C 
ATOM     10  N   UNL     1      -1.772  13.079  21.860  0.00  0.00    +0.000 N 
ATOM     11  H   UNL     1      -1.400  13.141  20.922  0.00  0.00    +0.000 HD
BRANCH  10  12
ATOM     12  C   UNL     1      -2.694  14.107  22.315  0.00  0.00    +0.000 C 
BRANCH  12  13
ATOM     13  C   UNL     1      -4.000  14.106  21.519  0.00  0.00    +0.000 C 
BRANCH  13  14
ATOM     14  C   UNL     1      -5.212  14.060  22.417  0.00  0.00    +0.000 A 
ATOM     15  C   UNL     1      -5.840  15.246  22.822  0.00  0.00    +0.000 A 
ATOM     16  C   UNL     1      -6.936  15.208  23.684  0.00  0.00    +0.000 A 
ATOM     17  C   UNL     1      -7.416  13.985  24.151  0.00  0.00    +0.000 A 
ATOM     18  C   UNL     1      -6.801  12.800  23.753  0.00  0.00    +0.000 A 
ATOM     19  C   UNL     1      -5.703  12.836  22.892  0.00  0.00    +0.000 A 
ENDBRANCH  13  14
ENDBRANCH  12  13
ENDBRANCH  10  12
ENDBRANCH   2   9
ENDBRANCH   1   5
BRANCH   1  20
ATOM     20  S   UNL     1       2.054   8.250  18.338  0.00  0.00    +0.000 S 
BRANCH  20  21
ATOM     21  C   UNL     1       3.327   7.198  17.825  0.00  0.00    +0.000 A 
ATOM     22  N   UNL     1       4.588   7.526  17.625  0.00  0.00    +0.000 NA
ATOM     23  C   UNL     1       5.188   6.363  17.193  0.00  0.00    +0.000 A 
ATOM     24  C   UNL     1       6.512   6.075  16.828  0.00  0.00    +0.000 A 
ATOM     25  C   UNL     1       6.793   4.770  16.407  0.00  0.00    +0.000 A 
ATOM     26  C   UNL     1       5.771   3.829  16.378  0.00  0.00    +0.000 A 
ATOM     27  N   UNL     1       4.485   4.048  16.742  0.00  0.00    +0.000 NA
ATOM     28  C   UNL     1       4.269   5.322  17.131  0.00  0.00    +0.000 A 
ATOM     29  N   UNL     1       3.088   5.869  17.567  0.00  0.00    +0.000 N 
BRANCH  29  30
ATOM     30  C   UNL     1       1.882   5.107  17.840  0.00  0.00    +0.000 C 
BRANCH  30  31
ATOM     31  C   UNL     1       1.989   4.232  19.060  0.00  0.00    +0.000 A 
ATOM     32  C   UNL     1       2.061   4.781  20.349  0.00  0.00    +0.000 A 
ATOM     33  C   UNL     1       2.067   3.952  21.475  0.00  0.00    +0.000 A 
ATOM     34  C   UNL     1       2.003   2.567  21.328  0.00  0.00    +0.000 A 
ATOM     35  C   UNL     1       1.945   2.009  20.053  0.00  0.00    +0.000 A 
ATOM     36  C   UNL     1       1.938   2.840  18.936  0.00  0.00    +0.000 A 
ATOM     37  F   UNL     1       1.851   2.278  17.723  0.00  0.00    +0.000 F 
ENDBRANCH  30  31
ENDBRANCH  29  30
ENDBRANCH  20  21
ENDBRANCH   1  20
TORSDOF 9
ENDMDL
