MODEL 1
REMARK VINA RESULT:      -7.3      0.000      0.000
REMARK  Name = 
REMARK  10 active torsions:
REMARK  status: ('A' for Active; 'I' for Inactive)
REMARK    1  A    between atoms: C_1  and  S_2
REMARK    2  A    between atoms: S_2  and  C_3
REMARK    3  A    between atoms: C_3  and  C_4
REMARK    4  A    between atoms: C_6  and  N_7
REMARK    5  A    between atoms: C_18  and  O_19
REMARK    6  A    between atoms: O_19  and  C_20
REMARK    7  A    between atoms: C_20  and  C_21
REMARK    8  A    between atoms: C_23  and  O_24
REMARK    9  A    between atoms: O_24  and  C_25
REMARK   10  A    between atoms: C_25  and  C_26
REMARK                            x       y       z     vdW  Elec       q    Type
REMARK                         _______ _______ _______ _____ _____    ______ ____
ROOT
ATOM      1  C   UNL     1       5.046   5.607  18.396  0.00  0.00    +0.000 C 
ATOM      2  O   UNL     1       4.640   6.692  19.256  0.00  0.00    +0.000 OA
ATOM      3  C   UNL     1       3.251   6.526  19.626  0.00  0.00    +0.000 C 
ATOM      4  C   UNL     1       2.860   5.093  19.225  0.00  0.00    +0.000 C 
ATOM      5  C   UNL     1       3.780   4.827  18.032  0.00  0.00    +0.000 C 
ENDROOT
BRANCH   3   6
ATOM      6  N   UNL     1       2.491   7.598  19.004  0.00  0.00    +0.000 N 
ATOM      7  C   UNL     1       2.663   8.102  17.738  0.00  0.00    +0.000 A 
ATOM      8  N   UNL     1       1.852   9.110  17.489  0.00  0.00    +0.000 NA
ATOM      9  C   UNL     1       1.163   9.305  18.664  0.00  0.00    +0.000 A 
ATOM     10  C   UNL     1       0.179  10.234  19.045  0.00  0.00    +0.000 A 
ATOM     11  N   UNL     1      -0.333  11.190  18.178  0.00  0.00    +0.000 N 
ATOM     12  N   UNL     1      -0.286  10.206  20.313  0.00  0.00    +0.000 NA
ATOM     13  C   UNL     1       0.205   9.258  21.137  0.00  0.00    +0.000 A 
ATOM     14 CL   UNL     1      -0.438   9.261  22.723  0.00  0.00    +0.000 Cl
ATOM     15  N   UNL     1       1.120   8.305  20.884  0.00  0.00    +0.000 NA
ATOM     16  C   UNL     1       1.562   8.389  19.624  0.00  0.00    +0.000 A 
ATOM     17  H   UNL     1       0.267  11.388  17.385  0.00  0.00    +0.000 HD
ATOM     18  H   UNL     1      -0.754  11.973  18.662  0.00  0.00    +0.000 HD
ENDBRANCH   3   6
BRANCH   1  19
ATOM     19  C   UNL     1       5.772   6.152  17.153  0.00  0.00    +0.000 C 
BRANCH  19  21
ATOM     20  C   UNL     1       7.829   5.802  18.998  0.00  0.00    +0.000 C 
ATOM     21  S   UNL     1       7.389   6.880  17.612  0.00  0.00    +0.000 S 
ENDBRANCH  19  21
ENDBRANCH   1  19
BRANCH   4  22
ATOM     22  O   UNL     1       3.194   4.157  20.287  0.00  0.00    +0.000 OA
BRANCH  22  23
ATOM     23  C   UNL     1       2.143   3.739  21.045  0.00  0.00    +0.000 C 
ATOM     24  C   UNL     1       0.855   3.818  20.282  0.00  0.00    +0.000 C 
ATOM     25  O   UNL     1       2.226   3.317  22.186  0.00  0.00    +0.000 OA
ENDBRANCH  22  23
ENDBRANCH   4  22
BRANCH   5  26
ATOM     26  O   UNL     1       4.117   3.442  17.857  0.00  0.00    +0.000 OA
BRANCH  26  27
ATOM     27  C   UNL     1       3.080   2.594  17.618  0.00  0.00    +0.000 C 
ATOM     28  C   UNL     1       3.262   1.311  18.377  0.00  0.00    +0.000 C 
ATOM     29  O   UNL     1       2.111   2.865  16.927  0.00  0.00    +0.000 OA
ENDBRANCH  26  27
ENDBRANCH   5  26
TORSDOF 7
ENDMDL
MODEL 2
REMARK VINA RESULT:      -7.2      1.630      2.416
REMARK  Name = 
REMARK  10 active torsions:
REMARK  status: ('A' for Active; 'I' for Inactive)
REMARK    1  A    between atoms: C_1  and  S_2
REMARK    2  A    between atoms: S_2  and  C_3
REMARK    3  A    between atoms: C_3  and  C_4
REMARK    4  A    between atoms: C_6  and  N_7
REMARK    5  A    between atoms: C_18  and  O_19
REMARK    6  A    between atoms: O_19  and  C_20
REMARK    7  A    between atoms: C_20  and  C_21
REMARK    8  A    between atoms: C_23  and  O_24
REMARK    9  A    between atoms: O_24  and  C_25
REMARK   10  A    between atoms: C_25  and  C_26
REMARK                            x       y       z     vdW  Elec       q    Type
REMARK                         _______ _______ _______ _____ _____    ______ ____
ROOT
ATOM      1  C   UNL     1       5.478   5.259  18.777  0.00  0.00    +0.000 C 
ATOM      2  O   UNL     1       4.393   5.830  19.538  0.00  0.00    +0.000 OA
ATOM      3  C   UNL     1       3.164   5.735  18.779  0.00  0.00    +0.000 C 
ATOM      4  C   UNL     1       3.444   4.771  17.613  0.00  0.00    +0.000 C 
ATOM      5  C   UNL     1       4.940   4.979  17.371  0.00  0.00    +0.000 C 
ENDROOT
BRANCH   3   6
ATOM      6  N   UNL     1       2.756   7.082  18.416  0.00  0.00    +0.000 N 
ATOM      7  C   UNL     1       3.091   7.763  17.271  0.00  0.00    +0.000 A 
ATOM      8  N   UNL     1       2.608   8.989  17.262  0.00  0.00    +0.000 NA
ATOM      9  C   UNL     1       1.981   9.128  18.479  0.00  0.00    +0.000 A 
ATOM     10  C   UNL     1       1.298  10.201  19.078  0.00  0.00    +0.000 A 
ATOM     11  N   UNL     1       1.099  11.419  18.443  0.00  0.00    +0.000 N 
ATOM     12  N   UNL     1       0.821  10.049  20.333  0.00  0.00    +0.000 NA
ATOM     13  C   UNL     1       1.002   8.854  20.930  0.00  0.00    +0.000 A 
ATOM     14 CL   UNL     1       0.357   8.716  22.509  0.00  0.00    +0.000 Cl
ATOM     15  N   UNL     1       1.610   7.751  20.453  0.00  0.00    +0.000 NA
ATOM     16  C   UNL     1       2.082   7.961  19.219  0.00  0.00    +0.000 A 
ATOM     17  H   UNL     1       1.746  11.596  17.682  0.00  0.00    +0.000 HD
ATOM     18  H   UNL     1       0.912  12.174  19.090  0.00  0.00    +0.000 HD
ENDBRANCH   3   6
BRANCH   1  19
ATOM     19  C   UNL     1       6.683   6.217  18.761  0.00  0.00    +0.000 C 
BRANCH  19  21
ATOM     20  C   UNL     1       7.921   8.496  17.744  0.00  0.00    +0.000 C 
ATOM     21  S   UNL     1       6.615   7.323  17.302  0.00  0.00    +0.000 S 
ENDBRANCH  19  21
ENDBRANCH   1  19
BRANCH   4  22
ATOM     22  O   UNL     1       3.228   3.393  18.026  0.00  0.00    +0.000 OA
BRANCH  22  23
ATOM     23  C   UNL     1       1.925   3.026  18.164  0.00  0.00    +0.000 C 
ATOM     24  C   UNL     1       1.762   1.979  19.225  0.00  0.00    +0.000 C 
ATOM     25  O   UNL     1       0.992   3.502  17.539  0.00  0.00    +0.000 OA
ENDBRANCH  22  23
ENDBRANCH   4  22
BRANCH   5  26
ATOM     26  O   UNL     1       5.608   3.826  16.836  0.00  0.00    +0.000 OA
BRANCH  26  27
ATOM     27  C   UNL     1       6.508   4.057  15.843  0.00  0.00    +0.000 C 
ATOM     28  C   UNL     1       5.833   4.037  14.502  0.00  0.00    +0.000 C 
ATOM     29  O   UNL     1       7.690   4.302  16.025  0.00  0.00    +0.000 OA
ENDBRANCH  26  27
ENDBRANCH   5  26
TORSDOF 7
ENDMDL
MODEL 3
REMARK VINA RESULT:      -6.9      1.067      1.301
REMARK  Name = 
REMARK  10 active torsions:
REMARK  status: ('A' for Active; 'I' for Inactive)
REMARK    1  A    between atoms: C_1  and  S_2
REMARK    2  A    between atoms: S_2  and  C_3
REMARK    3  A    between atoms: C_3  and  C_4
REMARK    4  A    between atoms: C_6  and  N_7
REMARK    5  A    between atoms: C_18  and  O_19
REMARK    6  A    between atoms: O_19  and  C_20
REMARK    7  A    between atoms: C_20  and  C_21
REMARK    8  A    between atoms: C_23  and  O_24
REMARK    9  A    between atoms: O_24  and  C_25
REMARK   10  A    between atoms: C_25  and  C_26
REMARK                            x       y       z     vdW  Elec       q    Type
REMARK                         _______ _______ _______ _____ _____    ______ ____
ROOT
ATOM      1  C   UNL     1       5.329   5.154  18.748  0.00  0.00    +0.000 C 
ATOM      2  O   UNL     1       4.865   6.255  19.555  0.00  0.00    +0.000 OA
ATOM      3  C   UNL     1       3.443   6.120  19.790  0.00  0.00    +0.000 C 
ATOM      4  C   UNL     1       3.064   4.691  19.367  0.00  0.00    +0.000 C 
ATOM      5  C   UNL     1       4.089   4.393  18.271  0.00  0.00    +0.000 C 
ENDROOT
BRANCH   3   6
ATOM      6  N   UNL     1       2.768   7.200  19.087  0.00  0.00    +0.000 N 
ATOM      7  C   UNL     1       3.032   7.645  17.815  0.00  0.00    +0.000 A 
ATOM      8  N   UNL     1       2.283   8.677  17.483  0.00  0.00    +0.000 NA
ATOM      9  C   UNL     1       1.541   8.948  18.610  0.00  0.00    +0.000 A 
ATOM     10  C   UNL     1       0.582   9.934  18.901  0.00  0.00    +0.000 A 
ATOM     11  N   UNL     1       0.162  10.877  17.972  0.00  0.00    +0.000 N 
ATOM     12  N   UNL     1       0.049   9.977  20.141  0.00  0.00    +0.000 NA
ATOM     13  C   UNL     1       0.450   9.043  21.026  0.00  0.00    +0.000 A 
ATOM     14 CL   UNL     1      -0.276   9.137  22.573  0.00  0.00    +0.000 Cl
ATOM     15  N   UNL     1       1.333   8.041  20.860  0.00  0.00    +0.000 NA
ATOM     16  C   UNL     1       1.845   8.055  19.624  0.00  0.00    +0.000 A 
ATOM     17  H   UNL     1       0.813  11.017  17.206  0.00  0.00    +0.000 HD
ATOM     18  H   UNL     1      -0.247  11.696  18.401  0.00  0.00    +0.000 HD
ENDBRANCH   3   6
BRANCH   1  19
ATOM     19  C   UNL     1       6.183   5.670  17.576  0.00  0.00    +0.000 C 
BRANCH  19  21
ATOM     20  C   UNL     1       6.310   4.095  15.282  0.00  0.00    +0.000 C 
ATOM     21  S   UNL     1       5.312   5.432  15.982  0.00  0.00    +0.000 S 
ENDBRANCH  19  21
ENDBRANCH   1  19
BRANCH   4  22
ATOM     22  O   UNL     1       3.275   3.761  20.466  0.00  0.00    +0.000 OA
BRANCH  22  23
ATOM     23  C   UNL     1       2.159   3.431  21.171  0.00  0.00    +0.000 C 
ATOM     24  C   UNL     1       0.927   3.529  20.320  0.00  0.00    +0.000 C 
ATOM     25  O   UNL     1       2.147   3.065  22.334  0.00  0.00    +0.000 OA
ENDBRANCH  22  23
ENDBRANCH   4  22
BRANCH   5  26
ATOM     26  O   UNL     1       4.413   3.000  18.143  0.00  0.00    +0.000 OA
BRANCH  26  27
ATOM     27  C   UNL     1       3.372   2.157  17.908  0.00  0.00    +0.000 C 
ATOM     28  C   UNL     1       2.463   2.721  16.854  0.00  0.00    +0.000 C 
ATOM     29  O   UNL     1       3.231   1.069  18.441  0.00  0.00    +0.000 OA
ENDBRANCH  26  27
ENDBRANCH   5  26
TORSDOF 7
ENDMDL
MODEL 4
REMARK VINA RESULT:      -6.9      0.981      1.054
REMARK  Name = 
REMARK  10 active torsions:
REMARK  status: ('A' for Active; 'I' for Inactive)
REMARK    1  A    between atoms: C_1  and  S_2
REMARK    2  A    between atoms: S_2  and  C_3
REMARK    3  A    between atoms: C_3  and  C_4
REMARK    4  A    between atoms: C_6  and  N_7
REMARK    5  A    between atoms: C_18  and  O_19
REMARK    6  A    between atoms: O_19  and  C_20
REMARK    7  A    between atoms: C_20  and  C_21
REMARK    8  A    between atoms: C_23  and  O_24
REMARK    9  A    between atoms: O_24  and  C_25
REMARK   10  A    between atoms: C_25  and  C_26
REMARK                            x       y       z     vdW  Elec       q    Type
REMARK                         _______ _______ _______ _____ _____    ______ ____
ROOT
ATOM      1  C   UNL     1       5.400   5.023  18.872  0.00  0.00    +0.000 C 
ATOM      2  O   UNL     1       4.884   6.100  19.680  0.00  0.00    +0.000 OA
ATOM      3  C   UNL     1       3.453   5.950  19.834  0.00  0.00    +0.000 C 
ATOM      4  C   UNL     1       3.108   4.530  19.355  0.00  0.00    +0.000 C 
ATOM      5  C   UNL     1       4.193   4.267  18.309  0.00  0.00    +0.000 C 
ENDROOT
BRANCH   3   6
ATOM      6  N   UNL     1       2.809   7.043  19.123  0.00  0.00    +0.000 N 
ATOM      7  C   UNL     1       3.080   7.468  17.846  0.00  0.00    +0.000 A 
ATOM      8  N   UNL     1       2.362   8.519  17.507  0.00  0.00    +0.000 NA
ATOM      9  C   UNL     1       1.634   8.824  18.634  0.00  0.00    +0.000 A 
ATOM     10  C   UNL     1       0.707   9.842  18.919  0.00  0.00    +0.000 A 
ATOM     11  N   UNL     1       0.312  10.788  17.982  0.00  0.00    +0.000 N 
ATOM     12  N   UNL     1       0.180   9.913  20.161  0.00  0.00    +0.000 NA
ATOM     13  C   UNL     1       0.556   8.975  21.053  0.00  0.00    +0.000 A 
ATOM     14 CL   UNL     1      -0.161   9.106  22.602  0.00  0.00    +0.000 Cl
ATOM     15  N   UNL     1       1.407   7.944  20.893  0.00  0.00    +0.000 NA
ATOM     16  C   UNL     1       1.915   7.931  19.656  0.00  0.00    +0.000 A 
ATOM     17  H   UNL     1       0.964  10.900  17.213  0.00  0.00    +0.000 HD
ATOM     18  H   UNL     1      -0.070  11.623  18.406  0.00  0.00    +0.000 HD
ENDBRANCH   3   6
BRANCH   1  19
ATOM     19  C   UNL     1       6.312   5.575  17.761  0.00  0.00    +0.000 C 
BRANCH  19  21
ATOM     20  C   UNL     1       7.690   7.989  17.585  0.00  0.00    +0.000 C 
ATOM     21  S   UNL     1       7.772   6.417  18.477  0.00  0.00    +0.000 S 
ENDBRANCH  19  21
ENDBRANCH   1  19
BRANCH   4  22
ATOM     22  O   UNL     1       3.267   3.573  20.439  0.00  0.00    +0.000 OA
BRANCH  22  23
ATOM     23  C   UNL     1       2.144   3.330  21.169  0.00  0.00    +0.000 C 
ATOM     24  C   UNL     1       0.920   3.328  20.302  0.00  0.00    +0.000 C 
ATOM     25  O   UNL     1       2.122   3.104  22.366  0.00  0.00    +0.000 OA
ENDBRANCH  22  23
ENDBRANCH   4  22
BRANCH   5  26
ATOM     26  O   UNL     1       4.535   2.880  18.163  0.00  0.00    +0.000 OA
BRANCH  26  27
ATOM     27  C   UNL     1       3.501   2.023  17.948  0.00  0.00    +0.000 C 
ATOM     28  C   UNL     1       2.529   2.604  16.962  0.00  0.00    +0.000 C 
ATOM     29  O   UNL     1       3.409   0.913  18.446  0.00  0.00    +0.000 OA
ENDBRANCH  26  27
ENDBRANCH   5  26
TORSDOF 7
ENDMDL
MODEL 5
REMARK VINA RESULT:      -6.8      0.850      1.136
REMARK  Name = 
REMARK  10 active torsions:
REMARK  status: ('A' for Active; 'I' for Inactive)
REMARK    1  A    between atoms: C_1  and  S_2
REMARK    2  A    between atoms: S_2  and  C_3
REMARK    3  A    between atoms: C_3  and  C_4
REMARK    4  A    between atoms: C_6  and  N_7
REMARK    5  A    between atoms: C_18  and  O_19
REMARK    6  A    between atoms: O_19  and  C_20
REMARK    7  A    between atoms: C_20  and  C_21
REMARK    8  A    between atoms: C_23  and  O_24
REMARK    9  A    between atoms: O_24  and  C_25
REMARK   10  A    between atoms: C_25  and  C_26
REMARK                            x       y       z     vdW  Elec       q    Type
REMARK                         _______ _______ _______ _____ _____    ______ ____
ROOT
ATOM      1  C   UNL     1       4.976   5.655  18.331  0.00  0.00    +0.000 C 
ATOM      2  O   UNL     1       4.578   6.729  19.208  0.00  0.00    +0.000 OA
ATOM      3  C   UNL     1       3.176   6.591  19.541  0.00  0.00    +0.000 C 
ATOM      4  C   UNL     1       2.759   5.178  19.097  0.00  0.00    +0.000 C 
ATOM      5  C   UNL     1       3.700   4.915  17.920  0.00  0.00    +0.000 C 
ENDROOT
BRANCH   3   6
ATOM      6  N   UNL     1       2.458   7.696  18.926  0.00  0.00    +0.000 N 
ATOM      7  C   UNL     1       2.667   8.219  17.674  0.00  0.00    +0.000 A 
ATOM      8  N   UNL     1       1.890   9.254  17.430  0.00  0.00    +0.000 NA
ATOM      9  C   UNL     1       1.185   9.446  18.596  0.00  0.00    +0.000 A 
ATOM     10  C   UNL     1       0.221  10.395  18.978  0.00  0.00    +0.000 A 
ATOM     11  N   UNL     1      -0.248  11.382  18.122  0.00  0.00    +0.000 N 
ATOM     12  N   UNL     1      -0.266  10.357  20.237  0.00  0.00    +0.000 NA
ATOM     13  C   UNL     1       0.182   9.380  21.052  0.00  0.00    +0.000 A 
ATOM     14 CL   UNL     1      -0.489   9.371  22.626  0.00  0.00    +0.000 Cl
ATOM     15  N   UNL     1       1.075   8.406  20.796  0.00  0.00    +0.000 NA
ATOM     16  C   UNL     1       1.541   8.501  19.545  0.00  0.00    +0.000 A 
ATOM     17  H   UNL     1       0.372  11.578  17.343  0.00  0.00    +0.000 HD
ATOM     18  H   UNL     1      -0.655  12.167  18.613  0.00  0.00    +0.000 HD
ENDBRANCH   3   6
BRANCH   1  19
ATOM     19  C   UNL     1       5.746   6.210  17.119  0.00  0.00    +0.000 C 
BRANCH  19  21
ATOM     20  C   UNL     1       6.735   4.917  14.858  0.00  0.00    +0.000 C 
ATOM     21  S   UNL     1       7.092   5.070  16.626  0.00  0.00    +0.000 S 
ENDBRANCH  19  21
ENDBRANCH   1  19
BRANCH   4  22
ATOM     22  O   UNL     1       3.044   4.210  20.144  0.00  0.00    +0.000 OA
BRANCH  22  23
ATOM     23  C   UNL     1       1.956   3.739  20.813  0.00  0.00    +0.000 C 
ATOM     24  C   UNL     1       2.333   2.647  21.769  0.00  0.00    +0.000 C 
ATOM     25  O   UNL     1       0.820   4.164  20.689  0.00  0.00    +0.000 OA
ENDBRANCH  22  23
ENDBRANCH   4  22
BRANCH   5  26
ATOM     26  O   UNL     1       4.007   3.527  17.720  0.00  0.00    +0.000 OA
BRANCH  26  27
ATOM     27  C   UNL     1       2.948   2.699  17.514  0.00  0.00    +0.000 C 
ATOM     28  C   UNL     1       3.134   1.407  18.257  0.00  0.00    +0.000 C 
ATOM     29  O   UNL     1       1.959   2.991  16.861  0.00  0.00    +0.000 OA
ENDBRANCH  26  27
ENDBRANCH   5  26
TORSDOF 7
ENDMDL
MODEL 6
REMARK VINA RESULT:      -6.7      1.269      1.909
REMARK  Name = 
REMARK  10 active torsions:
REMARK  status: ('A' for Active; 'I' for Inactive)
REMARK    1  A    between atoms: C_1  and  S_2
REMARK    2  A    between atoms: S_2  and  C_3
REMARK    3  A    between atoms: C_3  and  C_4
REMARK    4  A    between atoms: C_6  and  N_7
REMARK    5  A    between atoms: C_18  and  O_19
REMARK    6  A    between atoms: O_19  and  C_20
REMARK    7  A    between atoms: C_20  and  C_21
REMARK    8  A    between atoms: C_23  and  O_24
REMARK    9  A    between atoms: O_24  and  C_25
REMARK   10  A    between atoms: C_25  and  C_26
REMARK                            x       y       z     vdW  Elec       q    Type
REMARK                         _______ _______ _______ _____ _____    ______ ____
ROOT
ATOM      1  C   UNL     1       5.166   5.790  18.192  0.00  0.00    +0.000 C 
ATOM      2  O   UNL     1       4.464   6.528  19.214  0.00  0.00    +0.000 OA
ATOM      3  C   UNL     1       3.041   6.290  19.095  0.00  0.00    +0.000 C 
ATOM      4  C   UNL     1       2.876   5.094  18.142  0.00  0.00    +0.000 C 
ATOM      5  C   UNL     1       4.107   5.221  17.243  0.00  0.00    +0.000 C 
ENDROOT
BRANCH   3   6
ATOM      6  N   UNL     1       2.412   7.534  18.680  0.00  0.00    +0.000 N 
ATOM      7  C   UNL     1       2.531   8.149  17.458  0.00  0.00    +0.000 A 
ATOM      8  N   UNL     1       1.881   9.294  17.412  0.00  0.00    +0.000 NA
ATOM      9  C   UNL     1       1.364   9.455  18.677  0.00  0.00    +0.000 A 
ATOM     10  C   UNL     1       0.598  10.476  19.267  0.00  0.00    +0.000 A 
ATOM     11  N   UNL     1       0.166  11.596  18.568  0.00  0.00    +0.000 N 
ATOM     12  N   UNL     1       0.274  10.373  20.574  0.00  0.00    +0.000 NA
ATOM     13  C   UNL     1       0.682   9.270  21.234  0.00  0.00    +0.000 A 
ATOM     14 CL   UNL     1       0.222   9.188  22.880  0.00  0.00    +0.000 Cl
ATOM     15  N   UNL     1       1.390   8.221  20.776  0.00  0.00    +0.000 NA
ATOM     16  C   UNL     1       1.703   8.382  19.485  0.00  0.00    +0.000 A 
ATOM     17  H   UNL     1       0.703  11.789  17.730  0.00  0.00    +0.000 HD
ATOM     18  H   UNL     1      -0.061  12.373  19.175  0.00  0.00    +0.000 HD
ENDBRANCH   3   6
BRANCH   1  19
ATOM     19  C   UNL     1       6.170   6.704  17.466  0.00  0.00    +0.000 C 
BRANCH  19  21
ATOM     20  C   UNL     1       7.519   5.369  19.505  0.00  0.00    +0.000 C 
ATOM     21  S   UNL     1       7.774   6.738  18.349  0.00  0.00    +0.000 S 
ENDBRANCH  19  21
ENDBRANCH   1  19
BRANCH   4  22
ATOM     22  O   UNL     1       2.966   3.841  18.876  0.00  0.00    +0.000 OA
BRANCH  22  23
ATOM     23  C   UNL     1       1.790   3.174  19.033  0.00  0.00    +0.000 C 
ATOM     24  C   UNL     1       1.489   2.933  20.483  0.00  0.00    +0.000 C 
ATOM     25  O   UNL     1       1.046   2.841  18.126  0.00  0.00    +0.000 OA
ENDBRANCH  22  23
ENDBRANCH   4  22
BRANCH   5  26
ATOM     26  O   UNL     1       4.574   3.970  16.716  0.00  0.00    +0.000 OA
BRANCH  26  27
ATOM     27  C   UNL     1       5.597   4.036  15.822  0.00  0.00    +0.000 C 
ATOM     28  C   UNL     1       5.118   4.592  14.512  0.00  0.00    +0.000 C 
ATOM     29  O   UNL     1       6.754   3.736  16.071  0.00  0.00    +0.000 OA
ENDBRANCH  26  27
ENDBRANCH   5  26
TORSDOF 7
ENDMDL
MODEL 7
REMARK VINA RESULT:      -6.5      1.427      2.032
REMARK  Name = 
REMARK  10 active torsions:
REMARK  status: ('A' for Active; 'I' for Inactive)
REMARK    1  A    between atoms: C_1  and  S_2
REMARK    2  A    between atoms: S_2  and  C_3
REMARK    3  A    between atoms: C_3  and  C_4
REMARK    4  A    between atoms: C_6  and  N_7
REMARK    5  A    between atoms: C_18  and  O_19
REMARK    6  A    between atoms: O_19  and  C_20
REMARK    7  A    between atoms: C_20  and  C_21
REMARK    8  A    between atoms: C_23  and  O_24
REMARK    9  A    between atoms: O_24  and  C_25
REMARK   10  A    between atoms: C_25  and  C_26
REMARK                            x       y       z     vdW  Elec       q    Type
REMARK                         _______ _______ _______ _____ _____    ______ ____
ROOT
ATOM      1  C   UNL     1       5.229   5.856  18.066  0.00  0.00    +0.000 C 
ATOM      2  O   UNL     1       4.517   6.549  19.112  0.00  0.00    +0.000 OA
ATOM      3  C   UNL     1       3.098   6.297  18.984  0.00  0.00    +0.000 C 
ATOM      4  C   UNL     1       2.948   5.133  17.990  0.00  0.00    +0.000 C 
ATOM      5  C   UNL     1       4.178   5.306  17.097  0.00  0.00    +0.000 C 
ENDROOT
BRANCH   3   6
ATOM      6  N   UNL     1       2.453   7.547  18.611  0.00  0.00    +0.000 N 
ATOM      7  C   UNL     1       2.542   8.191  17.402  0.00  0.00    +0.000 A 
ATOM      8  N   UNL     1       1.886   9.333  17.396  0.00  0.00    +0.000 NA
ATOM      9  C   UNL     1       1.396   9.462  18.675  0.00  0.00    +0.000 A 
ATOM     10  C   UNL     1       0.638  10.465  19.305  0.00  0.00    +0.000 A 
ATOM     11  N   UNL     1       0.186  11.598  18.642  0.00  0.00    +0.000 N 
ATOM     12  N   UNL     1       0.344  10.331  20.616  0.00  0.00    +0.000 NA
ATOM     13  C   UNL     1       0.771   9.216  21.242  0.00  0.00    +0.000 A 
ATOM     14 CL   UNL     1       0.348   9.093  22.895  0.00  0.00    +0.000 Cl
ATOM     15  N   UNL     1       1.474   8.181  20.745  0.00  0.00    +0.000 NA
ATOM     16  C   UNL     1       1.758   8.373  19.451  0.00  0.00    +0.000 A 
ATOM     17  H   UNL     1       0.703  11.813  17.797  0.00  0.00    +0.000 HD
ATOM     18  H   UNL     1      -0.032  12.360  19.271  0.00  0.00    +0.000 HD
ENDBRANCH   3   6
BRANCH   1  19
ATOM     19  C   UNL     1       6.221   6.806  17.372  0.00  0.00    +0.000 C 
BRANCH  19  21
ATOM     20  C   UNL     1       8.246   8.613  17.999  0.00  0.00    +0.000 C 
ATOM     21  S   UNL     1       7.800   6.885  18.297  0.00  0.00    +0.000 S 
ENDBRANCH  19  21
ENDBRANCH   1  19
BRANCH   4  22
ATOM     22  O   UNL     1       3.052   3.857  18.681  0.00  0.00    +0.000 OA
BRANCH  22  23
ATOM     23  C   UNL     1       2.039   2.981  18.440  0.00  0.00    +0.000 C 
ATOM     24  C   UNL     1       1.063   2.950  19.579  0.00  0.00    +0.000 C 
ATOM     25  O   UNL     1       1.906   2.325  17.421  0.00  0.00    +0.000 OA
ENDBRANCH  22  23
ENDBRANCH   4  22
BRANCH   5  26
ATOM     26  O   UNL     1       4.660   4.080  16.528  0.00  0.00    +0.000 OA
BRANCH  26  27
ATOM     27  C   UNL     1       5.371   4.189  15.373  0.00  0.00    +0.000 C 
ATOM     28  C   UNL     1       6.812   3.837  15.604  0.00  0.00    +0.000 C 
ATOM     29  O   UNL     1       4.889   4.479  14.290  0.00  0.00    +0.000 OA
ENDBRANCH  26  27
ENDBRANCH   5  26
TORSDOF 7
ENDMDL
MODEL 8
REMARK VINA RESULT:      -6.3      4.462      7.619
REMARK  Name = 
REMARK  10 active torsions:
REMARK  status: ('A' for Active; 'I' for Inactive)
REMARK    1  A    between atoms: C_1  and  S_2
REMARK    2  A    between atoms: S_2  and  C_3
REMARK    3  A    between atoms: C_3  and  C_4
REMARK    4  A    between atoms: C_6  and  N_7
REMARK    5  A    between atoms: C_18  and  O_19
REMARK    6  A    between atoms: O_19  and  C_20
REMARK    7  A    between atoms: C_20  and  C_21
REMARK    8  A    between atoms: C_23  and  O_24
REMARK    9  A    between atoms: O_24  and  C_25
REMARK   10  A    between atoms: C_25  and  C_26
REMARK                            x       y       z     vdW  Elec       q    Type
REMARK                         _______ _______ _______ _____ _____    ______ ____
ROOT
ATOM      1  C   UNL     1      -1.033  11.326  19.160  0.00  0.00    +0.000 C 
ATOM      2  O   UNL     1      -0.763   9.927  19.388  0.00  0.00    +0.000 OA
ATOM      3  C   UNL     1       0.510   9.782  20.062  0.00  0.00    +0.000 C 
ATOM      4  C   UNL     1       0.905  11.183  20.557  0.00  0.00    +0.000 C 
ATOM      5  C   UNL     1       0.241  12.094  19.522  0.00  0.00    +0.000 C 
ENDROOT
BRANCH   3   6
ATOM      6  N   UNL     1       1.434   9.141  19.139  0.00  0.00    +0.000 N 
ATOM      7  C   UNL     1       1.847   9.622  17.921  0.00  0.00    +0.000 A 
ATOM      8  N   UNL     1       2.647   8.780  17.298  0.00  0.00    +0.000 NA
ATOM      9  C   UNL     1       2.711   7.682  18.125  0.00  0.00    +0.000 A 
ATOM     10  C   UNL     1       3.378   6.449  18.015  0.00  0.00    +0.000 A 
ATOM     11  N   UNL     1       4.199   6.126  16.942  0.00  0.00    +0.000 N 
ATOM     12  N   UNL     1       3.208   5.529  18.989  0.00  0.00    +0.000 NA
ATOM     13  C   UNL     1       2.426   5.863  20.035  0.00  0.00    +0.000 A 
ATOM     14 CL   UNL     1       2.267   4.664  21.246  0.00  0.00    +0.000 Cl
ATOM     15  N   UNL     1       1.762   7.011  20.265  0.00  0.00    +0.000 NA
ATOM     16  C   UNL     1       1.947   7.879  19.263  0.00  0.00    +0.000 A 
ATOM     17  H   UNL     1       4.024   6.681  16.111  0.00  0.00    +0.000 HD
ATOM     18  H   UNL     1       4.323   5.129  16.829  0.00  0.00    +0.000 HD
ENDBRANCH   3   6
BRANCH   1  19
ATOM     19  C   UNL     1      -1.458  11.558  17.699  0.00  0.00    +0.000 C 
BRANCH  19  21
ATOM     20  C   UNL     1      -2.873  10.701  15.457  0.00  0.00    +0.000 C 
ATOM     21  S   UNL     1      -2.144  10.024  16.969  0.00  0.00    +0.000 S 
ENDBRANCH  19  21
ENDBRANCH   1  19
BRANCH   4  22
ATOM     22  O   UNL     1       0.313  11.450  21.858  0.00  0.00    +0.000 OA
BRANCH  22  23
ATOM     23  C   UNL     1       0.226  10.375  22.689  0.00  0.00    +0.000 C 
ATOM     24  C   UNL     1      -1.164  10.216  23.231  0.00  0.00    +0.000 C 
ATOM     25  O   UNL     1       1.140   9.609  22.942  0.00  0.00    +0.000 OA
ENDBRANCH  22  23
ENDBRANCH   4  22
BRANCH   5  26
ATOM     26  O   UNL     1      -0.120  13.386  20.032  0.00  0.00    +0.000 OA
BRANCH  26  27
ATOM     27  C   UNL     1       0.245  14.456  19.276  0.00  0.00    +0.000 C 
ATOM     28  C   UNL     1       1.591  14.229  18.652  0.00  0.00    +0.000 C 
ATOM     29  O   UNL     1      -0.454  15.440  19.089  0.00  0.00    +0.000 OA
ENDBRANCH  26  27
ENDBRANCH   5  26
TORSDOF 7
ENDMDL
MODEL 9
REMARK VINA RESULT:      -6.3      0.898      1.097
REMARK  Name = 
REMARK  10 active torsions:
REMARK  status: ('A' for Active; 'I' for Inactive)
REMARK    1  A    between atoms: C_1  and  S_2
REMARK    2  A    between atoms: S_2  and  C_3
REMARK    3  A    between atoms: C_3  and  C_4
REMARK    4  A    between atoms: C_6  and  N_7
REMARK    5  A    between atoms: C_18  and  O_19
REMARK    6  A    between atoms: O_19  and  C_20
REMARK    7  A    between atoms: C_20  and  C_21
REMARK    8  A    between atoms: C_23  and  O_24
REMARK    9  A    between atoms: O_24  and  C_25
REMARK   10  A    between atoms: C_25  and  C_26
REMARK                            x       y       z     vdW  Elec       q    Type
REMARK                         _______ _______ _______ _____ _____    ______ ____
ROOT
ATOM      1  C   UNL     1       4.517   5.190  17.869  0.00  0.00    +0.000 C 
ATOM      2  O   UNL     1       4.503   6.368  18.702  0.00  0.00    +0.000 OA
ATOM      3  C   UNL     1       3.232   6.465  19.386  0.00  0.00    +0.000 C 
ATOM      4  C   UNL     1       2.535   5.105  19.208  0.00  0.00    +0.000 C 
ATOM      5  C   UNL     1       3.094   4.626  17.868  0.00  0.00    +0.000 C 
ENDROOT
BRANCH   3   6
ATOM      6  N   UNL     1       2.526   7.622  18.860  0.00  0.00    +0.000 N 
ATOM      7  C   UNL     1       2.724   8.223  17.641  0.00  0.00    +0.000 A 
ATOM      8  N   UNL     1       1.964   9.287  17.481  0.00  0.00    +0.000 NA
ATOM      9  C   UNL     1       1.285   9.415  18.671  0.00  0.00    +0.000 A 
ATOM     10  C   UNL     1       0.348  10.356  19.133  0.00  0.00    +0.000 A 
ATOM     11  N   UNL     1      -0.116  11.407  18.352  0.00  0.00    +0.000 N 
ATOM     12  N   UNL     1      -0.118  10.244  20.396  0.00  0.00    +0.000 NA
ATOM     13  C   UNL     1       0.325   9.206  21.135  0.00  0.00    +0.000 A 
ATOM     14 CL   UNL     1      -0.318   9.106  22.718  0.00  0.00    +0.000 Cl
ATOM     15  N   UNL     1       1.192   8.234  20.798  0.00  0.00    +0.000 NA
ATOM     16  C   UNL     1       1.637   8.403  19.548  0.00  0.00    +0.000 A 
ATOM     17  H   UNL     1       0.493  11.641  17.576  0.00  0.00    +0.000 HD
ATOM     18  H   UNL     1      -0.497  12.165  18.902  0.00  0.00    +0.000 HD
ENDBRANCH   3   6
BRANCH   1  19
ATOM     19  C   UNL     1       5.007   5.541  16.453  0.00  0.00    +0.000 C 
BRANCH  19  21
ATOM     20  C   UNL     1       7.486   4.789  17.476  0.00  0.00    +0.000 C 
ATOM     21  S   UNL     1       6.468   4.532  16.002  0.00  0.00    +0.000 S 
ENDBRANCH  19  21
ENDBRANCH   1  19
BRANCH   4  22
ATOM     22  O   UNL     1       2.957   4.176  20.246  0.00  0.00    +0.000 OA
BRANCH  22  23
ATOM     23  C   UNL     1       1.957   3.680  21.023  0.00  0.00    +0.000 C 
ATOM     24  C   UNL     1       0.668   3.587  20.262  0.00  0.00    +0.000 C 
ATOM     25  O   UNL     1       2.083   3.317  22.181  0.00  0.00    +0.000 OA
ENDBRANCH  22  23
ENDBRANCH   4  22
BRANCH   5  26
ATOM     26  O   UNL     1       3.156   3.197  17.741  0.00  0.00    +0.000 OA
BRANCH  26  27
ATOM     27  C   UNL     1       4.067   2.561  18.526  0.00  0.00    +0.000 C 
ATOM     28  C   UNL     1       3.695   1.118  18.705  0.00  0.00    +0.000 C 
ATOM     29  O   UNL     1       5.076   3.083  18.974  0.00  0.00    +0.000 OA
ENDBRANCH  26  27
ENDBRANCH   5  26
TORSDOF 7
ENDMDL
