MODEL 1
REMARK VINA RESULT:      -6.1      0.000      0.000
REMARK  Name = 
REMARK  6 active torsions:
REMARK  status: ('A' for Active; 'I' for Inactive)
REMARK    1  A    between atoms: C_1  and  C_2
REMARK    2  A    between atoms: C_2  and  C_3
REMARK    3  A    between atoms: C_3  and  C_4
REMARK    4  A    between atoms: C_4  and  S_5
REMARK    5  A    between atoms: S_5  and  C_6
REMARK    6  A    between atoms: C_9  and  S_10
REMARK                            x       y       z     vdW  Elec       q    Type
REMARK                         _______ _______ _______ _____ _____    ______ ____
ROOT
ATOM      1  C   UNL     1       4.993   4.190  18.293  0.00  0.00    +0.000 A 
ATOM      2  N   UNL     1       5.048   2.949  18.922  0.00  0.00    +0.000 N 
ATOM      3  N   UNL     1       4.225   2.495  19.924  0.00  0.00    +0.000 NA
ATOM      4  C   UNL     1       3.294   3.320  20.286  0.00  0.00    +0.000 A 
ATOM      5  C   UNL     1       3.102   4.655  19.684  0.00  0.00    +0.000 A 
ATOM      6  N   UNL     1       2.251   5.618  19.908  0.00  0.00    +0.000 NA
ATOM      7  C   UNL     1       2.646   6.593  18.999  0.00  0.00    +0.000 A 
ATOM      8  N   UNL     1       3.667   6.317  18.239  0.00  0.00    +0.000 NA
ATOM      9  C   UNL     1       4.024   5.056  18.632  0.00  0.00    +0.000 A 
ATOM     10  H   UNL     1       5.792   2.337  18.584  0.00  0.00    +0.000 HD
ENDROOT
BRANCH   4  11
ATOM     11  S   UNL     1       2.134   3.054  21.522  0.00  0.00    +0.000 S 
ATOM     12  H   UNL     1       1.066   3.178  20.723  0.00  0.00    +0.000 HD
ENDBRANCH   4  11
BRANCH   1  13
ATOM     13  S   UNL     1       6.158   4.617  17.057  0.00  0.00    +0.000 S 
BRANCH  13  14
ATOM     14  C   UNL     1       7.660   4.807  18.075  0.00  0.00    +0.000 C 
BRANCH  14  15
ATOM     15  C   UNL     1       7.742   6.228  18.624  0.00  0.00    +0.000 C 
BRANCH  15  17
ATOM     16  C   UNL     1       8.051   8.602  17.847  0.00  0.00    +0.000 C 
ATOM     17  C   UNL     1       7.425   7.253  17.534  0.00  0.00    +0.000 C 
ENDBRANCH  15  17
ENDBRANCH  14  15
ENDBRANCH  13  14
ENDBRANCH   1  13
TORSDOF 5
ENDMDL
MODEL 2
REMARK VINA RESULT:      -5.8      2.482      5.307
REMARK  Name = 
REMARK  6 active torsions:
REMARK  status: ('A' for Active; 'I' for Inactive)
REMARK    1  A    between atoms: C_1  and  C_2
REMARK    2  A    between atoms: C_2  and  C_3
REMARK    3  A    between atoms: C_3  and  C_4
REMARK    4  A    between atoms: C_4  and  S_5
REMARK    5  A    between atoms: S_5  and  C_6
REMARK    6  A    between atoms: C_9  and  S_10
REMARK                            x       y       z     vdW  Elec       q    Type
REMARK                         _______ _______ _______ _____ _____    ______ ____
ROOT
ATOM      1  C   UNL     1       4.781   3.773  18.128  0.00  0.00    +0.000 A 
ATOM      2  N   UNL     1       5.318   4.150  19.357  0.00  0.00    +0.000 N 
ATOM      3  N   UNL     1       6.295   5.090  19.575  0.00  0.00    +0.000 NA
ATOM      4  C   UNL     1       6.729   5.689  18.512  0.00  0.00    +0.000 A 
ATOM      5  C   UNL     1       6.229   5.409  17.151  0.00  0.00    +0.000 A 
ATOM      6  N   UNL     1       6.535   5.886  15.976  0.00  0.00    +0.000 NA
ATOM      7  C   UNL     1       5.694   5.172  15.130  0.00  0.00    +0.000 A 
ATOM      8  N   UNL     1       4.901   4.297  15.679  0.00  0.00    +0.000 NA
ATOM      9  C   UNL     1       5.196   4.394  17.011  0.00  0.00    +0.000 A 
ATOM     10  H   UNL     1       4.926   3.654  20.158  0.00  0.00    +0.000 HD
ENDROOT
BRANCH   4  11
ATOM     11  S   UNL     1       7.959   6.885  18.459  0.00  0.00    +0.000 S 
ATOM     12  H   UNL     1       8.550   6.410  17.354  0.00  0.00    +0.000 HD
ENDBRANCH   4  11
BRANCH   1  13
ATOM     13  S   UNL     1       3.564   2.518  18.032  0.00  0.00    +0.000 S 
BRANCH  13  14
ATOM     14  C   UNL     1       2.061   3.533  17.836  0.00  0.00    +0.000 C 
BRANCH  14  15
ATOM     15  C   UNL     1       1.672   4.153  19.175  0.00  0.00    +0.000 C 
BRANCH  15  17
ATOM     16  C   UNL     1       1.649   2.962  21.392  0.00  0.00    +0.000 C 
ATOM     17  C   UNL     1       0.947   3.135  20.056  0.00  0.00    +0.000 C 
ENDBRANCH  15  17
ENDBRANCH  14  15
ENDBRANCH  13  14
ENDBRANCH   1  13
TORSDOF 5
ENDMDL
MODEL 3
REMARK VINA RESULT:      -5.8      3.789      4.776
REMARK  Name = 
REMARK  6 active torsions:
REMARK  status: ('A' for Active; 'I' for Inactive)
REMARK    1  A    between atoms: C_1  and  C_2
REMARK    2  A    between atoms: C_2  and  C_3
REMARK    3  A    between atoms: C_3  and  C_4
REMARK    4  A    between atoms: C_4  and  S_5
REMARK    5  A    between atoms: S_5  and  C_6
REMARK    6  A    between atoms: C_9  and  S_10
REMARK                            x       y       z     vdW  Elec       q    Type
REMARK                         _______ _______ _______ _____ _____    ______ ____
ROOT
ATOM      1  C   UNL     1       5.939   4.699  16.239  0.00  0.00    +0.000 A 
ATOM      2  N   UNL     1       4.591   4.352  16.213  0.00  0.00    +0.000 N 
ATOM      3  N   UNL     1       3.741   4.269  17.289  0.00  0.00    +0.000 NA
ATOM      4  C   UNL     1       4.269   4.571  18.432  0.00  0.00    +0.000 A 
ATOM      5  C   UNL     1       5.677   4.984  18.600  0.00  0.00    +0.000 A 
ATOM      6  N   UNL     1       6.389   5.313  19.644  0.00  0.00    +0.000 NA
ATOM      7  C   UNL     1       7.638   5.573  19.091  0.00  0.00    +0.000 A 
ATOM      8  N   UNL     1       7.759   5.428  17.802  0.00  0.00    +0.000 NA
ATOM      9  C   UNL     1       6.508   5.040  17.407  0.00  0.00    +0.000 A 
ATOM     10  H   UNL     1       4.228   4.140  15.283  0.00  0.00    +0.000 HD
ENDROOT
BRANCH   4  11
ATOM     11  S   UNL     1       3.474   4.536  19.952  0.00  0.00    +0.000 S 
ATOM     12  H   UNL     1       2.333   4.011  19.486  0.00  0.00    +0.000 HD
ENDBRANCH   4  11
BRANCH   1  13
ATOM     13  S   UNL     1       6.887   4.713  14.766  0.00  0.00    +0.000 S 
BRANCH  13  14
ATOM     14  C   UNL     1       5.677   4.016  13.592  0.00  0.00    +0.000 C 
BRANCH  14  15
ATOM     15  C   UNL     1       6.400   3.436  12.380  0.00  0.00    +0.000 C 
BRANCH  15  17
ATOM     16  C   UNL     1       4.135   3.201  11.309  0.00  0.00    +0.000 C 
ATOM     17  C   UNL     1       5.471   2.527  11.575  0.00  0.00    +0.000 C 
ENDBRANCH  15  17
ENDBRANCH  14  15
ENDBRANCH  13  14
ENDBRANCH   1  13
TORSDOF 5
ENDMDL
MODEL 4
REMARK VINA RESULT:      -5.8      2.510      5.334
REMARK  Name = 
REMARK  6 active torsions:
REMARK  status: ('A' for Active; 'I' for Inactive)
REMARK    1  A    between atoms: C_1  and  C_2
REMARK    2  A    between atoms: C_2  and  C_3
REMARK    3  A    between atoms: C_3  and  C_4
REMARK    4  A    between atoms: C_4  and  S_5
REMARK    5  A    between atoms: S_5  and  C_6
REMARK    6  A    between atoms: C_9  and  S_10
REMARK                            x       y       z     vdW  Elec       q    Type
REMARK                         _______ _______ _______ _____ _____    ______ ____
ROOT
ATOM      1  C   UNL     1       4.330   3.845  17.740  0.00  0.00    +0.000 A 
ATOM      2  N   UNL     1       4.481   4.227  19.070  0.00  0.00    +0.000 N 
ATOM      3  N   UNL     1       5.570   4.847  19.631  0.00  0.00    +0.000 NA
ATOM      4  C   UNL     1       6.535   5.114  18.809  0.00  0.00    +0.000 A 
ATOM      5  C   UNL     1       6.497   4.791  17.368  0.00  0.00    +0.000 A 
ATOM      6  N   UNL     1       7.349   4.964  16.395  0.00  0.00    +0.000 NA
ATOM      7  C   UNL     1       6.681   4.418  15.305  0.00  0.00    +0.000 A 
ATOM      8  N   UNL     1       5.496   3.921  15.521  0.00  0.00    +0.000 NA
ATOM      9  C   UNL     1       5.305   4.129  16.860  0.00  0.00    +0.000 A 
ATOM     10  H   UNL     1       3.682   4.005  19.666  0.00  0.00    +0.000 HD
ENDROOT
BRANCH   4  11
ATOM     11  S   UNL     1       8.029   5.855  19.212  0.00  0.00    +0.000 S 
ATOM     12  H   UNL     1       8.272   5.080  20.278  0.00  0.00    +0.000 HD
ENDBRANCH   4  11
BRANCH   1  13
ATOM     13  S   UNL     1       2.880   3.021  17.205  0.00  0.00    +0.000 S 
BRANCH  13  14
ATOM     14  C   UNL     1       2.415   2.150  18.738  0.00  0.00    +0.000 C 
BRANCH  14  15
ATOM     15  C   UNL     1       1.042   2.620  19.210  0.00  0.00    +0.000 C 
BRANCH  15  17
ATOM     16  C   UNL     1       1.306   4.714  20.580  0.00  0.00    +0.000 C 
ATOM     17  C   UNL     1       1.122   3.206  20.620  0.00  0.00    +0.000 C 
ENDBRANCH  15  17
ENDBRANCH  14  15
ENDBRANCH  13  14
ENDBRANCH   1  13
TORSDOF 5
ENDMDL
MODEL 5
REMARK VINA RESULT:      -5.8      2.336      2.854
REMARK  Name = 
REMARK  6 active torsions:
REMARK  status: ('A' for Active; 'I' for Inactive)
REMARK    1  A    between atoms: C_1  and  C_2
REMARK    2  A    between atoms: C_2  and  C_3
REMARK    3  A    between atoms: C_3  and  C_4
REMARK    4  A    between atoms: C_4  and  S_5
REMARK    5  A    between atoms: S_5  and  C_6
REMARK    6  A    between atoms: C_9  and  S_10
REMARK                            x       y       z     vdW  Elec       q    Type
REMARK                         _______ _______ _______ _____ _____    ______ ____
ROOT
ATOM      1  C   UNL     1       5.100   4.217  18.493  0.00  0.00    +0.000 A 
ATOM      2  N   UNL     1       5.119   2.961  19.094  0.00  0.00    +0.000 N 
ATOM      3  N   UNL     1       4.225   2.475  20.016  0.00  0.00    +0.000 NA
ATOM      4  C   UNL     1       3.260   3.282  20.325  0.00  0.00    +0.000 A 
ATOM      5  C   UNL     1       3.102   4.631  19.744  0.00  0.00    +0.000 A 
ATOM      6  N   UNL     1       2.225   5.580  19.926  0.00  0.00    +0.000 NA
ATOM      7  C   UNL     1       2.680   6.581  19.075  0.00  0.00    +0.000 A 
ATOM      8  N   UNL     1       3.760   6.334  18.390  0.00  0.00    +0.000 NA
ATOM      9  C   UNL     1       4.099   5.067  18.778  0.00  0.00    +0.000 A 
ATOM     10  H   UNL     1       5.893   2.365  18.799  0.00  0.00    +0.000 HD
ENDROOT
BRANCH   4  11
ATOM     11  S   UNL     1       2.011   2.974  21.460  0.00  0.00    +0.000 S 
ATOM     12  H   UNL     1       1.588   1.843  20.879  0.00  0.00    +0.000 HD
ENDBRANCH   4  11
BRANCH   1  13
ATOM     13  S   UNL     1       6.353   4.687  17.364  0.00  0.00    +0.000 S 
BRANCH  13  14
ATOM     14  C   UNL     1       5.473   4.452  15.783  0.00  0.00    +0.000 C 
BRANCH  14  15
ATOM     15  C   UNL     1       6.471   4.140  14.672  0.00  0.00    +0.000 C 
BRANCH  15  17
ATOM     16  C   UNL     1       6.707   3.687  12.208  0.00  0.00    +0.000 C 
ATOM     17  C   UNL     1       5.746   3.749  13.384  0.00  0.00    +0.000 C 
ENDBRANCH  15  17
ENDBRANCH  14  15
ENDBRANCH  13  14
ENDBRANCH   1  13
TORSDOF 5
ENDMDL
MODEL 6
REMARK VINA RESULT:      -5.8      1.080      1.080
REMARK  Name = 
REMARK  6 active torsions:
REMARK  status: ('A' for Active; 'I' for Inactive)
REMARK    1  A    between atoms: C_1  and  C_2
REMARK    2  A    between atoms: C_2  and  C_3
REMARK    3  A    between atoms: C_3  and  C_4
REMARK    4  A    between atoms: C_4  and  S_5
REMARK    5  A    between atoms: S_5  and  C_6
REMARK    6  A    between atoms: C_9  and  S_10
REMARK                            x       y       z     vdW  Elec       q    Type
REMARK                         _______ _______ _______ _____ _____    ______ ____
ROOT
ATOM      1  C   UNL     1       4.902   3.838  18.197  0.00  0.00    +0.000 A 
ATOM      2  N   UNL     1       5.398   3.078  19.253  0.00  0.00    +0.000 N 
ATOM      3  N   UNL     1       4.690   2.606  20.331  0.00  0.00    +0.000 NA
ATOM      4  C   UNL     1       3.427   2.893  20.328  0.00  0.00    +0.000 A 
ATOM      5  C   UNL     1       2.764   3.666  19.258  0.00  0.00    +0.000 A 
ATOM      6  N   UNL     1       1.534   4.061  19.077  0.00  0.00    +0.000 NA
ATOM      7  C   UNL     1       1.610   4.755  17.875  0.00  0.00    +0.000 A 
ATOM      8  N   UNL     1       2.778   4.826  17.302  0.00  0.00    +0.000 NA
ATOM      9  C   UNL     1       3.592   4.132  18.156  0.00  0.00    +0.000 A 
ATOM     10  H   UNL     1       6.395   2.871  19.192  0.00  0.00    +0.000 HD
ENDROOT
BRANCH   4  11
ATOM     11  S   UNL     1       2.293   2.469  21.544  0.00  0.00    +0.000 S 
ATOM     12  H   UNL     1       1.808   1.400  20.898  0.00  0.00    +0.000 HD
ENDBRANCH   4  11
BRANCH   1  13
ATOM     13  S   UNL     1       5.965   4.394  16.920  0.00  0.00    +0.000 S 
BRANCH  13  14
ATOM     14  C   UNL     1       7.499   4.668  17.868  0.00  0.00    +0.000 C 
BRANCH  14  15
ATOM     15  C   UNL     1       7.492   6.065  18.481  0.00  0.00    +0.000 C 
BRANCH  15  17
ATOM     16  C   UNL     1       8.016   8.450  17.873  0.00  0.00    +0.000 C 
ATOM     17  C   UNL     1       7.421   7.137  17.393  0.00  0.00    +0.000 C 
ENDBRANCH  15  17
ENDBRANCH  14  15
ENDBRANCH  13  14
ENDBRANCH   1  13
TORSDOF 5
ENDMDL
MODEL 7
REMARK VINA RESULT:      -5.7      1.818      2.268
REMARK  Name = 
REMARK  6 active torsions:
REMARK  status: ('A' for Active; 'I' for Inactive)
REMARK    1  A    between atoms: C_1  and  C_2
REMARK    2  A    between atoms: C_2  and  C_3
REMARK    3  A    between atoms: C_3  and  C_4
REMARK    4  A    between atoms: C_4  and  S_5
REMARK    5  A    between atoms: S_5  and  C_6
REMARK    6  A    between atoms: C_9  and  S_10
REMARK                            x       y       z     vdW  Elec       q    Type
REMARK                         _______ _______ _______ _____ _____    ______ ____
ROOT
ATOM      1  C   UNL     1       5.397   4.493  18.932  0.00  0.00    +0.000 A 
ATOM      2  N   UNL     1       5.361   3.201  19.449  0.00  0.00    +0.000 N 
ATOM      3  N   UNL     1       4.240   2.473  19.769  0.00  0.00    +0.000 NA
ATOM      4  C   UNL     1       3.113   3.066  19.534  0.00  0.00    +0.000 A 
ATOM      5  C   UNL     1       3.005   4.423  18.961  0.00  0.00    +0.000 A 
ATOM      6  N   UNL     1       1.988   5.184  18.663  0.00  0.00    +0.000 NA
ATOM      7  C   UNL     1       2.599   6.334  18.178  0.00  0.00    +0.000 A 
ATOM      8  N   UNL     1       3.902   6.350  18.154  0.00  0.00    +0.000 NA
ATOM      9  C   UNL     1       4.243   5.124  18.657  0.00  0.00    +0.000 A 
ATOM     10  H   UNL     1       6.278   2.780  19.598  0.00  0.00    +0.000 HD
ENDROOT
BRANCH   4  11
ATOM     11  S   UNL     1       1.552   2.428  19.851  0.00  0.00    +0.000 S 
ATOM     12  H   UNL     1       1.977   1.450  20.662  0.00  0.00    +0.000 HD
ENDBRANCH   4  11
BRANCH   1  13
ATOM     13  S   UNL     1       6.926   5.289  18.622  0.00  0.00    +0.000 S 
BRANCH  13  14
ATOM     14  C   UNL     1       7.333   4.590  16.986  0.00  0.00    +0.000 C 
BRANCH  14  15
ATOM     15  C   UNL     1       6.799   5.499  15.883  0.00  0.00    +0.000 C 
BRANCH  15  17
ATOM     16  C   UNL     1       6.125   3.929  14.035  0.00  0.00    +0.000 C 
ATOM     17  C   UNL     1       5.632   4.837  15.150  0.00  0.00    +0.000 C 
ENDBRANCH  15  17
ENDBRANCH  14  15
ENDBRANCH  13  14
ENDBRANCH   1  13
TORSDOF 5
ENDMDL
MODEL 8
REMARK VINA RESULT:      -5.6      2.298      5.618
REMARK  Name = 
REMARK  6 active torsions:
REMARK  status: ('A' for Active; 'I' for Inactive)
REMARK    1  A    between atoms: C_1  and  C_2
REMARK    2  A    between atoms: C_2  and  C_3
REMARK    3  A    between atoms: C_3  and  C_4
REMARK    4  A    between atoms: C_4  and  S_5
REMARK    5  A    between atoms: S_5  and  C_6
REMARK    6  A    between atoms: C_9  and  S_10
REMARK                            x       y       z     vdW  Elec       q    Type
REMARK                         _______ _______ _______ _____ _____    ______ ____
ROOT
ATOM      1  C   UNL     1       4.510   4.522  18.711  0.00  0.00    +0.000 A 
ATOM      2  N   UNL     1       3.906   4.094  17.532  0.00  0.00    +0.000 N 
ATOM      3  N   UNL     1       4.476   4.048  16.283  0.00  0.00    +0.000 NA
ATOM      4  C   UNL     1       5.713   4.427  16.229  0.00  0.00    +0.000 A 
ATOM      5  C   UNL     1       6.484   4.878  17.406  0.00  0.00    +0.000 A 
ATOM      6  N   UNL     1       7.710   5.300  17.557  0.00  0.00    +0.000 NA
ATOM      7  C   UNL     1       7.772   5.570  18.919  0.00  0.00    +0.000 A 
ATOM      8  N   UNL     1       6.694   5.356  19.618  0.00  0.00    +0.000 NA
ATOM      9  C   UNL     1       5.799   4.900  18.689  0.00  0.00    +0.000 A 
ATOM     10  H   UNL     1       2.937   3.793  17.640  0.00  0.00    +0.000 HD
ENDROOT
BRANCH   4  11
ATOM     11  S   UNL     1       6.684   4.507  14.817  0.00  0.00    +0.000 S 
ATOM     12  H   UNL     1       6.022   5.534  14.266  0.00  0.00    +0.000 HD
ENDBRANCH   4  11
BRANCH   1  13
ATOM     13  S   UNL     1       3.613   4.553  20.215  0.00  0.00    +0.000 S 
BRANCH  13  14
ATOM     14  C   UNL     1       1.931   4.869  19.586  0.00  0.00    +0.000 C 
BRANCH  14  15
ATOM     15  C   UNL     1       0.905   4.142  20.450  0.00  0.00    +0.000 C 
BRANCH  15  17
ATOM     16  C   UNL     1       0.939   2.355  18.678  0.00  0.00    +0.000 C 
ATOM     17  C   UNL     1       0.926   2.639  20.171  0.00  0.00    +0.000 C 
ENDBRANCH  15  17
ENDBRANCH  14  15
ENDBRANCH  13  14
ENDBRANCH   1  13
TORSDOF 5
ENDMDL
MODEL 9
REMARK VINA RESULT:      -5.6      3.322      3.940
REMARK  Name = 
REMARK  6 active torsions:
REMARK  status: ('A' for Active; 'I' for Inactive)
REMARK    1  A    between atoms: C_1  and  C_2
REMARK    2  A    between atoms: C_2  and  C_3
REMARK    3  A    between atoms: C_3  and  C_4
REMARK    4  A    between atoms: C_4  and  S_5
REMARK    5  A    between atoms: S_5  and  C_6
REMARK    6  A    between atoms: C_9  and  S_10
REMARK                            x       y       z     vdW  Elec       q    Type
REMARK                         _______ _______ _______ _____ _____    ______ ____
ROOT
ATOM      1  C   UNL     1       5.065   4.125  16.734  0.00  0.00    +0.000 A 
ATOM      2  N   UNL     1       4.605   2.918  17.255  0.00  0.00    +0.000 N 
ATOM      3  N   UNL     1       3.594   2.747  18.169  0.00  0.00    +0.000 NA
ATOM      4  C   UNL     1       3.009   3.837  18.552  0.00  0.00    +0.000 A 
ATOM      5  C   UNL     1       3.376   5.181  18.060  0.00  0.00    +0.000 A 
ATOM      6  N   UNL     1       2.927   6.377  18.323  0.00  0.00    +0.000 NA
ATOM      7  C   UNL     1       3.728   7.186  17.524  0.00  0.00    +0.000 A 
ATOM      8  N   UNL     1       4.632   6.593  16.797  0.00  0.00    +0.000 NA
ATOM      9  C   UNL     1       4.463   5.269  17.097  0.00  0.00    +0.000 A 
ATOM     10  H   UNL     1       5.094   2.093  16.904  0.00  0.00    +0.000 HD
ENDROOT
BRANCH   4  11
ATOM     11  S   UNL     1       1.738   3.951  19.698  0.00  0.00    +0.000 S 
ATOM     12  H   UNL     1       0.945   4.714  18.933  0.00  0.00    +0.000 HD
ENDBRANCH   4  11
BRANCH   1  13
ATOM     13  S   UNL     1       6.402   4.158  15.603  0.00  0.00    +0.000 S 
BRANCH  13  14
ATOM     14  C   UNL     1       5.493   4.193  14.022  0.00  0.00    +0.000 C 
BRANCH  14  15
ATOM     15  C   UNL     1       6.424   3.815  12.875  0.00  0.00    +0.000 C 
BRANCH  15  17
ATOM     16  C   UNL     1       4.382   3.278  11.506  0.00  0.00    +0.000 C 
ATOM     17  C   UNL     1       5.758   2.803  11.943  0.00  0.00    +0.000 C 
ENDBRANCH  15  17
ENDBRANCH  14  15
ENDBRANCH  13  14
ENDBRANCH   1  13
TORSDOF 5
ENDMDL
