MODEL 1
REMARK VINA RESULT:      -7.6      0.000      0.000
REMARK  Name = 
REMARK  7 active torsions:
REMARK  status: ('A' for Active; 'I' for Inactive)
REMARK    1  A    between atoms: C_1  and  N_2
REMARK    2  A    between atoms: N_2  and  C_3
REMARK    3  A    between atoms: N_2  and  N_11
REMARK    4  A    between atoms: C_3  and  C_4
REMARK    5  A    between atoms: C_4  and  C_5
REMARK    6  A    between atoms: N_12  and  C_13
REMARK    7  A    between atoms: C_17  and  C_18
REMARK                            x       y       z     vdW  Elec       q    Type
REMARK                         _______ _______ _______ _____ _____    ______ ____
ROOT
ATOM      1  N   UNL     1       6.232   4.680  16.459  0.00  0.00    +0.000 NA
ATOM      2  N   UNL     1       5.857   4.323  15.322  0.00  0.00    +0.000 NA
ENDROOT
BRANCH   2   3
ATOM      3  C   UNL     1       6.722   4.691  14.276  0.00  0.00    +0.000 A 
ATOM      4  N   UNL     1       7.745   5.543  14.416  0.00  0.00    +0.000 NA
ATOM      5  N   UNL     1       8.288   5.588  13.191  0.00  0.00    +0.000 N 
ATOM      6  C   UNL     1       7.651   4.795  12.286  0.00  0.00    +0.000 A 
ATOM      7  C   UNL     1       6.600   4.190  12.955  0.00  0.00    +0.000 A 
ATOM      8  H   UNL     1       9.099   6.180  13.044  0.00  0.00    +0.000 HD
BRANCH   7   9
ATOM      9  C   UNL     1       5.664   3.270  12.346  0.00  0.00    +0.000 C 
ATOM     10  N   UNL     1       6.152   2.064  11.945  0.00  0.00    +0.000 N 
ATOM     11  O   UNL     1       4.476   3.535  12.184  0.00  0.00    +0.000 OA
ATOM     12  H   UNL     1       7.118   1.793  12.071  0.00  0.00    +0.000 HD
ATOM     13  H   UNL     1       5.504   1.409  11.529  0.00  0.00    +0.000 HD
ENDBRANCH   7   9
ENDBRANCH   2   3
BRANCH   1  15
ATOM     14  C   UNL     1       5.496   4.849  18.786  0.00  0.00    +0.000 C 
ATOM     15  N   UNL     1       5.393   4.241  17.466  0.00  0.00    +0.000 N 
BRANCH  15  16
ATOM     16  C   UNL     1       4.072   3.766  17.028  0.00  0.00    +0.000 C 
BRANCH  16  17
ATOM     17  C   UNL     1       3.612   2.495  17.752  0.00  0.00    +0.000 C 
BRANCH  17  18
ATOM     18  C   UNL     1       2.812   2.783  19.004  0.00  0.00    +0.000 A 
ATOM     19  C   UNL     1       1.574   3.436  18.930  0.00  0.00    +0.000 A 
ATOM     20  C   UNL     1       0.831   3.683  20.088  0.00  0.00    +0.000 A 
ATOM     21  C   UNL     1       1.321   3.287  21.331  0.00  0.00    +0.000 A 
ATOM     22  C   UNL     1       2.553   2.643  21.419  0.00  0.00    +0.000 A 
ATOM     23  C   UNL     1       3.295   2.392  20.261  0.00  0.00    +0.000 A 
ENDBRANCH  17  18
ENDBRANCH  16  17
ENDBRANCH  15  16
ENDBRANCH   1  15
TORSDOF 6
ENDMDL
MODEL 2
REMARK VINA RESULT:      -7.6      0.858      1.245
REMARK  Name = 
REMARK  7 active torsions:
REMARK  status: ('A' for Active; 'I' for Inactive)
REMARK    1  A    between atoms: C_1  and  N_2
REMARK    2  A    between atoms: N_2  and  C_3
REMARK    3  A    between atoms: N_2  and  N_11
REMARK    4  A    between atoms: C_3  and  C_4
REMARK    5  A    between atoms: C_4  and  C_5
REMARK    6  A    between atoms: N_12  and  C_13
REMARK    7  A    between atoms: C_17  and  C_18
REMARK                            x       y       z     vdW  Elec       q    Type
REMARK                         _______ _______ _______ _____ _____    ______ ____
ROOT
ATOM      1  N   UNL     1       6.119   4.892  16.033  0.00  0.00    +0.000 NA
ATOM      2  N   UNL     1       6.361   4.051  15.142  0.00  0.00    +0.000 NA
ENDROOT
BRANCH   2   3
ATOM      3  C   UNL     1       6.975   4.575  13.990  0.00  0.00    +0.000 A 
ATOM      4  N   UNL     1       7.919   5.524  14.011  0.00  0.00    +0.000 NA
ATOM      5  N   UNL     1       8.216   5.703  12.716  0.00  0.00    +0.000 N 
ATOM      6  C   UNL     1       7.499   4.903  11.880  0.00  0.00    +0.000 A 
ATOM      7  C   UNL     1       6.656   4.147  12.676  0.00  0.00    +0.000 A 
ATOM      8  H   UNL     1       8.924   6.389  12.474  0.00  0.00    +0.000 HD
BRANCH   7   9
ATOM      9  C   UNL     1       5.714   3.169  12.174  0.00  0.00    +0.000 C 
ATOM     10  N   UNL     1       6.212   1.947  11.836  0.00  0.00    +0.000 N 
ATOM     11  O   UNL     1       4.515   3.399  12.046  0.00  0.00    +0.000 OA
ATOM     12  H   UNL     1       7.188   1.704  11.939  0.00  0.00    +0.000 HD
ATOM     13  H   UNL     1       5.560   1.253  11.495  0.00  0.00    +0.000 HD
ENDBRANCH   7   9
ENDBRANCH   2   3
BRANCH   1  15
ATOM     14  C   UNL     1       6.051   4.786  18.476  0.00  0.00    +0.000 C 
ATOM     15  N   UNL     1       5.581   4.328  17.175  0.00  0.00    +0.000 N 
BRANCH  15  16
ATOM     16  C   UNL     1       4.183   3.885  17.063  0.00  0.00    +0.000 C 
BRANCH  16  17
ATOM     17  C   UNL     1       3.188   4.837  17.740  0.00  0.00    +0.000 C 
BRANCH  17  18
ATOM     18  C   UNL     1       2.458   4.202  18.903  0.00  0.00    +0.000 A 
ATOM     19  C   UNL     1       2.832   4.483  20.224  0.00  0.00    +0.000 A 
ATOM     20  C   UNL     1       2.142   3.908  21.295  0.00  0.00    +0.000 A 
ATOM     21  C   UNL     1       1.077   3.042  21.057  0.00  0.00    +0.000 A 
ATOM     22  C   UNL     1       0.700   2.750  19.747  0.00  0.00    +0.000 A 
ATOM     23  C   UNL     1       1.387   3.327  18.676  0.00  0.00    +0.000 A 
ENDBRANCH  17  18
ENDBRANCH  16  17
ENDBRANCH  15  16
ENDBRANCH   1  15
TORSDOF 6
ENDMDL
MODEL 3
REMARK VINA RESULT:      -7.5      0.589      1.205
REMARK  Name = 
REMARK  7 active torsions:
REMARK  status: ('A' for Active; 'I' for Inactive)
REMARK    1  A    between atoms: C_1  and  N_2
REMARK    2  A    between atoms: N_2  and  C_3
REMARK    3  A    between atoms: N_2  and  N_11
REMARK    4  A    between atoms: C_3  and  C_4
REMARK    5  A    between atoms: C_4  and  C_5
REMARK    6  A    between atoms: N_12  and  C_13
REMARK    7  A    between atoms: C_17  and  C_18
REMARK                            x       y       z     vdW  Elec       q    Type
REMARK                         _______ _______ _______ _____ _____    ______ ____
ROOT
ATOM      1  N   UNL     1       5.538   4.973  16.294  0.00  0.00    +0.000 NA
ATOM      2  N   UNL     1       5.423   4.395  15.193  0.00  0.00    +0.000 NA
ENDROOT
BRANCH   2   3
ATOM      3  C   UNL     1       6.441   4.685  14.267  0.00  0.00    +0.000 A 
ATOM      4  N   UNL     1       7.467   5.509  14.518  0.00  0.00    +0.000 NA
ATOM      5  N   UNL     1       8.179   5.479  13.382  0.00  0.00    +0.000 N 
ATOM      6  C   UNL     1       7.646   4.668  12.428  0.00  0.00    +0.000 A 
ATOM      7  C   UNL     1       6.488   4.130  12.963  0.00  0.00    +0.000 A 
ATOM      8  H   UNL     1       9.026   6.037  13.329  0.00  0.00    +0.000 HD
BRANCH   7   9
ATOM      9  C   UNL     1       5.611   3.215  12.264  0.00  0.00    +0.000 C 
ATOM     10  N   UNL     1       6.130   2.005  11.915  0.00  0.00    +0.000 N 
ATOM     11  O   UNL     1       4.447   3.487  11.984  0.00  0.00    +0.000 OA
ATOM     12  H   UNL     1       7.076   1.729  12.138  0.00  0.00    +0.000 HD
ATOM     13  H   UNL     1       5.522   1.354  11.437  0.00  0.00    +0.000 HD
ENDBRANCH   7   9
ENDBRANCH   2   3
BRANCH   1  15
ATOM     14  C   UNL     1       3.945   5.640  18.027  0.00  0.00    +0.000 C 
ATOM     15  N   UNL     1       4.559   4.609  17.199  0.00  0.00    +0.000 N 
BRANCH  15  16
ATOM     16  C   UNL     1       3.733   3.457  16.809  0.00  0.00    +0.000 C 
BRANCH  16  17
ATOM     17  C   UNL     1       3.771   2.310  17.828  0.00  0.00    +0.000 C 
BRANCH  17  18
ATOM     18  C   UNL     1       2.883   2.555  19.029  0.00  0.00    +0.000 A 
ATOM     19  C   UNL     1       3.409   2.519  20.328  0.00  0.00    +0.000 A 
ATOM     20  C   UNL     1       2.587   2.764  21.433  0.00  0.00    +0.000 A 
ATOM     21  C   UNL     1       1.234   3.041  21.251  0.00  0.00    +0.000 A 
ATOM     22  C   UNL     1       0.699   3.074  19.965  0.00  0.00    +0.000 A 
ATOM     23  C   UNL     1       1.519   2.832  18.860  0.00  0.00    +0.000 A 
ENDBRANCH  17  18
ENDBRANCH  16  17
ENDBRANCH  15  16
ENDBRANCH   1  15
TORSDOF 6
ENDMDL
MODEL 4
REMARK VINA RESULT:      -7.4      2.766      4.321
REMARK  Name = 
REMARK  7 active torsions:
REMARK  status: ('A' for Active; 'I' for Inactive)
REMARK    1  A    between atoms: C_1  and  N_2
REMARK    2  A    between atoms: N_2  and  C_3
REMARK    3  A    between atoms: N_2  and  N_11
REMARK    4  A    between atoms: C_3  and  C_4
REMARK    5  A    between atoms: C_4  and  C_5
REMARK    6  A    between atoms: N_12  and  C_13
REMARK    7  A    between atoms: C_17  and  C_18
REMARK                            x       y       z     vdW  Elec       q    Type
REMARK                         _______ _______ _______ _____ _____    ______ ____
ROOT
ATOM      1  N   UNL     1       5.156   3.787  19.782  0.00  0.00    +0.000 NA
ATOM      2  N   UNL     1       5.673   4.138  18.701  0.00  0.00    +0.000 NA
ENDROOT
BRANCH   2   3
ATOM      3  C   UNL     1       6.660   5.133  18.817  0.00  0.00    +0.000 A 
ATOM      4  N   UNL     1       7.369   5.356  19.931  0.00  0.00    +0.000 NA
ATOM      5  N   UNL     1       8.183   6.366  19.590  0.00  0.00    +0.000 N 
ATOM      6  C   UNL     1       8.018   6.785  18.305  0.00  0.00    +0.000 A 
ATOM      7  C   UNL     1       7.013   6.006  17.757  0.00  0.00    +0.000 A 
ATOM      8  H   UNL     1       8.832   6.719  20.285  0.00  0.00    +0.000 HD
BRANCH   7   9
ATOM      9  C   UNL     1       6.523   6.136  16.401  0.00  0.00    +0.000 C 
ATOM     10  N   UNL     1       7.290   5.602  15.411  0.00  0.00    +0.000 N 
ATOM     11  O   UNL     1       5.467   6.697  16.123  0.00  0.00    +0.000 OA
ATOM     12  H   UNL     1       8.159   5.117  15.591  0.00  0.00    +0.000 HD
ATOM     13  H   UNL     1       6.951   5.678  14.462  0.00  0.00    +0.000 HD
ENDBRANCH   7   9
ENDBRANCH   2   3
BRANCH   1  15
ATOM     14  C   UNL     1       3.616   2.197  20.825  0.00  0.00    +0.000 C 
ATOM     15  N   UNL     1       4.241   2.761  19.635  0.00  0.00    +0.000 N 
BRANCH  15  16
ATOM     16  C   UNL     1       3.457   2.786  18.391  0.00  0.00    +0.000 C 
BRANCH  16  17
ATOM     17  C   UNL     1       2.061   3.398  18.565  0.00  0.00    +0.000 C 
BRANCH  17  18
ATOM     18  C   UNL     1       2.100   4.869  18.918  0.00  0.00    +0.000 A 
ATOM     19  C   UNL     1       2.483   5.825  17.967  0.00  0.00    +0.000 A 
ATOM     20  C   UNL     1       2.499   7.185  18.294  0.00  0.00    +0.000 A 
ATOM     21  C   UNL     1       2.139   7.601  19.574  0.00  0.00    +0.000 A 
ATOM     22  C   UNL     1       1.762   6.659  20.530  0.00  0.00    +0.000 A 
ATOM     23  C   UNL     1       1.742   5.300  20.204  0.00  0.00    +0.000 A 
ENDBRANCH  17  18
ENDBRANCH  16  17
ENDBRANCH  15  16
ENDBRANCH   1  15
TORSDOF 6
ENDMDL
MODEL 5
REMARK VINA RESULT:      -7.4      3.569      4.780
REMARK  Name = 
REMARK  7 active torsions:
REMARK  status: ('A' for Active; 'I' for Inactive)
REMARK    1  A    between atoms: C_1  and  N_2
REMARK    2  A    between atoms: N_2  and  C_3
REMARK    3  A    between atoms: N_2  and  N_11
REMARK    4  A    between atoms: C_3  and  C_4
REMARK    5  A    between atoms: C_4  and  C_5
REMARK    6  A    between atoms: N_12  and  C_13
REMARK    7  A    between atoms: C_17  and  C_18
REMARK                            x       y       z     vdW  Elec       q    Type
REMARK                         _______ _______ _______ _____ _____    ______ ____
ROOT
ATOM      1  N   UNL     1       3.544   4.603  17.276  0.00  0.00    +0.000 NA
ATOM      2  N   UNL     1       4.222   3.790  16.614  0.00  0.00    +0.000 NA
ENDROOT
BRANCH   2   3
ATOM      3  C   UNL     1       5.349   4.342  15.980  0.00  0.00    +0.000 A 
ATOM      4  N   UNL     1       5.403   4.636  14.674  0.00  0.00    +0.000 NA
ATOM      5  N   UNL     1       6.635   5.140  14.515  0.00  0.00    +0.000 N 
ATOM      6  C   UNL     1       7.358   5.179  15.668  0.00  0.00    +0.000 A 
ATOM      7  C   UNL     1       6.553   4.650  16.663  0.00  0.00    +0.000 A 
ATOM      8  H   UNL     1       6.916   5.444  13.588  0.00  0.00    +0.000 HD
BRANCH   7   9
ATOM      9  C   UNL     1       6.951   4.503  18.046  0.00  0.00    +0.000 C 
ATOM     10  N   UNL     1       6.020   4.013  18.910  0.00  0.00    +0.000 N 
ATOM     11  O   UNL     1       8.071   4.797  18.455  0.00  0.00    +0.000 OA
ATOM     12  H   UNL     1       5.090   3.741  18.619  0.00  0.00    +0.000 HD
ATOM     13  H   UNL     1       6.292   3.895  19.877  0.00  0.00    +0.000 HD
ENDBRANCH   7   9
ENDBRANCH   2   3
BRANCH   1  15
ATOM     14  C   UNL     1       2.381   2.557  17.943  0.00  0.00    +0.000 C 
ATOM     15  N   UNL     1       2.487   4.010  17.940  0.00  0.00    +0.000 N 
BRANCH  15  16
ATOM     16  C   UNL     1       1.989   4.740  19.115  0.00  0.00    +0.000 C 
BRANCH  16  17
ATOM     17  C   UNL     1       2.901   5.897  19.544  0.00  0.00    +0.000 C 
BRANCH  17  18
ATOM     18  C   UNL     1       2.260   7.256  19.360  0.00  0.00    +0.000 A 
ATOM     19  C   UNL     1       1.635   7.905  20.434  0.00  0.00    +0.000 A 
ATOM     20  C   UNL     1       1.060   9.168  20.263  0.00  0.00    +0.000 A 
ATOM     21  C   UNL     1       1.098   9.791  19.017  0.00  0.00    +0.000 A 
ATOM     22  C   UNL     1       1.711   9.153  17.940  0.00  0.00    +0.000 A 
ATOM     23  C   UNL     1       2.288   7.892  18.111  0.00  0.00    +0.000 A 
ENDBRANCH  17  18
ENDBRANCH  16  17
ENDBRANCH  15  16
ENDBRANCH   1  15
TORSDOF 6
ENDMDL
MODEL 6
REMARK VINA RESULT:      -7.4      2.949      4.499
REMARK  Name = 
REMARK  7 active torsions:
REMARK  status: ('A' for Active; 'I' for Inactive)
REMARK    1  A    between atoms: C_1  and  N_2
REMARK    2  A    between atoms: N_2  and  C_3
REMARK    3  A    between atoms: N_2  and  N_11
REMARK    4  A    between atoms: C_3  and  C_4
REMARK    5  A    between atoms: C_4  and  C_5
REMARK    6  A    between atoms: N_12  and  C_13
REMARK    7  A    between atoms: C_17  and  C_18
REMARK                            x       y       z     vdW  Elec       q    Type
REMARK                         _______ _______ _______ _____ _____    ______ ____
ROOT
ATOM      1  N   UNL     1       4.839   3.366  19.496  0.00  0.00    +0.000 NA
ATOM      2  N   UNL     1       5.066   4.242  18.635  0.00  0.00    +0.000 NA
ENDROOT
BRANCH   2   3
ATOM      3  C   UNL     1       6.256   4.966  18.832  0.00  0.00    +0.000 A 
ATOM      4  N   UNL     1       6.882   5.069  20.011  0.00  0.00    +0.000 NA
ATOM      5  N   UNL     1       7.954   5.825  19.733  0.00  0.00    +0.000 N 
ATOM      6  C   UNL     1       8.029   6.201  18.427  0.00  0.00    +0.000 A 
ATOM      7  C   UNL     1       6.921   5.666  17.793  0.00  0.00    +0.000 A 
ATOM      8  H   UNL     1       8.598   6.045  20.487  0.00  0.00    +0.000 HD
BRANCH   7   9
ATOM      9  C   UNL     1       6.618   5.839  16.388  0.00  0.00    +0.000 C 
ATOM     10  N   UNL     1       5.334   6.157  16.066  0.00  0.00    +0.000 N 
ATOM     11  O   UNL     1       7.459   5.711  15.502  0.00  0.00    +0.000 OA
ATOM     12  H   UNL     1       4.610   6.289  16.759  0.00  0.00    +0.000 HD
ATOM     13  H   UNL     1       5.115   6.291  15.088  0.00  0.00    +0.000 HD
ENDBRANCH   7   9
ENDBRANCH   2   3
BRANCH   1  15
ATOM     14  C   UNL     1       3.812   1.422  18.424  0.00  0.00    +0.000 C 
ATOM     15  N   UNL     1       3.700   2.631  19.231  0.00  0.00    +0.000 N 
BRANCH  15  16
ATOM     16  C   UNL     1       2.665   2.669  20.275  0.00  0.00    +0.000 C 
BRANCH  16  17
ATOM     17  C   UNL     1       1.424   3.477  19.871  0.00  0.00    +0.000 C 
BRANCH  17  18
ATOM     18  C   UNL     1       1.734   4.928  19.574  0.00  0.00    +0.000 A 
ATOM     19  C   UNL     1       2.031   5.345  18.269  0.00  0.00    +0.000 A 
ATOM     20  C   UNL     1       2.299   6.690  17.997  0.00  0.00    +0.000 A 
ATOM     21  C   UNL     1       2.279   7.629  19.026  0.00  0.00    +0.000 A 
ATOM     22  C   UNL     1       1.991   7.226  20.328  0.00  0.00    +0.000 A 
ATOM     23  C   UNL     1       1.721   5.882  20.601  0.00  0.00    +0.000 A 
ENDBRANCH  17  18
ENDBRANCH  16  17
ENDBRANCH  15  16
ENDBRANCH   1  15
TORSDOF 6
ENDMDL
MODEL 7
REMARK VINA RESULT:      -7.4      3.481      7.725
REMARK  Name = 
REMARK  7 active torsions:
REMARK  status: ('A' for Active; 'I' for Inactive)
REMARK    1  A    between atoms: C_1  and  N_2
REMARK    2  A    between atoms: N_2  and  C_3
REMARK    3  A    between atoms: N_2  and  N_11
REMARK    4  A    between atoms: C_3  and  C_4
REMARK    5  A    between atoms: C_4  and  C_5
REMARK    6  A    between atoms: N_12  and  C_13
REMARK    7  A    between atoms: C_17  and  C_18
REMARK                            x       y       z     vdW  Elec       q    Type
REMARK                         _______ _______ _______ _____ _____    ______ ____
ROOT
ATOM      1  N   UNL     1       3.701   5.000  18.152  0.00  0.00    +0.000 NA
ATOM      2  N   UNL     1       3.814   3.789  18.436  0.00  0.00    +0.000 NA
ENDROOT
BRANCH   2   3
ATOM      3  C   UNL     1       2.598   3.126  18.677  0.00  0.00    +0.000 A 
ATOM      4  N   UNL     1       1.972   2.360  17.774  0.00  0.00    +0.000 NA
ATOM      5  N   UNL     1       0.881   1.932  18.426  0.00  0.00    +0.000 N 
ATOM      6  C   UNL     1       0.797   2.393  19.704  0.00  0.00    +0.000 A 
ATOM      7  C   UNL     1       1.905   3.197  19.912  0.00  0.00    +0.000 A 
ATOM      8  H   UNL     1       0.236   1.320  17.937  0.00  0.00    +0.000 HD
BRANCH   7   9
ATOM      9  C   UNL     1       2.190   3.893  21.149  0.00  0.00    +0.000 C 
ATOM     10  N   UNL     1       2.455   5.225  21.063  0.00  0.00    +0.000 N 
ATOM     11  O   UNL     1       2.202   3.334  22.243  0.00  0.00    +0.000 OA
ATOM     12  H   UNL     1       2.442   5.733  20.189  0.00  0.00    +0.000 HD
ATOM     13  H   UNL     1       2.645   5.723  21.923  0.00  0.00    +0.000 HD
ENDBRANCH   7   9
ENDBRANCH   2   3
BRANCH   1  15
ATOM     14  C   UNL     1       5.994   5.524  18.827  0.00  0.00    +0.000 C 
ATOM     15  N   UNL     1       4.911   5.600  17.855  0.00  0.00    +0.000 N 
BRANCH  15  16
ATOM     16  C   UNL     1       5.266   5.635  16.428  0.00  0.00    +0.000 C 
BRANCH  16  17
ATOM     17  C   UNL     1       6.466   4.745  16.079  0.00  0.00    +0.000 C 
BRANCH  17  18
ATOM     18  C   UNL     1       6.648   4.554  14.589  0.00  0.00    +0.000 A 
ATOM     19  C   UNL     1       7.591   5.310  13.879  0.00  0.00    +0.000 A 
ATOM     20  C   UNL     1       7.767   5.116  12.506  0.00  0.00    +0.000 A 
ATOM     21  C   UNL     1       6.999   4.172  11.828  0.00  0.00    +0.000 A 
ATOM     22  C   UNL     1       6.054   3.418  12.522  0.00  0.00    +0.000 A 
ATOM     23  C   UNL     1       5.879   3.609  13.895  0.00  0.00    +0.000 A 
ENDBRANCH  17  18
ENDBRANCH  16  17
ENDBRANCH  15  16
ENDBRANCH   1  15
TORSDOF 6
ENDMDL
MODEL 8
REMARK VINA RESULT:      -7.3      2.960      4.062
REMARK  Name = 
REMARK  7 active torsions:
REMARK  status: ('A' for Active; 'I' for Inactive)
REMARK    1  A    between atoms: C_1  and  N_2
REMARK    2  A    between atoms: N_2  and  C_3
REMARK    3  A    between atoms: N_2  and  N_11
REMARK    4  A    between atoms: C_3  and  C_4
REMARK    5  A    between atoms: C_4  and  C_5
REMARK    6  A    between atoms: N_12  and  C_13
REMARK    7  A    between atoms: C_17  and  C_18
REMARK                            x       y       z     vdW  Elec       q    Type
REMARK                         _______ _______ _______ _____ _____    ______ ____
ROOT
ATOM      1  N   UNL     1       3.614   6.992  17.295  0.00  0.00    +0.000 NA
ATOM      2  N   UNL     1       4.858   7.019  17.407  0.00  0.00    +0.000 NA
ENDROOT
BRANCH   2   3
ATOM      3  C   UNL     1       5.551   6.251  16.454  0.00  0.00    +0.000 A 
ATOM      4  N   UNL     1       5.468   6.446  15.132  0.00  0.00    +0.000 NA
ATOM      5  N   UNL     1       6.285   5.513  14.623  0.00  0.00    +0.000 N 
ATOM      6  C   UNL     1       6.881   4.740  15.571  0.00  0.00    +0.000 A 
ATOM      7  C   UNL     1       6.418   5.182  16.799  0.00  0.00    +0.000 A 
ATOM      8  H   UNL     1       6.392   5.463  13.615  0.00  0.00    +0.000 HD
BRANCH   7   9
ATOM      9  C   UNL     1       6.804   4.616  18.073  0.00  0.00    +0.000 C 
ATOM     10  N   UNL     1       5.849   3.935  18.763  0.00  0.00    +0.000 N 
ATOM     11  O   UNL     1       7.935   4.727  18.539  0.00  0.00    +0.000 OA
ATOM     12  H   UNL     1       4.909   3.802  18.415  0.00  0.00    +0.000 HD
ATOM     13  H   UNL     1       6.112   3.525  19.650  0.00  0.00    +0.000 HD
ENDBRANCH   7   9
ENDBRANCH   2   3
BRANCH   1  15
ATOM     14  C   UNL     1       2.392   9.065  17.737  0.00  0.00    +0.000 C 
ATOM     15  N   UNL     1       2.973   7.813  18.204  0.00  0.00    +0.000 N 
BRANCH  15  16
ATOM     16  C   UNL     1       2.315   7.124  19.324  0.00  0.00    +0.000 C 
BRANCH  16  17
ATOM     17  C   UNL     1       3.104   5.915  19.842  0.00  0.00    +0.000 C 
BRANCH  17  18
ATOM     18  C   UNL     1       2.314   4.626  19.792  0.00  0.00    +0.000 A 
ATOM     19  C   UNL     1       1.979   3.943  20.969  0.00  0.00    +0.000 A 
ATOM     20  C   UNL     1       1.233   2.762  20.918  0.00  0.00    +0.000 A 
ATOM     21  C   UNL     1       0.820   2.248  19.690  0.00  0.00    +0.000 A 
ATOM     22  C   UNL     1       1.152   2.914  18.512  0.00  0.00    +0.000 A 
ATOM     23  C   UNL     1       1.895   4.097  18.562  0.00  0.00    +0.000 A 
ENDBRANCH  17  18
ENDBRANCH  16  17
ENDBRANCH  15  16
ENDBRANCH   1  15
TORSDOF 6
ENDMDL
MODEL 9
REMARK VINA RESULT:      -7.3      2.877      4.098
REMARK  Name = 
REMARK  7 active torsions:
REMARK  status: ('A' for Active; 'I' for Inactive)
REMARK    1  A    between atoms: C_1  and  N_2
REMARK    2  A    between atoms: N_2  and  C_3
REMARK    3  A    between atoms: N_2  and  N_11
REMARK    4  A    between atoms: C_3  and  C_4
REMARK    5  A    between atoms: C_4  and  C_5
REMARK    6  A    between atoms: N_12  and  C_13
REMARK    7  A    between atoms: C_17  and  C_18
REMARK                            x       y       z     vdW  Elec       q    Type
REMARK                         _______ _______ _______ _____ _____    ______ ____
ROOT
ATOM      1  N   UNL     1       3.754   6.590  17.600  0.00  0.00    +0.000 NA
ATOM      2  N   UNL     1       4.882   7.029  17.293  0.00  0.00    +0.000 NA
ENDROOT
BRANCH   2   3
ATOM      3  C   UNL     1       5.608   6.214  16.406  0.00  0.00    +0.000 A 
ATOM      4  N   UNL     1       5.455   6.233  15.076  0.00  0.00    +0.000 NA
ATOM      5  N   UNL     1       6.338   5.323  14.643  0.00  0.00    +0.000 N 
ATOM      6  C   UNL     1       7.044   4.732  15.646  0.00  0.00    +0.000 A 
ATOM      7  C   UNL     1       6.588   5.281  16.833  0.00  0.00    +0.000 A 
ATOM      8  H   UNL     1       6.410   5.156  13.645  0.00  0.00    +0.000 HD
BRANCH   7   9
ATOM      9  C   UNL     1       7.077   4.917  18.145  0.00  0.00    +0.000 C 
ATOM     10  N   UNL     1       6.265   5.183  19.205  0.00  0.00    +0.000 N 
ATOM     11  O   UNL     1       8.171   4.390  18.328  0.00  0.00    +0.000 OA
ATOM     12  H   UNL     1       5.350   5.601  19.104  0.00  0.00    +0.000 HD
ATOM     13  H   UNL     1       6.593   4.922  20.125  0.00  0.00    +0.000 HD
ENDBRANCH   7   9
ENDBRANCH   2   3
BRANCH   1  15
ATOM     14  C   UNL     1       2.442   8.642  17.832  0.00  0.00    +0.000 C 
ATOM     15  N   UNL     1       3.044   7.451  18.417  0.00  0.00    +0.000 N 
BRANCH  15  16
ATOM     16  C   UNL     1       2.361   6.822  19.557  0.00  0.00    +0.000 C 
BRANCH  16  17
ATOM     17  C   UNL     1       3.059   5.550  20.058  0.00  0.00    +0.000 C 
BRANCH  17  18
ATOM     18  C   UNL     1       2.405   4.281  19.558  0.00  0.00    +0.000 A 
ATOM     19  C   UNL     1       3.045   3.468  18.613  0.00  0.00    +0.000 A 
ATOM     20  C   UNL     1       2.444   2.287  18.168  0.00  0.00    +0.000 A 
ATOM     21  C   UNL     1       1.195   1.909  18.659  0.00  0.00    +0.000 A 
ATOM     22  C   UNL     1       0.546   2.712  19.595  0.00  0.00    +0.000 A 
ATOM     23  C   UNL     1       1.147   3.892  20.042  0.00  0.00    +0.000 A 
ENDBRANCH  17  18
ENDBRANCH  16  17
ENDBRANCH  15  16
ENDBRANCH   1  15
TORSDOF 6
ENDMDL
