MODEL 1
REMARK VINA RESULT:      -6.9      0.000      0.000
REMARK  Name = 
REMARK  11 active torsions:
REMARK  status: ('A' for Active; 'I' for Inactive)
REMARK    1  A    between atoms: C_1  and  C_2
REMARK    2  A    between atoms: C_2  and  C_4
REMARK    3  A    between atoms: C_7  and  N_8
REMARK    4  A    between atoms: C_10  and  O_11
REMARK    5  A    between atoms: C_12  and  O_13
REMARK    6  A    between atoms: N_15  and  C_16
REMARK    7  A    between atoms: C_16  and  C_17
REMARK    8  A    between atoms: C_16  and  C_18
REMARK    9  A    between atoms: C_18  and  C_19
REMARK   10  A    between atoms: C_18  and  C_20
REMARK   11  A    between atoms: C_18  and  C_21
REMARK                            x       y       z     vdW  Elec       q    Type
REMARK                         _______ _______ _______ _____ _____    ______ ____
ROOT
ATOM      1  N   UNL     1       2.137   8.718  17.600  0.00  0.00    +0.000 NA
ATOM      2  C   UNL     1       2.548   7.780  18.381  0.00  0.00    +0.000 C 
ATOM      3  C   UNL     1       2.340   7.236  19.743  0.00  0.00    +0.000 C 
ATOM      4  C   UNL     1       3.139   6.162  19.475  0.00  0.00    +0.000 C 
ATOM      5  C   UNL     1       3.516   6.710  18.159  0.00  0.00    +0.000 C 
ATOM      6  N   UNL     1       4.317   6.446  17.191  0.00  0.00    +0.000 NA
ENDROOT
BRANCH   1  10
ATOM      7  C   UNL     1      -0.695  11.606  18.893  0.00  0.00    +0.000 A 
ATOM      8  C   UNL     1       0.677  11.817  19.043  0.00  0.00    +0.000 A 
ATOM      9  C   UNL     1       1.590  10.839  18.612  0.00  0.00    +0.000 A 
ATOM     10  C   UNL     1       1.164   9.650  18.003  0.00  0.00    +0.000 A 
ATOM     11  C   UNL     1      -0.207   9.504  17.767  0.00  0.00    +0.000 A 
ATOM     12  C   UNL     1      -1.130  10.442  18.247  0.00  0.00    +0.000 A 
BRANCH   7  14
ATOM     13  C   UNL     1      -3.179  12.147  19.404  0.00  0.00    +0.000 C 
ATOM     14  C   UNL     1      -1.732  12.570  19.375  0.00  0.00    +0.000 C 
ATOM     15  O   UNL     1      -1.392  13.689  19.749  0.00  0.00    +0.000 OA
ENDBRANCH   7  14
ENDBRANCH   1  10
BRANCH   3  16
ATOM     16  O   UNL     1       1.663   7.545  20.787  0.00  0.00    +0.000 OA
ATOM     17  H   UNL     1       1.503   8.506  20.804  0.00  0.00    +0.000 HD
ENDBRANCH   3  16
BRANCH   4  18
ATOM     18  O   UNL     1       3.471   5.125  20.150  0.00  0.00    +0.000 OA
ATOM     19  H   UNL     1       2.663   4.607  20.328  0.00  0.00    +0.000 HD
ENDBRANCH   4  18
BRANCH   6  20
ATOM     20  C   UNL     1       5.140   5.225  17.382  0.00  0.00    +0.000 C 
ATOM     21  C   UNL     1       4.430   4.056  16.686  0.00  0.00    +0.000 C 
BRANCH  20  22
ATOM     22  C   UNL     1       6.606   5.464  16.880  0.00  0.00    +0.000 C 
ATOM     23  C   UNL     1       7.003   6.938  17.107  0.00  0.00    +0.000 C 
ATOM     24  C   UNL     1       7.600   4.595  17.684  0.00  0.00    +0.000 C 
ATOM     25  C   UNL     1       6.779   5.135  15.386  0.00  0.00    +0.000 C 
ENDBRANCH  20  22
ENDBRANCH   6  20
TORSDOF 6
ENDMDL
MODEL 2
REMARK VINA RESULT:      -6.9      0.769      1.340
REMARK  Name = 
REMARK  11 active torsions:
REMARK  status: ('A' for Active; 'I' for Inactive)
REMARK    1  A    between atoms: C_1  and  C_2
REMARK    2  A    between atoms: C_2  and  C_4
REMARK    3  A    between atoms: C_7  and  N_8
REMARK    4  A    between atoms: C_10  and  O_11
REMARK    5  A    between atoms: C_12  and  O_13
REMARK    6  A    between atoms: N_15  and  C_16
REMARK    7  A    between atoms: C_16  and  C_17
REMARK    8  A    between atoms: C_16  and  C_18
REMARK    9  A    between atoms: C_18  and  C_19
REMARK   10  A    between atoms: C_18  and  C_20
REMARK   11  A    between atoms: C_18  and  C_21
REMARK                            x       y       z     vdW  Elec       q    Type
REMARK                         _______ _______ _______ _____ _____    ______ ____
ROOT
ATOM      1  N   UNL     1       2.024   8.741  17.730  0.00  0.00    +0.000 NA
ATOM      2  C   UNL     1       2.430   7.794  18.502  0.00  0.00    +0.000 C 
ATOM      3  C   UNL     1       2.229   7.246  19.863  0.00  0.00    +0.000 C 
ATOM      4  C   UNL     1       3.011   6.163  19.581  0.00  0.00    +0.000 C 
ATOM      5  C   UNL     1       3.381   6.713  18.264  0.00  0.00    +0.000 C 
ATOM      6  N   UNL     1       4.168   6.443  17.286  0.00  0.00    +0.000 NA
ENDROOT
BRANCH   1  10
ATOM      7  C   UNL     1      -0.758  11.656  19.075  0.00  0.00    +0.000 A 
ATOM      8  C   UNL     1       0.615  11.817  19.271  0.00  0.00    +0.000 A 
ATOM      9  C   UNL     1       1.511  10.831  18.821  0.00  0.00    +0.000 A 
ATOM     10  C   UNL     1       1.068   9.685  18.148  0.00  0.00    +0.000 A 
ATOM     11  C   UNL     1      -0.300   9.592  17.868  0.00  0.00    +0.000 A 
ATOM     12  C   UNL     1      -1.208  10.536  18.366  0.00  0.00    +0.000 A 
BRANCH   7  14
ATOM     13  C   UNL     1      -1.327  13.964  20.111  0.00  0.00    +0.000 C 
ATOM     14  C   UNL     1      -1.778  12.629  19.571  0.00  0.00    +0.000 C 
ATOM     15  O   UNL     1      -2.969  12.336  19.526  0.00  0.00    +0.000 OA
ENDBRANCH   7  14
ENDBRANCH   1  10
BRANCH   3  16
ATOM     16  O   UNL     1       1.568   7.559  20.916  0.00  0.00    +0.000 OA
ATOM     17  H   UNL     1       0.837   8.159  20.680  0.00  0.00    +0.000 HD
ENDBRANCH   3  16
BRANCH   4  18
ATOM     18  O   UNL     1       3.336   5.117  20.247  0.00  0.00    +0.000 OA
ATOM     19  H   UNL     1       4.300   5.140  20.398  0.00  0.00    +0.000 HD
ENDBRANCH   4  18
BRANCH   6  20
ATOM     20  C   UNL     1       4.977   5.210  17.462  0.00  0.00    +0.000 C 
ATOM     21  C   UNL     1       4.822   4.353  16.198  0.00  0.00    +0.000 C 
BRANCH  20  22
ATOM     22  C   UNL     1       6.464   5.570  17.804  0.00  0.00    +0.000 C 
ATOM     23  C   UNL     1       7.417   4.591  17.085  0.00  0.00    +0.000 C 
ATOM     24  C   UNL     1       6.804   6.992  17.300  0.00  0.00    +0.000 C 
ATOM     25  C   UNL     1       6.753   5.513  19.315  0.00  0.00    +0.000 C 
ENDBRANCH  20  22
ENDBRANCH   6  20
TORSDOF 6
ENDMDL
MODEL 3
REMARK VINA RESULT:      -6.8      0.833      1.494
REMARK  Name = 
REMARK  11 active torsions:
REMARK  status: ('A' for Active; 'I' for Inactive)
REMARK    1  A    between atoms: C_1  and  C_2
REMARK    2  A    between atoms: C_2  and  C_4
REMARK    3  A    between atoms: C_7  and  N_8
REMARK    4  A    between atoms: C_10  and  O_11
REMARK    5  A    between atoms: C_12  and  O_13
REMARK    6  A    between atoms: N_15  and  C_16
REMARK    7  A    between atoms: C_16  and  C_17
REMARK    8  A    between atoms: C_16  and  C_18
REMARK    9  A    between atoms: C_18  and  C_19
REMARK   10  A    between atoms: C_18  and  C_20
REMARK   11  A    between atoms: C_18  and  C_21
REMARK                            x       y       z     vdW  Elec       q    Type
REMARK                         _______ _______ _______ _____ _____    ______ ____
ROOT
ATOM      1  N   UNL     1       1.994   8.723  17.840  0.00  0.00    +0.000 NA
ATOM      2  C   UNL     1       2.412   7.753  18.577  0.00  0.00    +0.000 C 
ATOM      3  C   UNL     1       2.212   7.149  19.914  0.00  0.00    +0.000 C 
ATOM      4  C   UNL     1       3.014   6.091  19.596  0.00  0.00    +0.000 C 
ATOM      5  C   UNL     1       3.384   6.698  18.304  0.00  0.00    +0.000 C 
ATOM      6  N   UNL     1       4.181   6.480  17.322  0.00  0.00    +0.000 NA
ENDROOT
BRANCH   1  10
ATOM      7  C   UNL     1      -1.041  11.422  19.082  0.00  0.00    +0.000 A 
ATOM      8  C   UNL     1      -1.309  10.396  18.175  0.00  0.00    +0.000 A 
ATOM      9  C   UNL     1      -0.281   9.522  17.777  0.00  0.00    +0.000 A 
ATOM     10  C   UNL     1       1.019   9.632  18.288  0.00  0.00    +0.000 A 
ATOM     11  C   UNL     1       1.242  10.599  19.273  0.00  0.00    +0.000 A 
ATOM     12  C   UNL     1       0.244  11.515  19.631  0.00  0.00    +0.000 A 
BRANCH   7  14
ATOM     13  C   UNL     1      -1.612  13.696  20.190  0.00  0.00    +0.000 C 
ATOM     14  C   UNL     1      -2.062  12.426  19.512  0.00  0.00    +0.000 C 
ATOM     15  O   UNL     1      -3.252  12.209  19.300  0.00  0.00    +0.000 OA
ENDBRANCH   7  14
ENDBRANCH   1  10
BRANCH   3  16
ATOM     16  O   UNL     1       1.539   7.408  20.974  0.00  0.00    +0.000 OA
ATOM     17  H   UNL     1       1.880   6.881  21.719  0.00  0.00    +0.000 HD
ENDBRANCH   3  16
BRANCH   4  18
ATOM     18  O   UNL     1       3.353   5.026  20.223  0.00  0.00    +0.000 OA
ATOM     19  H   UNL     1       2.568   4.451  20.292  0.00  0.00    +0.000 HD
ENDBRANCH   4  18
BRANCH   6  20
ATOM     20  C   UNL     1       5.010   5.256  17.455  0.00  0.00    +0.000 C 
ATOM     21  C   UNL     1       4.839   4.422  16.178  0.00  0.00    +0.000 C 
BRANCH  20  22
ATOM     22  C   UNL     1       6.499   5.629  17.773  0.00  0.00    +0.000 C 
ATOM     23  C   UNL     1       6.751   5.529  19.292  0.00  0.00    +0.000 C 
ATOM     24  C   UNL     1       7.463   4.636  17.084  0.00  0.00    +0.000 C 
ATOM     25  C   UNL     1       6.863   7.052  17.309  0.00  0.00    +0.000 C 
ENDBRANCH  20  22
ENDBRANCH   6  20
TORSDOF 6
ENDMDL
MODEL 4
REMARK VINA RESULT:      -6.8      0.305      1.029
REMARK  Name = 
REMARK  11 active torsions:
REMARK  status: ('A' for Active; 'I' for Inactive)
REMARK    1  A    between atoms: C_1  and  C_2
REMARK    2  A    between atoms: C_2  and  C_4
REMARK    3  A    between atoms: C_7  and  N_8
REMARK    4  A    between atoms: C_10  and  O_11
REMARK    5  A    between atoms: C_12  and  O_13
REMARK    6  A    between atoms: N_15  and  C_16
REMARK    7  A    between atoms: C_16  and  C_17
REMARK    8  A    between atoms: C_16  and  C_18
REMARK    9  A    between atoms: C_18  and  C_19
REMARK   10  A    between atoms: C_18  and  C_20
REMARK   11  A    between atoms: C_18  and  C_21
REMARK                            x       y       z     vdW  Elec       q    Type
REMARK                         _______ _______ _______ _____ _____    ______ ____
ROOT
ATOM      1  N   UNL     1       1.995   8.717  17.775  0.00  0.00    +0.000 NA
ATOM      2  C   UNL     1       2.427   7.766  18.527  0.00  0.00    +0.000 C 
ATOM      3  C   UNL     1       2.243   7.187  19.877  0.00  0.00    +0.000 C 
ATOM      4  C   UNL     1       3.053   6.130  19.573  0.00  0.00    +0.000 C 
ATOM      5  C   UNL     1       3.406   6.715  18.267  0.00  0.00    +0.000 C 
ATOM      6  N   UNL     1       4.198   6.485  17.283  0.00  0.00    +0.000 NA
ENDROOT
BRANCH   1  10
ATOM      7  C   UNL     1      -1.057  11.410  18.989  0.00  0.00    +0.000 A 
ATOM      8  C   UNL     1      -1.330  10.341  18.133  0.00  0.00    +0.000 A 
ATOM      9  C   UNL     1      -0.297   9.471  17.743  0.00  0.00    +0.000 A 
ATOM     10  C   UNL     1       1.015   9.626  18.212  0.00  0.00    +0.000 A 
ATOM     11  C   UNL     1       1.246  10.638  19.150  0.00  0.00    +0.000 A 
ATOM     12  C   UNL     1       0.240  11.549  19.498  0.00  0.00    +0.000 A 
BRANCH   7  14
ATOM     13  C   UNL     1      -3.546  12.115  19.169  0.00  0.00    +0.000 C 
ATOM     14  C   UNL     1      -2.086  12.411  19.407  0.00  0.00    +0.000 C 
ATOM     15  O   UNL     1      -1.732  13.455  19.946  0.00  0.00    +0.000 OA
ENDBRANCH   7  14
ENDBRANCH   1  10
BRANCH   3  16
ATOM     16  O   UNL     1       1.575   7.461  20.937  0.00  0.00    +0.000 OA
ATOM     17  H   UNL     1       2.014   7.069  21.714  0.00  0.00    +0.000 HD
ENDBRANCH   3  16
BRANCH   4  18
ATOM     18  O   UNL     1       3.406   5.081  20.219  0.00  0.00    +0.000 OA
ATOM     19  H   UNL     1       4.005   4.562  19.650  0.00  0.00    +0.000 HD
ENDBRANCH   4  18
BRANCH   6  20
ATOM     20  C   UNL     1       5.039   5.271  17.434  0.00  0.00    +0.000 C 
ATOM     21  C   UNL     1       4.338   4.112  16.713  0.00  0.00    +0.000 C 
BRANCH  20  22
ATOM     22  C   UNL     1       6.497   5.543  16.926  0.00  0.00    +0.000 C 
ATOM     23  C   UNL     1       6.879   7.014  17.195  0.00  0.00    +0.000 C 
ATOM     24  C   UNL     1       7.510   4.661  17.693  0.00  0.00    +0.000 C 
ATOM     25  C   UNL     1       6.659   5.263  15.421  0.00  0.00    +0.000 C 
ENDBRANCH  20  22
ENDBRANCH   6  20
TORSDOF 6
ENDMDL
MODEL 5
REMARK VINA RESULT:      -6.7      0.782      1.531
REMARK  Name = 
REMARK  11 active torsions:
REMARK  status: ('A' for Active; 'I' for Inactive)
REMARK    1  A    between atoms: C_1  and  C_2
REMARK    2  A    between atoms: C_2  and  C_4
REMARK    3  A    between atoms: C_7  and  N_8
REMARK    4  A    between atoms: C_10  and  O_11
REMARK    5  A    between atoms: C_12  and  O_13
REMARK    6  A    between atoms: N_15  and  C_16
REMARK    7  A    between atoms: C_16  and  C_17
REMARK    8  A    between atoms: C_16  and  C_18
REMARK    9  A    between atoms: C_18  and  C_19
REMARK   10  A    between atoms: C_18  and  C_20
REMARK   11  A    between atoms: C_18  and  C_21
REMARK                            x       y       z     vdW  Elec       q    Type
REMARK                         _______ _______ _______ _____ _____    ______ ____
ROOT
ATOM      1  N   UNL     1       1.846   8.745  17.925  0.00  0.00    +0.000 NA
ATOM      2  C   UNL     1       2.292   7.788  18.662  0.00  0.00    +0.000 C 
ATOM      3  C   UNL     1       2.128   7.191  20.006  0.00  0.00    +0.000 C 
ATOM      4  C   UNL     1       2.941   6.144  19.681  0.00  0.00    +0.000 C 
ATOM      5  C   UNL     1       3.276   6.747  18.378  0.00  0.00    +0.000 C 
ATOM      6  N   UNL     1       4.058   6.534  17.382  0.00  0.00    +0.000 NA
ENDROOT
BRANCH   1  10
ATOM      7  C   UNL     1      -1.200  11.422  19.191  0.00  0.00    +0.000 A 
ATOM      8  C   UNL     1      -1.425  10.496  18.171  0.00  0.00    +0.000 A 
ATOM      9  C   UNL     1      -0.394   9.628  17.769  0.00  0.00    +0.000 A 
ATOM     10  C   UNL     1       0.865   9.643  18.385  0.00  0.00    +0.000 A 
ATOM     11  C   UNL     1       1.037  10.503  19.474  0.00  0.00    +0.000 A 
ATOM     12  C   UNL     1       0.040  11.416  19.842  0.00  0.00    +0.000 A 
BRANCH   7  14
ATOM     13  C   UNL     1      -1.775  13.675  20.339  0.00  0.00    +0.000 C 
ATOM     14  C   UNL     1      -2.223  12.416  19.639  0.00  0.00    +0.000 C 
ATOM     15  O   UNL     1      -3.412  12.202  19.423  0.00  0.00    +0.000 OA
ENDBRANCH   7  14
ENDBRANCH   1  10
BRANCH   3  16
ATOM     16  O   UNL     1       1.470   7.448  21.077  0.00  0.00    +0.000 OA
ATOM     17  H   UNL     1       0.677   7.972  20.859  0.00  0.00    +0.000 HD
ENDBRANCH   3  16
BRANCH   4  18
ATOM     18  O   UNL     1       3.308   5.089  20.309  0.00  0.00    +0.000 OA
ATOM     19  H   UNL     1       3.802   4.522  19.688  0.00  0.00    +0.000 HD
ENDBRANCH   4  18
BRANCH   6  20
ATOM     20  C   UNL     1       4.909   5.324  17.509  0.00  0.00    +0.000 C 
ATOM     21  C   UNL     1       4.134   4.133  16.928  0.00  0.00    +0.000 C 
BRANCH  20  22
ATOM     22  C   UNL     1       6.306   5.559  16.837  0.00  0.00    +0.000 C 
ATOM     23  C   UNL     1       6.165   5.490  15.302  0.00  0.00    +0.000 C 
ATOM     24  C   UNL     1       6.841   6.967  17.184  0.00  0.00    +0.000 C 
ATOM     25  C   UNL     1       7.355   4.522  17.279  0.00  0.00    +0.000 C 
ENDBRANCH  20  22
ENDBRANCH   6  20
TORSDOF 6
ENDMDL
MODEL 6
REMARK VINA RESULT:      -6.5      2.975      3.824
REMARK  Name = 
REMARK  11 active torsions:
REMARK  status: ('A' for Active; 'I' for Inactive)
REMARK    1  A    between atoms: C_1  and  C_2
REMARK    2  A    between atoms: C_2  and  C_4
REMARK    3  A    between atoms: C_7  and  N_8
REMARK    4  A    between atoms: C_10  and  O_11
REMARK    5  A    between atoms: C_12  and  O_13
REMARK    6  A    between atoms: N_15  and  C_16
REMARK    7  A    between atoms: C_16  and  C_17
REMARK    8  A    between atoms: C_16  and  C_18
REMARK    9  A    between atoms: C_18  and  C_19
REMARK   10  A    between atoms: C_18  and  C_20
REMARK   11  A    between atoms: C_18  and  C_21
REMARK                            x       y       z     vdW  Elec       q    Type
REMARK                         _______ _______ _______ _____ _____    ______ ____
ROOT
ATOM      1  N   UNL     1       1.305   8.492  21.211  0.00  0.00    +0.000 NA
ATOM      2  C   UNL     1       1.651   8.368  19.977  0.00  0.00    +0.000 C 
ATOM      3  C   UNL     1       1.556   9.066  18.675  0.00  0.00    +0.000 C 
ATOM      4  C   UNL     1       2.392   8.160  18.087  0.00  0.00    +0.000 C 
ATOM      5  C   UNL     1       2.419   7.326  19.302  0.00  0.00    +0.000 C 
ATOM      6  N   UNL     1       2.877   6.191  19.690  0.00  0.00    +0.000 NA
ENDROOT
BRANCH   1  10
ATOM      7  C   UNL     1      -0.990  11.750  22.679  0.00  0.00    +0.000 A 
ATOM      8  C   UNL     1      -1.118  10.470  23.221  0.00  0.00    +0.000 A 
ATOM      9  C   UNL     1      -0.349   9.410  22.708  0.00  0.00    +0.000 A 
ATOM     10  C   UNL     1       0.575   9.602  21.672  0.00  0.00    +0.000 A 
ATOM     11  C   UNL     1       0.764  10.910  21.215  0.00  0.00    +0.000 A 
ATOM     12  C   UNL     1      -0.040  11.963  21.673  0.00  0.00    +0.000 A 
BRANCH   7  14
ATOM     13  C   UNL     1      -3.307  12.775  23.231  0.00  0.00    +0.000 C 
ATOM     14  C   UNL     1      -1.809  12.917  23.128  0.00  0.00    +0.000 C 
ATOM     15  O   UNL     1      -1.254  13.973  23.418  0.00  0.00    +0.000 OA
ENDBRANCH   7  14
ENDBRANCH   1  10
BRANCH   3  16
ATOM     16  O   UNL     1       0.995  10.121  18.210  0.00  0.00    +0.000 OA
ATOM     17  H   UNL     1       0.033   9.981  18.144  0.00  0.00    +0.000 HD
ENDBRANCH   3  16
BRANCH   4  18
ATOM     18  O   UNL     1       2.891   8.060  16.911  0.00  0.00    +0.000 OA
ATOM     19  H   UNL     1       3.142   8.954  16.610  0.00  0.00    +0.000 HD
ENDBRANCH   4  18
BRANCH   6  20
ATOM     20  C   UNL     1       3.625   5.436  18.653  0.00  0.00    +0.000 C 
ATOM     21  C   UNL     1       5.080   5.297  19.121  0.00  0.00    +0.000 C 
BRANCH  20  22
ATOM     22  C   UNL     1       2.923   4.066  18.353  0.00  0.00    +0.000 C 
ATOM     23  C   UNL     1       3.840   3.192  17.472  0.00  0.00    +0.000 C 
ATOM     24  C   UNL     1       2.675   3.289  19.667  0.00  0.00    +0.000 C 
ATOM     25  C   UNL     1       1.573   4.240  17.635  0.00  0.00    +0.000 C 
ENDBRANCH  20  22
ENDBRANCH   6  20
TORSDOF 6
ENDMDL
MODEL 7
REMARK VINA RESULT:      -6.5      1.005      1.181
REMARK  Name = 
REMARK  11 active torsions:
REMARK  status: ('A' for Active; 'I' for Inactive)
REMARK    1  A    between atoms: C_1  and  C_2
REMARK    2  A    between atoms: C_2  and  C_4
REMARK    3  A    between atoms: C_7  and  N_8
REMARK    4  A    between atoms: C_10  and  O_11
REMARK    5  A    between atoms: C_12  and  O_13
REMARK    6  A    between atoms: N_15  and  C_16
REMARK    7  A    between atoms: C_16  and  C_17
REMARK    8  A    between atoms: C_16  and  C_18
REMARK    9  A    between atoms: C_18  and  C_19
REMARK   10  A    between atoms: C_18  and  C_20
REMARK   11  A    between atoms: C_18  and  C_21
REMARK                            x       y       z     vdW  Elec       q    Type
REMARK                         _______ _______ _______ _____ _____    ______ ____
ROOT
ATOM      1  N   UNL     1       1.821   8.868  17.866  0.00  0.00    +0.000 NA
ATOM      2  C   UNL     1       2.177   7.929  18.672  0.00  0.00    +0.000 C 
ATOM      3  C   UNL     1       2.059   7.516  20.089  0.00  0.00    +0.000 C 
ATOM      4  C   UNL     1       2.646   6.312  19.824  0.00  0.00    +0.000 C 
ATOM      5  C   UNL     1       2.937   6.705  18.434  0.00  0.00    +0.000 C 
ATOM      6  N   UNL     1       3.562   6.253  17.407  0.00  0.00    +0.000 NA
ENDROOT
BRANCH   1  10
ATOM      7  C   UNL     1      -0.354  12.264  19.199  0.00  0.00    +0.000 A 
ATOM      8  C   UNL     1       1.028  12.317  19.005  0.00  0.00    +0.000 A 
ATOM      9  C   UNL     1       1.721  11.173  18.570  0.00  0.00    +0.000 A 
ATOM     10  C   UNL     1       1.059   9.969  18.295  0.00  0.00    +0.000 A 
ATOM     11  C   UNL     1      -0.336   9.966  18.395  0.00  0.00    +0.000 A 
ATOM     12  C   UNL     1      -1.031  11.079  18.887  0.00  0.00    +0.000 A 
BRANCH   7  14
ATOM     13  C   UNL     1      -0.651  14.822  19.501  0.00  0.00    +0.000 C 
ATOM     14  C   UNL     1      -1.156  13.416  19.713  0.00  0.00    +0.000 C 
ATOM     15  O   UNL     1      -2.218  13.207  20.290  0.00  0.00    +0.000 OA
ENDBRANCH   7  14
ENDBRANCH   1  10
BRANCH   3  16
ATOM     16  O   UNL     1       1.572   7.998  21.172  0.00  0.00    +0.000 OA
ATOM     17  H   UNL     1       2.254   7.999  21.869  0.00  0.00    +0.000 HD
ENDBRANCH   3  16
BRANCH   4  18
ATOM     18  O   UNL     1       2.897   5.281  20.543  0.00  0.00    +0.000 OA
ATOM     19  H   UNL     1       3.798   5.374  20.905  0.00  0.00    +0.000 HD
ENDBRANCH   4  18
BRANCH   6  20
ATOM     20  C   UNL     1       4.207   4.930  17.607  0.00  0.00    +0.000 C 
ATOM     21  C   UNL     1       3.253   3.849  17.080  0.00  0.00    +0.000 C 
BRANCH  20  22
ATOM     22  C   UNL     1       5.625   4.902  16.940  0.00  0.00    +0.000 C 
ATOM     23  C   UNL     1       5.902   6.251  16.243  0.00  0.00    +0.000 C 
ATOM     24  C   UNL     1       6.722   4.709  18.013  0.00  0.00    +0.000 C 
ATOM     25  C   UNL     1       5.766   3.776  15.900  0.00  0.00    +0.000 C 
ENDBRANCH  20  22
ENDBRANCH   6  20
TORSDOF 6
ENDMDL
MODEL 8
REMARK VINA RESULT:      -6.3      1.068      1.549
REMARK  Name = 
REMARK  11 active torsions:
REMARK  status: ('A' for Active; 'I' for Inactive)
REMARK    1  A    between atoms: C_1  and  C_2
REMARK    2  A    between atoms: C_2  and  C_4
REMARK    3  A    between atoms: C_7  and  N_8
REMARK    4  A    between atoms: C_10  and  O_11
REMARK    5  A    between atoms: C_12  and  O_13
REMARK    6  A    between atoms: N_15  and  C_16
REMARK    7  A    between atoms: C_16  and  C_17
REMARK    8  A    between atoms: C_16  and  C_18
REMARK    9  A    between atoms: C_18  and  C_19
REMARK   10  A    between atoms: C_18  and  C_20
REMARK   11  A    between atoms: C_18  and  C_21
REMARK                            x       y       z     vdW  Elec       q    Type
REMARK                         _______ _______ _______ _____ _____    ______ ____
ROOT
ATOM      1  N   UNL     1       1.479   9.069  18.177  0.00  0.00    +0.000 NA
ATOM      2  C   UNL     1       1.919   8.125  18.933  0.00  0.00    +0.000 C 
ATOM      3  C   UNL     1       1.895   7.665  20.340  0.00  0.00    +0.000 C 
ATOM      4  C   UNL     1       2.521   6.498  20.008  0.00  0.00    +0.000 C 
ATOM      5  C   UNL     1       2.719   6.945  18.617  0.00  0.00    +0.000 C 
ATOM      6  N   UNL     1       3.308   6.552  17.546  0.00  0.00    +0.000 NA
ENDROOT
BRANCH   1  10
ATOM      7  C   UNL     1      -1.008  12.203  19.604  0.00  0.00    +0.000 A 
ATOM      8  C   UNL     1      -1.523  11.164  18.826  0.00  0.00    +0.000 A 
ATOM      9  C   UNL     1      -0.673  10.145  18.362  0.00  0.00    +0.000 A 
ATOM     10  C   UNL     1       0.692  10.121  18.680  0.00  0.00    +0.000 A 
ATOM     11  C   UNL     1       1.168  11.111  19.546  0.00  0.00    +0.000 A 
ATOM     12  C   UNL     1       0.345  12.166  19.963  0.00  0.00    +0.000 A 
BRANCH   7  14
ATOM     13  C   UNL     1      -3.258  13.112  20.517  0.00  0.00    +0.000 C 
ATOM     14  C   UNL     1      -1.832  13.352  20.088  0.00  0.00    +0.000 C 
ATOM     15  O   UNL     1      -1.336  14.474  20.141  0.00  0.00    +0.000 OA
ENDBRANCH   7  14
ENDBRANCH   1  10
BRANCH   3  16
ATOM     16  O   UNL     1       1.445   8.091  21.463  0.00  0.00    +0.000 OA
ATOM     17  H   UNL     1       0.489   8.269  21.389  0.00  0.00    +0.000 HD
ENDBRANCH   3  16
BRANCH   4  18
ATOM     18  O   UNL     1       2.855   5.459  20.679  0.00  0.00    +0.000 OA
ATOM     19  H   UNL     1       3.781   5.241  20.462  0.00  0.00    +0.000 HD
ENDBRANCH   4  18
BRANCH   6  20
ATOM     20  C   UNL     1       4.021   5.256  17.670  0.00  0.00    +0.000 C 
ATOM     21  C   UNL     1       3.026   4.131  17.351  0.00  0.00    +0.000 C 
BRANCH  20  22
ATOM     22  C   UNL     1       5.302   5.242  16.766  0.00  0.00    +0.000 C 
ATOM     23  C   UNL     1       5.270   6.443  15.796  0.00  0.00    +0.000 C 
ATOM     24  C   UNL     1       6.575   5.388  17.632  0.00  0.00    +0.000 C 
ATOM     25  C   UNL     1       5.428   3.949  15.940  0.00  0.00    +0.000 C 
ENDBRANCH  20  22
ENDBRANCH   6  20
TORSDOF 6
ENDMDL
MODEL 9
REMARK VINA RESULT:      -6.3      1.202      1.865
REMARK  Name = 
REMARK  11 active torsions:
REMARK  status: ('A' for Active; 'I' for Inactive)
REMARK    1  A    between atoms: C_1  and  C_2
REMARK    2  A    between atoms: C_2  and  C_4
REMARK    3  A    between atoms: C_7  and  N_8
REMARK    4  A    between atoms: C_10  and  O_11
REMARK    5  A    between atoms: C_12  and  O_13
REMARK    6  A    between atoms: N_15  and  C_16
REMARK    7  A    between atoms: C_16  and  C_17
REMARK    8  A    between atoms: C_16  and  C_18
REMARK    9  A    between atoms: C_18  and  C_19
REMARK   10  A    between atoms: C_18  and  C_20
REMARK   11  A    between atoms: C_18  and  C_21
REMARK                            x       y       z     vdW  Elec       q    Type
REMARK                         _______ _______ _______ _____ _____    ______ ____
ROOT
ATOM      1  N   UNL     1       1.621   9.109  18.184  0.00  0.00    +0.000 NA
ATOM      2  C   UNL     1       1.963   8.149  18.972  0.00  0.00    +0.000 C 
ATOM      3  C   UNL     1       1.874   7.730  20.389  0.00  0.00    +0.000 C 
ATOM      4  C   UNL     1       2.402   6.505  20.097  0.00  0.00    +0.000 C 
ATOM      5  C   UNL     1       2.664   6.898  18.700  0.00  0.00    +0.000 C 
ATOM      6  N   UNL     1       3.237   6.429  17.651  0.00  0.00    +0.000 NA
ENDROOT
BRANCH   1  10
ATOM      7  C   UNL     1      -0.630  12.443  19.548  0.00  0.00    +0.000 A 
ATOM      8  C   UNL     1      -1.232  11.203  19.325  0.00  0.00    +0.000 A 
ATOM      9  C   UNL     1      -0.461  10.119  18.866  0.00  0.00    +0.000 A 
ATOM     10  C   UNL     1       0.918  10.236  18.646  0.00  0.00    +0.000 A 
ATOM     11  C   UNL     1       1.520  11.455  18.975  0.00  0.00    +0.000 A 
ATOM     12  C   UNL     1       0.755  12.559  19.373  0.00  0.00    +0.000 A 
BRANCH   7  14
ATOM     13  C   UNL     1      -0.784  15.022  19.764  0.00  0.00    +0.000 C 
ATOM     14  C   UNL     1      -1.387  13.657  19.982  0.00  0.00    +0.000 C 
ATOM     15  O   UNL     1      -2.493  13.529  20.499  0.00  0.00    +0.000 OA
ENDBRANCH   7  14
ENDBRANCH   1  10
BRANCH   3  16
ATOM     16  O   UNL     1       1.441   8.221  21.491  0.00  0.00    +0.000 OA
ATOM     17  H   UNL     1       1.080   9.113  21.336  0.00  0.00    +0.000 HD
ENDBRANCH   3  16
BRANCH   4  18
ATOM     18  O   UNL     1       2.633   5.458  20.799  0.00  0.00    +0.000 OA
ATOM     19  H   UNL     1       3.236   4.880  20.295  0.00  0.00    +0.000 HD
ENDBRANCH   4  18
BRANCH   6  20
ATOM     20  C   UNL     1       3.833   5.080  17.821  0.00  0.00    +0.000 C 
ATOM     21  C   UNL     1       2.789   4.039  17.393  0.00  0.00    +0.000 C 
BRANCH  20  22
ATOM     22  C   UNL     1       5.189   4.973  17.039  0.00  0.00    +0.000 C 
ATOM     23  C   UNL     1       6.353   4.792  18.035  0.00  0.00    +0.000 C 
ATOM     24  C   UNL     1       5.182   3.734  16.114  0.00  0.00    +0.000 C 
ATOM     25  C   UNL     1       5.471   6.216  16.175  0.00  0.00    +0.000 C 
ENDBRANCH  20  22
ENDBRANCH   6  20
TORSDOF 6
ENDMDL
