MODEL 1
REMARK VINA RESULT:      -8.0      0.000      0.000
REMARK  Name = 
REMARK  2 active torsions:
REMARK  status: ('A' for Active; 'I' for Inactive)
REMARK    1  A    between atoms: O_1  and  C_2
REMARK    2  A    between atoms: C_16  and  O_17
REMARK                            x       y       z     vdW  Elec       q    Type
REMARK                         _______ _______ _______ _____ _____    ______ ____
ROOT
ATOM      1  C   UNL     1       7.056   5.169  14.580  0.00  0.00    +0.000 A 
ATOM      2  C   UNL     1       5.942   4.358  14.333  0.00  0.00    +0.000 A 
ATOM      3  C   UNL     1       4.916   4.280  15.282  0.00  0.00    +0.000 A 
ATOM      4  C   UNL     1       5.041   4.969  16.493  0.00  0.00    +0.000 A 
ATOM      5  C   UNL     1       6.225   5.689  16.766  0.00  0.00    +0.000 A 
ATOM      6  C   UNL     1       7.189   5.853  15.784  0.00  0.00    +0.000 A 
ATOM      7  C   UNL     1       6.426   6.140  18.192  0.00  0.00    +0.000 C 
ATOM      8  C   UNL     1       6.022   4.993  19.163  0.00  0.00    +0.000 C 
ATOM      9  C   UNL     1       4.686   4.395  18.781  0.00  0.00    +0.000 C 
ATOM     10  C   UNL     1       4.115   4.745  17.610  0.00  0.00    +0.000 C 
ATOM     11  C   UNL     1       2.700   5.281  17.648  0.00  0.00    +0.000 C 
ATOM     12  C   UNL     1       2.348   5.739  19.111  0.00  0.00    +0.000 C 
ATOM     13  C   UNL     1       2.608   4.580  20.042  0.00  0.00    +0.000 A 
ATOM     14  C   UNL     1       1.721   4.134  21.018  0.00  0.00    +0.000 A 
ATOM     15  C   UNL     1       1.950   2.896  21.624  0.00  0.00    +0.000 A 
ATOM     16  C   UNL     1       3.047   2.111  21.280  0.00  0.00    +0.000 A 
ATOM     17  C   UNL     1       3.990   2.605  20.378  0.00  0.00    +0.000 A 
ATOM     18  C   UNL     1       3.796   3.862  19.805  0.00  0.00    +0.000 A 
ENDROOT
BRANCH   1  19
ATOM     19  O   UNL     1       8.067   5.278  13.677  0.00  0.00    +0.000 OA
ATOM     20  H   UNL     1       8.827   4.768  13.996  0.00  0.00    +0.000 HD
ENDBRANCH   1  19
BRANCH  15  21
ATOM     21  O   UNL     1       1.085   2.388  22.553  0.00  0.00    +0.000 OA
ATOM     22  H   UNL     1       0.306   2.964  22.593  0.00  0.00    +0.000 HD
ENDBRANCH  15  21
TORSDOF 2
ENDMDL
MODEL 2
REMARK VINA RESULT:      -7.8      0.164      6.634
REMARK  Name = 
REMARK  2 active torsions:
REMARK  status: ('A' for Active; 'I' for Inactive)
REMARK    1  A    between atoms: O_1  and  C_2
REMARK    2  A    between atoms: C_16  and  O_17
REMARK                            x       y       z     vdW  Elec       q    Type
REMARK                         _______ _______ _______ _____ _____    ______ ____
ROOT
ATOM      1  C   UNL     1       1.873   2.966  21.544  0.00  0.00    +0.000 A 
ATOM      2  C   UNL     1       3.025   2.201  21.330  0.00  0.00    +0.000 A 
ATOM      3  C   UNL     1       4.051   2.703  20.522  0.00  0.00    +0.000 A 
ATOM      4  C   UNL     1       3.891   3.941  19.891  0.00  0.00    +0.000 A 
ATOM      5  C   UNL     1       2.674   4.643  20.033  0.00  0.00    +0.000 A 
ATOM      6  C   UNL     1       1.705   4.196  20.917  0.00  0.00    +0.000 A 
ATOM      7  C   UNL     1       2.449   5.800  19.089  0.00  0.00    +0.000 C 
ATOM      8  C   UNL     1       2.906   5.400  17.657  0.00  0.00    +0.000 C 
ATOM      9  C   UNL     1       4.270   4.746  17.677  0.00  0.00    +0.000 C 
ATOM     10  C   UNL     1       4.826   4.412  18.860  0.00  0.00    +0.000 C 
ATOM     11  C   UNL     1       6.213   4.937  19.162  0.00  0.00    +0.000 C 
ATOM     12  C   UNL     1       6.540   6.143  18.206  0.00  0.00    +0.000 C 
ATOM     13  C   UNL     1       6.335   5.683  16.782  0.00  0.00    +0.000 A 
ATOM     14  C   UNL     1       7.240   5.890  15.745  0.00  0.00    +0.000 A 
ATOM     15  C   UNL     1       7.070   5.187  14.550  0.00  0.00    +0.000 A 
ATOM     16  C   UNL     1       6.012   4.298  14.375  0.00  0.00    +0.000 A 
ATOM     17  C   UNL     1       5.048   4.171  15.375  0.00  0.00    +0.000 A 
ATOM     18  C   UNL     1       5.183   4.907  16.553  0.00  0.00    +0.000 A 
ENDROOT
BRANCH   1  19
ATOM     19  O   UNL     1       0.859   2.515  22.331  0.00  0.00    +0.000 OA
ATOM     20  H   UNL     1       1.079   2.699  23.257  0.00  0.00    +0.000 HD
ENDBRANCH   1  19
BRANCH  15  21
ATOM     21  O   UNL     1       7.957   5.314  13.517  0.00  0.00    +0.000 OA
ATOM     22  H   UNL     1       8.562   4.556  13.539  0.00  0.00    +0.000 HD
ENDBRANCH  15  21
TORSDOF 2
ENDMDL
MODEL 3
REMARK VINA RESULT:      -7.5      1.212      6.657
REMARK  Name = 
REMARK  2 active torsions:
REMARK  status: ('A' for Active; 'I' for Inactive)
REMARK    1  A    between atoms: O_1  and  C_2
REMARK    2  A    between atoms: C_16  and  O_17
REMARK                            x       y       z     vdW  Elec       q    Type
REMARK                         _______ _______ _______ _____ _____    ______ ____
ROOT
ATOM      1  C   UNL     1       1.389   2.839  21.456  0.00  0.00    +0.000 A 
ATOM      2  C   UNL     1       2.729   3.106  21.761  0.00  0.00    +0.000 A 
ATOM      3  C   UNL     1       3.517   3.824  20.855  0.00  0.00    +0.000 A 
ATOM      4  C   UNL     1       2.973   4.220  19.628  0.00  0.00    +0.000 A 
ATOM      5  C   UNL     1       1.653   3.843  19.297  0.00  0.00    +0.000 A 
ATOM      6  C   UNL     1       0.842   3.226  20.237  0.00  0.00    +0.000 A 
ATOM      7  C   UNL     1       1.241   4.026  17.856  0.00  0.00    +0.000 C 
ATOM      8  C   UNL     1       2.395   3.564  16.922  0.00  0.00    +0.000 C 
ATOM      9  C   UNL     1       3.724   4.135  17.365  0.00  0.00    +0.000 C 
ATOM     10  C   UNL     1       3.808   4.770  18.552  0.00  0.00    +0.000 C 
ATOM     11  C   UNL     1       4.371   6.175  18.562  0.00  0.00    +0.000 C 
ATOM     12  C   UNL     1       4.329   6.771  17.107  0.00  0.00    +0.000 C 
ATOM     13  C   UNL     1       5.043   5.811  16.185  0.00  0.00    +0.000 A 
ATOM     14  C   UNL     1       6.008   6.180  15.252  0.00  0.00    +0.000 A 
ATOM     15  C   UNL     1       6.787   5.184  14.658  0.00  0.00    +0.000 A 
ATOM     16  C   UNL     1       6.610   3.839  14.971  0.00  0.00    +0.000 A 
ATOM     17  C   UNL     1       5.573   3.464  15.827  0.00  0.00    +0.000 A 
ATOM     18  C   UNL     1       4.758   4.447  16.387  0.00  0.00    +0.000 A 
ENDROOT
BRANCH   1  19
ATOM     19  O   UNL     1       0.589   2.153  22.316  0.00  0.00    +0.000 OA
ATOM     20  H   UNL     1       0.256   2.767  22.989  0.00  0.00    +0.000 HD
ENDBRANCH   1  19
BRANCH  15  21
ATOM     21  O   UNL     1       7.782   5.493  13.773  0.00  0.00    +0.000 OA
ATOM     22  H   UNL     1       8.529   5.863  14.269  0.00  0.00    +0.000 HD
ENDBRANCH  15  21
TORSDOF 2
ENDMDL
MODEL 4
REMARK VINA RESULT:      -6.9      2.435      3.346
REMARK  Name = 
REMARK  2 active torsions:
REMARK  status: ('A' for Active; 'I' for Inactive)
REMARK    1  A    between atoms: O_1  and  C_2
REMARK    2  A    between atoms: C_16  and  O_17
REMARK                            x       y       z     vdW  Elec       q    Type
REMARK                         _______ _______ _______ _____ _____    ______ ____
ROOT
ATOM      1  C   UNL     1       8.142   8.028  18.157  0.00  0.00    +0.000 A 
ATOM      2  C   UNL     1       8.267   6.897  18.971  0.00  0.00    +0.000 A 
ATOM      3  C   UNL     1       7.301   5.886  18.906  0.00  0.00    +0.000 A 
ATOM      4  C   UNL     1       6.192   6.043  18.069  0.00  0.00    +0.000 A 
ATOM      5  C   UNL     1       6.031   7.242  17.342  0.00  0.00    +0.000 A 
ATOM      6  C   UNL     1       7.040   8.193  17.325  0.00  0.00    +0.000 A 
ATOM      7  C   UNL     1       4.678   7.475  16.714  0.00  0.00    +0.000 C 
ATOM      8  C   UNL     1       3.562   7.067  17.717  0.00  0.00    +0.000 C 
ATOM      9  C   UNL     1       3.843   5.714  18.334  0.00  0.00    +0.000 C 
ATOM     10  C   UNL     1       5.042   5.131  18.128  0.00  0.00    +0.000 C 
ATOM     11  C   UNL     1       5.055   3.726  17.564  0.00  0.00    +0.000 C 
ATOM     12  C   UNL     1       3.658   3.406  16.914  0.00  0.00    +0.000 C 
ATOM     13  C   UNL     1       2.588   3.661  17.948  0.00  0.00    +0.000 A 
ATOM     14  C   UNL     1       1.550   2.783  18.246  0.00  0.00    +0.000 A 
ATOM     15  C   UNL     1       0.792   3.000  19.399  0.00  0.00    +0.000 A 
ATOM     16  C   UNL     1       1.046   4.078  20.243  0.00  0.00    +0.000 A 
ATOM     17  C   UNL     1       2.018   5.014  19.888  0.00  0.00    +0.000 A 
ATOM     18  C   UNL     1       2.747   4.833  18.713  0.00  0.00    +0.000 A 
ENDROOT
BRANCH   1  19
ATOM     19  O   UNL     1       9.066   9.026  18.185  0.00  0.00    +0.000 OA
ATOM     20  H   UNL     1       8.626   9.864  17.974  0.00  0.00    +0.000 HD
ENDBRANCH   1  19
BRANCH  15  21
ATOM     21  O   UNL     1      -0.207   2.142  19.766  0.00  0.00    +0.000 OA
ATOM     22  H   UNL     1      -0.418   1.575  19.008  0.00  0.00    +0.000 HD
ENDBRANCH  15  21
TORSDOF 2
ENDMDL
MODEL 5
REMARK VINA RESULT:      -6.3      2.452      6.052
REMARK  Name = 
REMARK  2 active torsions:
REMARK  status: ('A' for Active; 'I' for Inactive)
REMARK    1  A    between atoms: O_1  and  C_2
REMARK    2  A    between atoms: C_16  and  O_17
REMARK                            x       y       z     vdW  Elec       q    Type
REMARK                         _______ _______ _______ _____ _____    ______ ____
ROOT
ATOM      1  C   UNL     1       1.166   2.446  18.728  0.00  0.00    +0.000 A 
ATOM      2  C   UNL     1       1.179   3.539  19.602  0.00  0.00    +0.000 A 
ATOM      3  C   UNL     1       2.008   4.633  19.334  0.00  0.00    +0.000 A 
ATOM      4  C   UNL     1       2.859   4.600  18.224  0.00  0.00    +0.000 A 
ATOM      5  C   UNL     1       2.910   3.440  17.420  0.00  0.00    +0.000 A 
ATOM      6  C   UNL     1       2.012   2.404  17.625  0.00  0.00    +0.000 A 
ATOM      7  C   UNL     1       4.057   3.347  16.443  0.00  0.00    +0.000 C 
ATOM      8  C   UNL     1       5.367   3.824  17.131  0.00  0.00    +0.000 C 
ATOM      9  C   UNL     1       5.159   5.128  17.869  0.00  0.00    +0.000 C 
ATOM     10  C   UNL     1       3.907   5.608  18.021  0.00  0.00    +0.000 C 
ATOM     11  C   UNL     1       3.633   7.022  17.554  0.00  0.00    +0.000 C 
ATOM     12  C   UNL     1       4.772   7.483  16.571  0.00  0.00    +0.000 C 
ATOM     13  C   UNL     1       6.098   7.295  17.268  0.00  0.00    +0.000 A 
ATOM     14  C   UNL     1       7.106   8.253  17.323  0.00  0.00    +0.000 A 
ATOM     15  C   UNL     1       8.163   8.071  18.218  0.00  0.00    +0.000 A 
ATOM     16  C   UNL     1       8.231   6.951  19.043  0.00  0.00    +0.000 A 
ATOM     17  C   UNL     1       7.276   5.943  18.913  0.00  0.00    +0.000 A 
ATOM     18  C   UNL     1       6.244   6.092  17.986  0.00  0.00    +0.000 A 
ENDROOT
BRANCH   1  19
ATOM     19  O   UNL     1       0.365   1.370  18.950  0.00  0.00    +0.000 OA
ATOM     20  H   UNL     1      -0.156   1.199  18.151  0.00  0.00    +0.000 HD
ENDBRANCH   1  19
BRANCH  15  21
ATOM     21  O   UNL     1       9.154   9.004  18.349  0.00  0.00    +0.000 OA
ATOM     22  H   UNL     1       9.011   9.488  19.177  0.00  0.00    +0.000 HD
ENDBRANCH  15  21
TORSDOF 2
ENDMDL
MODEL 6
REMARK VINA RESULT:      -6.2      9.704     12.490
REMARK  Name = 
REMARK  2 active torsions:
REMARK  status: ('A' for Active; 'I' for Inactive)
REMARK    1  A    between atoms: O_1  and  C_2
REMARK    2  A    between atoms: C_16  and  O_17
REMARK                            x       y       z     vdW  Elec       q    Type
REMARK                         _______ _______ _______ _____ _____    ______ ____
ROOT
ATOM      1  C   UNL     1       7.883  14.189  26.014  0.00  0.00    +0.000 A 
ATOM      2  C   UNL     1       8.810  15.116  25.524  0.00  0.00    +0.000 A 
ATOM      3  C   UNL     1       9.135  15.119  24.163  0.00  0.00    +0.000 A 
ATOM      4  C   UNL     1       8.573  14.158  23.316  0.00  0.00    +0.000 A 
ATOM      5  C   UNL     1       7.727  13.163  23.855  0.00  0.00    +0.000 A 
ATOM      6  C   UNL     1       7.323  13.228  25.179  0.00  0.00    +0.000 A 
ATOM      7  C   UNL     1       7.412  11.989  22.960  0.00  0.00    +0.000 C 
ATOM      8  C   UNL     1       8.704  11.536  22.220  0.00  0.00    +0.000 C 
ATOM      9  C   UNL     1       9.439  12.716  21.623  0.00  0.00    +0.000 C 
ATOM     10  C   UNL     1       9.046  13.967  21.938  0.00  0.00    +0.000 C 
ATOM     11  C   UNL     1       8.721  14.912  20.801  0.00  0.00    +0.000 C 
ATOM     12  C   UNL     1       8.480  14.088  19.483  0.00  0.00    +0.000 C 
ATOM     13  C   UNL     1       9.687  13.212  19.249  0.00  0.00    +0.000 A 
ATOM     14  C   UNL     1      10.357  13.094  18.035  0.00  0.00    +0.000 A 
ATOM     15  C   UNL     1      11.610  12.475  18.012  0.00  0.00    +0.000 A 
ATOM     16  C   UNL     1      12.190  11.967  19.171  0.00  0.00    +0.000 A 
ATOM     17  C   UNL     1      11.472  11.993  20.367  0.00  0.00    +0.000 A 
ATOM     18  C   UNL     1      10.200  12.565  20.390  0.00  0.00    +0.000 A 
ENDROOT
BRANCH   1  19
ATOM     19  O   UNL     1       7.534  14.162  27.328  0.00  0.00    +0.000 OA
ATOM     20  H   UNL     1       6.600  14.410  27.408  0.00  0.00    +0.000 HD
ENDBRANCH   1  19
BRANCH  15  21
ATOM     21  O   UNL     1      12.333  12.377  16.856  0.00  0.00    +0.000 OA
ATOM     22  H   UNL     1      12.856  13.187  16.753  0.00  0.00    +0.000 HD
ENDBRANCH  15  21
TORSDOF 2
ENDMDL
MODEL 7
REMARK VINA RESULT:      -6.2      9.799     11.079
REMARK  Name = 
REMARK  2 active torsions:
REMARK  status: ('A' for Active; 'I' for Inactive)
REMARK    1  A    between atoms: O_1  and  C_2
REMARK    2  A    between atoms: C_16  and  O_17
REMARK                            x       y       z     vdW  Elec       q    Type
REMARK                         _______ _______ _______ _____ _____    ______ ____
ROOT
ATOM      1  C   UNL     1      11.657  12.555  17.761  0.00  0.00    +0.000 A 
ATOM      2  C   UNL     1      12.219  11.968  18.900  0.00  0.00    +0.000 A 
ATOM      3  C   UNL     1      11.487  11.927  20.092  0.00  0.00    +0.000 A 
ATOM      4  C   UNL     1      10.223  12.524  20.148  0.00  0.00    +0.000 A 
ATOM      5  C   UNL     1       9.725  13.208  19.017  0.00  0.00    +0.000 A 
ATOM      6  C   UNL     1      10.403  13.154  17.810  0.00  0.00    +0.000 A 
ATOM      7  C   UNL     1       8.516  14.085  19.238  0.00  0.00    +0.000 C 
ATOM      8  C   UNL     1       8.685  14.880  20.565  0.00  0.00    +0.000 C 
ATOM      9  C   UNL     1       9.133  13.978  21.694  0.00  0.00    +0.000 C 
ATOM     10  C   UNL     1       9.511  12.713  21.419  0.00  0.00    +0.000 C 
ATOM     11  C   UNL     1       8.827  11.592  22.172  0.00  0.00    +0.000 C 
ATOM     12  C   UNL     1       7.489  12.123  22.806  0.00  0.00    +0.000 C 
ATOM     13  C   UNL     1       7.813  13.338  23.641  0.00  0.00    +0.000 A 
ATOM     14  C   UNL     1       7.365  13.548  24.942  0.00  0.00    +0.000 A 
ATOM     15  C   UNL     1       7.949  14.564  25.702  0.00  0.00    +0.000 A 
ATOM     16  C   UNL     1       8.957  15.372  25.182  0.00  0.00    +0.000 A 
ATOM     17  C   UNL     1       9.332  15.229  23.846  0.00  0.00    +0.000 A 
ATOM     18  C   UNL     1       8.719  14.250  23.064  0.00  0.00    +0.000 A 
ENDROOT
BRANCH   1  19
ATOM     19  O   UNL     1      12.333  12.604  16.582  0.00  0.00    +0.000 OA
ATOM     20  H   UNL     1      13.158  12.103  16.675  0.00  0.00    +0.000 HD
ENDBRANCH   1  19
BRANCH  15  21
ATOM     21  O   UNL     1       7.582  14.782  27.001  0.00  0.00    +0.000 OA
ATOM     22  H   UNL     1       7.564  15.739  27.157  0.00  0.00    +0.000 HD
ENDBRANCH  15  21
TORSDOF 2
ENDMDL
MODEL 8
REMARK VINA RESULT:      -6.1     10.770     12.762
REMARK  Name = 
REMARK  2 active torsions:
REMARK  status: ('A' for Active; 'I' for Inactive)
REMARK    1  A    between atoms: O_1  and  C_2
REMARK    2  A    between atoms: C_16  and  O_17
REMARK                            x       y       z     vdW  Elec       q    Type
REMARK                         _______ _______ _______ _____ _____    ______ ____
ROOT
ATOM      1  C   UNL     1      -3.317  10.495  15.808  0.00  0.00    +0.000 A 
ATOM      2  C   UNL     1      -3.014   9.749  16.953  0.00  0.00    +0.000 A 
ATOM      3  C   UNL     1      -3.841   9.838  18.078  0.00  0.00    +0.000 A 
ATOM      4  C   UNL     1      -4.931  10.715  18.067  0.00  0.00    +0.000 A 
ATOM      5  C   UNL     1      -5.151  11.539  16.942  0.00  0.00    +0.000 A 
ATOM      6  C   UNL     1      -4.397  11.372  15.791  0.00  0.00    +0.000 A 
ATOM      7  C   UNL     1      -6.138  12.669  17.116  0.00  0.00    +0.000 C 
ATOM      8  C   UNL     1      -5.911  13.351  18.495  0.00  0.00    +0.000 C 
ATOM      9  C   UNL     1      -5.790  12.327  19.602  0.00  0.00    +0.000 C 
ATOM     10  C   UNL     1      -5.693  11.020  19.286  0.00  0.00    +0.000 C 
ATOM     11  C   UNL     1      -6.685  10.065  19.916  0.00  0.00    +0.000 C 
ATOM     12  C   UNL     1      -7.915  10.874  20.471  0.00  0.00    +0.000 C 
ATOM     13  C   UNL     1      -7.395  11.945  21.398  0.00  0.00    +0.000 A 
ATOM     14  C   UNL     1      -7.899  12.206  22.668  0.00  0.00    +0.000 A 
ATOM     15  C   UNL     1      -7.166  13.026  23.530  0.00  0.00    +0.000 A 
ATOM     16  C   UNL     1      -5.955  13.592  23.140  0.00  0.00    +0.000 A 
ATOM     17  C   UNL     1      -5.503  13.414  21.832  0.00  0.00    +0.000 A 
ATOM     18  C   UNL     1      -6.253  12.637  20.949  0.00  0.00    +0.000 A 
ENDROOT
BRANCH   1  19
ATOM     19  O   UNL     1      -2.543  10.427  14.692  0.00  0.00    +0.000 OA
ATOM     20  H   UNL     1      -1.639  10.689  14.923  0.00  0.00    +0.000 HD
ENDBRANCH   1  19
BRANCH  15  21
ATOM     21  O   UNL     1      -7.590  13.276  24.806  0.00  0.00    +0.000 OA
ATOM     22  H   UNL     1      -8.430  13.759  24.760  0.00  0.00    +0.000 HD
ENDBRANCH  15  21
TORSDOF 2
ENDMDL
MODEL 9
REMARK VINA RESULT:      -6.0      3.479      5.143
REMARK  Name = 
REMARK  2 active torsions:
REMARK  status: ('A' for Active; 'I' for Inactive)
REMARK    1  A    between atoms: O_1  and  C_2
REMARK    2  A    between atoms: C_16  and  O_17
REMARK                            x       y       z     vdW  Elec       q    Type
REMARK                         _______ _______ _______ _____ _____    ______ ____
ROOT
ATOM      1  C   UNL     1       3.470   1.938  18.157  0.00  0.00    +0.000 A 
ATOM      2  C   UNL     1       2.116   2.218  17.936  0.00  0.00    +0.000 A 
ATOM      3  C   UNL     1       1.673   3.545  17.933  0.00  0.00    +0.000 A 
ATOM      4  C   UNL     1       2.578   4.576  18.207  0.00  0.00    +0.000 A 
ATOM      5  C   UNL     1       3.914   4.261  18.538  0.00  0.00    +0.000 A 
ATOM      6  C   UNL     1       4.374   2.958  18.435  0.00  0.00    +0.000 A 
ATOM      7  C   UNL     1       4.745   5.378  19.122  0.00  0.00    +0.000 C 
ATOM      8  C   UNL     1       3.898   6.171  20.158  0.00  0.00    +0.000 C 
ATOM      9  C   UNL     1       2.529   6.508  19.607  0.00  0.00    +0.000 C 
ATOM     10  C   UNL     1       2.132   5.956  18.442  0.00  0.00    +0.000 C 
ATOM     11  C   UNL     1       1.667   6.886  17.342  0.00  0.00    +0.000 C 
ATOM     12  C   UNL     1       2.172   8.346  17.639  0.00  0.00    +0.000 C 
ATOM     13  C   UNL     1       1.714   8.730  19.025  0.00  0.00    +0.000 A 
ATOM     14  C   UNL     1       1.091   9.932  19.349  0.00  0.00    +0.000 A 
ATOM     15  C   UNL     1       0.471  10.057  20.595  0.00  0.00    +0.000 A 
ATOM     16  C   UNL     1       0.475   9.013  21.516  0.00  0.00    +0.000 A 
ATOM     17  C   UNL     1       1.188   7.849  21.232  0.00  0.00    +0.000 A 
ATOM     18  C   UNL     1       1.852   7.733  20.010  0.00  0.00    +0.000 A 
ENDROOT
BRANCH   1  19
ATOM     19  O   UNL     1       3.939   0.662  18.157  0.00  0.00    +0.000 OA
ATOM     20  H   UNL     1       4.394   0.497  17.317  0.00  0.00    +0.000 HD
ENDBRANCH   1  19
BRANCH  15  21
ATOM     21  O   UNL     1      -0.197  11.197  20.945  0.00  0.00    +0.000 OA
ATOM     22  H   UNL     1      -1.141  11.068  20.759  0.00  0.00    +0.000 HD
ENDBRANCH  15  21
TORSDOF 2
ENDMDL
