MODEL 1
REMARK VINA RESULT:      -8.0      0.000      0.000
REMARK  Name = 
REMARK  7 active torsions:
REMARK  status: ('A' for Active; 'I' for Inactive)
REMARK    1  A    between atoms: C_1  and  O_2
REMARK    2  A    between atoms: O_2  and  C_3
REMARK    3  A    between atoms: C_6  and  C_7
REMARK    4  A    between atoms: N_9  and  N_10
REMARK    5  A    between atoms: C_11  and  C_13
REMARK    6  A    between atoms: C_17  and  S_18
REMARK    7  A    between atoms: S_18  and  N_21
REMARK                            x       y       z     vdW  Elec       q    Type
REMARK                         _______ _______ _______ _____ _____    ______ ____
ROOT
ATOM      1  N   UNL     1       7.855   8.347  17.444  0.00  0.00    +0.000 N 
ATOM      2  C   UNL     1       7.774   7.083  18.005  0.00  0.00    +0.000 C 
ATOM      3  O   UNL     1       8.390   6.798  19.034  0.00  0.00    +0.000 OA
ATOM      4  H   UNL     1       7.332   8.686  16.641  0.00  0.00    +0.000 HD
ENDROOT
BRANCH   2   5
ATOM      5  C   UNL     1       6.912   6.049  17.348  0.00  0.00    +0.000 A 
ATOM      6  C   UNL     1       6.880   5.856  15.958  0.00  0.00    +0.000 A 
ATOM      7  C   UNL     1       6.047   4.879  15.400  0.00  0.00    +0.000 A 
ATOM      8  C   UNL     1       5.241   4.091  16.221  0.00  0.00    +0.000 A 
ATOM      9  C   UNL     1       5.261   4.277  17.609  0.00  0.00    +0.000 A 
ATOM     10  C   UNL     1       6.096   5.245  18.175  0.00  0.00    +0.000 A 
BRANCH   9  11
ATOM     11  S   UNL     1       4.118   3.296  18.561  0.00  0.00    +0.000 S 
ATOM     12  O   UNL     1       3.610   2.297  17.644  0.00  0.00    +0.000 OA
ATOM     13  O   UNL     1       4.807   2.917  19.775  0.00  0.00    +0.000 OA
BRANCH  11  14
ATOM     14  N   UNL     1       2.821   4.319  18.981  0.00  0.00    +0.000 NA
ATOM     15  C   UNL     1       2.761   4.793  20.403  0.00  0.00    +0.000 C 
ATOM     16  C   UNL     1       2.154   3.730  21.334  0.00  0.00    +0.000 C 
ATOM     17  O   UNL     1       0.863   3.296  20.880  0.00  0.00    +0.000 OA
ATOM     18  C   UNL     1       0.927   2.776  19.543  0.00  0.00    +0.000 C 
ATOM     19  C   UNL     1       1.460   3.832  18.570  0.00  0.00    +0.000 C 
ENDBRANCH  11  14
ENDBRANCH   9  11
ENDBRANCH   2   5
BRANCH   1  22
ATOM     20  C   UNL     1       8.365  10.653  17.921  0.00  0.00    +0.000 C 
ATOM     21  O   UNL     1       7.486  11.030  17.147  0.00  0.00    +0.000 OA
ATOM     22  N   UNL     1       8.624   9.310  18.125  0.00  0.00    +0.000 N 
ATOM     23  H   UNL     1       9.321   8.931  18.758  0.00  0.00    +0.000 HD
BRANCH  20  27
ATOM     24  C   UNL     1      10.731  13.610  20.027  0.00  0.00    +0.000 A 
ATOM     25  C   UNL     1      10.329  13.806  18.707  0.00  0.00    +0.000 A 
ATOM     26  C   UNL     1       9.558  12.841  18.044  0.00  0.00    +0.000 A 
ATOM     27  C   UNL     1       9.191  11.649  18.687  0.00  0.00    +0.000 A 
ATOM     28  C   UNL     1       9.618  11.450  20.008  0.00  0.00    +0.000 A 
ATOM     29  C   UNL     1      10.383  12.424  20.671  0.00  0.00    +0.000 A 
BRANCH  24  31
ATOM     30  C   UNL     1      10.804  15.493  21.463  0.00  0.00    +0.000 C 
ATOM     31  O   UNL     1      11.481  14.617  20.569  0.00  0.00    +0.000 OA
ENDBRANCH  24  31
ENDBRANCH  20  27
ENDBRANCH   1  22
TORSDOF 6
ENDMDL
MODEL 2
REMARK VINA RESULT:      -7.9      5.899      8.229
REMARK  Name = 
REMARK  7 active torsions:
REMARK  status: ('A' for Active; 'I' for Inactive)
REMARK    1  A    between atoms: C_1  and  O_2
REMARK    2  A    between atoms: O_2  and  C_3
REMARK    3  A    between atoms: C_6  and  C_7
REMARK    4  A    between atoms: N_9  and  N_10
REMARK    5  A    between atoms: C_11  and  C_13
REMARK    6  A    between atoms: C_17  and  S_18
REMARK    7  A    between atoms: S_18  and  N_21
REMARK                            x       y       z     vdW  Elec       q    Type
REMARK                         _______ _______ _______ _____ _____    ______ ____
ROOT
ATOM      1  N   UNL     1       1.341   8.273  21.427  0.00  0.00    +0.000 N 
ATOM      2  C   UNL     1       1.751   7.771  20.202  0.00  0.00    +0.000 C 
ATOM      3  O   UNL     1       1.782   8.483  19.196  0.00  0.00    +0.000 OA
ATOM      4  H   UNL     1       1.348   7.780  22.315  0.00  0.00    +0.000 HD
ENDROOT
BRANCH   2   5
ATOM      5  C   UNL     1       2.174   6.337  20.109  0.00  0.00    +0.000 A 
ATOM      6  C   UNL     1       1.659   5.336  20.946  0.00  0.00    +0.000 A 
ATOM      7  C   UNL     1       2.099   4.013  20.817  0.00  0.00    +0.000 A 
ATOM      8  C   UNL     1       3.054   3.681  19.857  0.00  0.00    +0.000 A 
ATOM      9  C   UNL     1       3.578   4.672  19.018  0.00  0.00    +0.000 A 
ATOM     10  C   UNL     1       3.139   5.994  19.135  0.00  0.00    +0.000 A 
BRANCH   9  11
ATOM     11  S   UNL     1       4.870   4.168  17.899  0.00  0.00    +0.000 S 
ATOM     12  O   UNL     1       6.090   4.200  18.678  0.00  0.00    +0.000 OA
ATOM     13  O   UNL     1       4.418   2.949  17.266  0.00  0.00    +0.000 OA
BRANCH  11  14
ATOM     14  N   UNL     1       4.988   5.378  16.704  0.00  0.00    +0.000 NA
ATOM     15  C   UNL     1       5.444   4.947  15.342  0.00  0.00    +0.000 C 
ATOM     16  C   UNL     1       6.974   4.804  15.271  0.00  0.00    +0.000 C 
ATOM     17  O   UNL     1       7.643   6.005  15.684  0.00  0.00    +0.000 OA
ATOM     18  C   UNL     1       7.262   6.384  17.015  0.00  0.00    +0.000 C 
ATOM     19  C   UNL     1       5.750   6.608  17.109  0.00  0.00    +0.000 C 
ENDBRANCH  11  14
ENDBRANCH   9  11
ENDBRANCH   2   5
BRANCH   1  22
ATOM     20  C   UNL     1      -0.115  10.037  22.185  0.00  0.00    +0.000 C 
ATOM     21  O   UNL     1      -0.847   9.222  22.744  0.00  0.00    +0.000 OA
ATOM     22  N   UNL     1       1.012   9.641  21.489  0.00  0.00    +0.000 N 
ATOM     23  H   UNL     1       1.666  10.260  21.020  0.00  0.00    +0.000 HD
BRANCH  20  27
ATOM     24  C   UNL     1      -1.066  14.255  22.474  0.00  0.00    +0.000 A 
ATOM     25  C   UNL     1      -1.737  13.304  23.241  0.00  0.00    +0.000 A 
ATOM     26  C   UNL     1      -1.411  11.944  23.139  0.00  0.00    +0.000 A 
ATOM     27  C   UNL     1      -0.417  11.509  22.249  0.00  0.00    +0.000 A 
ATOM     28  C   UNL     1       0.238  12.470  21.465  0.00  0.00    +0.000 A 
ATOM     29  C   UNL     1      -0.086  13.833  21.577  0.00  0.00    +0.000 A 
BRANCH  24  31
ATOM     30  C   UNL     1      -1.792  16.276  21.474  0.00  0.00    +0.000 C 
ATOM     31  O   UNL     1      -1.471  15.549  22.655  0.00  0.00    +0.000 OA
ENDBRANCH  24  31
ENDBRANCH  20  27
ENDBRANCH   1  22
TORSDOF 6
ENDMDL
MODEL 3
REMARK VINA RESULT:      -7.8      5.174      7.072
REMARK  Name = 
REMARK  7 active torsions:
REMARK  status: ('A' for Active; 'I' for Inactive)
REMARK    1  A    between atoms: C_1  and  O_2
REMARK    2  A    between atoms: O_2  and  C_3
REMARK    3  A    between atoms: C_6  and  C_7
REMARK    4  A    between atoms: N_9  and  N_10
REMARK    5  A    between atoms: C_11  and  C_13
REMARK    6  A    between atoms: C_17  and  S_18
REMARK    7  A    between atoms: S_18  and  N_21
REMARK                            x       y       z     vdW  Elec       q    Type
REMARK                         _______ _______ _______ _____ _____    ______ ____
ROOT
ATOM      1  N   UNL     1       1.494   8.597  19.163  0.00  0.00    +0.000 N 
ATOM      2  C   UNL     1       1.643   7.847  20.318  0.00  0.00    +0.000 C 
ATOM      3  O   UNL     1       1.595   8.371  21.434  0.00  0.00    +0.000 OA
ATOM      4  H   UNL     1       1.453   8.241  18.213  0.00  0.00    +0.000 HD
ENDROOT
BRANCH   2   5
ATOM      5  C   UNL     1       1.857   6.368  20.203  0.00  0.00    +0.000 A 
ATOM      6  C   UNL     1       1.025   5.428  20.831  0.00  0.00    +0.000 A 
ATOM      7  C   UNL     1       1.279   4.059  20.693  0.00  0.00    +0.000 A 
ATOM      8  C   UNL     1       2.362   3.618  19.933  0.00  0.00    +0.000 A 
ATOM      9  C   UNL     1       3.201   4.546  19.306  0.00  0.00    +0.000 A 
ATOM     10  C   UNL     1       2.950   5.916  19.431  0.00  0.00    +0.000 A 
BRANCH   9  11
ATOM     11  S   UNL     1       4.619   3.888  18.448  0.00  0.00    +0.000 S 
ATOM     12  O   UNL     1       5.506   3.403  19.485  0.00  0.00    +0.000 OA
ATOM     13  O   UNL     1       4.109   3.002  17.425  0.00  0.00    +0.000 OA
BRANCH  11  14
ATOM     14  N   UNL     1       5.387   5.202  17.683  0.00  0.00    +0.000 NA
ATOM     15  C   UNL     1       5.419   5.192  16.184  0.00  0.00    +0.000 C 
ATOM     16  C   UNL     1       6.542   4.290  15.643  0.00  0.00    +0.000 C 
ATOM     17  O   UNL     1       7.822   4.648  16.185  0.00  0.00    +0.000 OA
ATOM     18  C   UNL     1       7.817   4.592  17.619  0.00  0.00    +0.000 C 
ATOM     19  C   UNL     1       6.758   5.534  18.200  0.00  0.00    +0.000 C 
ENDBRANCH  11  14
ENDBRANCH   9  11
ENDBRANCH   2   5
BRANCH   1  22
ATOM     20  C   UNL     1       1.758  10.868  18.401  0.00  0.00    +0.000 C 
ATOM     21  O   UNL     1       2.464  10.494  17.466  0.00  0.00    +0.000 OA
ATOM     22  N   UNL     1       1.231   9.972  19.314  0.00  0.00    +0.000 N 
ATOM     23  H   UNL     1       0.631  10.210  20.098  0.00  0.00    +0.000 HD
BRANCH  20  27
ATOM     24  C   UNL     1       0.944  15.097  18.879  0.00  0.00    +0.000 A 
ATOM     25  C   UNL     1       2.218  14.634  18.552  0.00  0.00    +0.000 A 
ATOM     26  C   UNL     1       2.460  13.262  18.395  0.00  0.00    +0.000 A 
ATOM     27  C   UNL     1       1.433  12.325  18.583  0.00  0.00    +0.000 A 
ATOM     28  C   UNL     1       0.160  12.797  18.934  0.00  0.00    +0.000 A 
ATOM     29  C   UNL     1      -0.081  14.174  19.081  0.00  0.00    +0.000 A 
BRANCH  24  31
ATOM     30  C   UNL     1      -0.315  17.046  18.399  0.00  0.00    +0.000 C 
ATOM     31  O   UNL     1       0.827  16.453  19.009  0.00  0.00    +0.000 OA
ENDBRANCH  24  31
ENDBRANCH  20  27
ENDBRANCH   1  22
TORSDOF 6
ENDMDL
MODEL 4
REMARK VINA RESULT:      -7.7      7.044      8.841
REMARK  Name = 
REMARK  7 active torsions:
REMARK  status: ('A' for Active; 'I' for Inactive)
REMARK    1  A    between atoms: C_1  and  O_2
REMARK    2  A    between atoms: O_2  and  C_3
REMARK    3  A    between atoms: C_6  and  C_7
REMARK    4  A    between atoms: N_9  and  N_10
REMARK    5  A    between atoms: C_11  and  C_13
REMARK    6  A    between atoms: C_17  and  S_18
REMARK    7  A    between atoms: S_18  and  N_21
REMARK                            x       y       z     vdW  Elec       q    Type
REMARK                         _______ _______ _______ _____ _____    ______ ____
ROOT
ATOM      1  N   UNL     1       0.053   9.720  20.734  0.00  0.00    +0.000 N 
ATOM      2  C   UNL     1       0.767   9.958  19.571  0.00  0.00    +0.000 C 
ATOM      3  O   UNL     1       0.685  11.037  18.979  0.00  0.00    +0.000 OA
ATOM      4  H   UNL     1       0.112   8.891  21.320  0.00  0.00    +0.000 HD
ENDROOT
BRANCH   2   5
ATOM      5  C   UNL     1       1.664   8.885  19.034  0.00  0.00    +0.000 A 
ATOM      6  C   UNL     1       2.410   9.036  17.855  0.00  0.00    +0.000 A 
ATOM      7  C   UNL     1       3.225   7.994  17.398  0.00  0.00    +0.000 A 
ATOM      8  C   UNL     1       3.300   6.796  18.109  0.00  0.00    +0.000 A 
ATOM      9  C   UNL     1       2.557   6.632  19.284  0.00  0.00    +0.000 A 
ATOM     10  C   UNL     1       1.747   7.671  19.753  0.00  0.00    +0.000 A 
BRANCH   9  11
ATOM     11  S   UNL     1       2.637   5.030  20.062  0.00  0.00    +0.000 S 
ATOM     12  O   UNL     1       3.955   4.518  19.753  0.00  0.00    +0.000 OA
ATOM     13  O   UNL     1       2.205   5.211  21.430  0.00  0.00    +0.000 OA
BRANCH  11  14
ATOM     14  N   UNL     1       1.498   4.040  19.269  0.00  0.00    +0.000 NA
ATOM     15  C   UNL     1       1.456   2.596  19.671  0.00  0.00    +0.000 C 
ATOM     16  C   UNL     1       2.564   1.780  18.984  0.00  0.00    +0.000 C 
ATOM     17  O   UNL     1       2.524   1.920  17.556  0.00  0.00    +0.000 OA
ATOM     18  C   UNL     1       2.633   3.296  17.162  0.00  0.00    +0.000 C 
ATOM     19  C   UNL     1       1.502   4.131  17.770  0.00  0.00    +0.000 C 
ENDBRANCH  11  14
ENDBRANCH   9  11
ENDBRANCH   2   5
BRANCH   1  22
ATOM     20  C   UNL     1      -0.732  11.022  22.604  0.00  0.00    +0.000 C 
ATOM     21  O   UNL     1      -0.078  10.332  23.385  0.00  0.00    +0.000 OA
ATOM     22  N   UNL     1      -0.728  10.775  21.242  0.00  0.00    +0.000 N 
ATOM     23  H   UNL     1      -1.230  11.312  20.543  0.00  0.00    +0.000 HD
BRANCH  20  27
ATOM     24  C   UNL     1      -3.211  14.256  24.077  0.00  0.00    +0.000 A 
ATOM     25  C   UNL     1      -3.704  12.956  23.961  0.00  0.00    +0.000 A 
ATOM     26  C   UNL     1      -2.884  11.922  23.488  0.00  0.00    +0.000 A 
ATOM     27  C   UNL     1      -1.558  12.174  23.104  0.00  0.00    +0.000 A 
ATOM     28  C   UNL     1      -1.078  13.488  23.202  0.00  0.00    +0.000 A 
ATOM     29  C   UNL     1      -1.900  14.520  23.685  0.00  0.00    +0.000 A 
BRANCH  24  31
ATOM     30  C   UNL     1      -3.545  16.405  25.017  0.00  0.00    +0.000 C 
ATOM     31  O   UNL     1      -4.102  15.182  24.545  0.00  0.00    +0.000 OA
ENDBRANCH  24  31
ENDBRANCH  20  27
ENDBRANCH   1  22
TORSDOF 6
ENDMDL
MODEL 5
REMARK VINA RESULT:      -7.7      5.855      7.977
REMARK  Name = 
REMARK  7 active torsions:
REMARK  status: ('A' for Active; 'I' for Inactive)
REMARK    1  A    between atoms: C_1  and  O_2
REMARK    2  A    between atoms: O_2  and  C_3
REMARK    3  A    between atoms: C_6  and  C_7
REMARK    4  A    between atoms: N_9  and  N_10
REMARK    5  A    between atoms: C_11  and  C_13
REMARK    6  A    between atoms: C_17  and  S_18
REMARK    7  A    between atoms: S_18  and  N_21
REMARK                            x       y       z     vdW  Elec       q    Type
REMARK                         _______ _______ _______ _____ _____    ______ ____
ROOT
ATOM      1  N   UNL     1       1.564   8.673  19.335  0.00  0.00    +0.000 N 
ATOM      2  C   UNL     1       1.649   7.806  20.412  0.00  0.00    +0.000 C 
ATOM      3  O   UNL     1       1.436   8.192  21.564  0.00  0.00    +0.000 OA
ATOM      4  H   UNL     1       1.656   8.427  18.353  0.00  0.00    +0.000 HD
ENDROOT
BRANCH   2   5
ATOM      5  C   UNL     1       1.997   6.369  20.165  0.00  0.00    +0.000 A 
ATOM      6  C   UNL     1       1.328   5.306  20.791  0.00  0.00    +0.000 A 
ATOM      7  C   UNL     1       1.703   3.984  20.527  0.00  0.00    +0.000 A 
ATOM      8  C   UNL     1       2.744   3.713  19.640  0.00  0.00    +0.000 A 
ATOM      9  C   UNL     1       3.422   4.765  19.012  0.00  0.00    +0.000 A 
ATOM     10  C   UNL     1       3.048   6.089  19.265  0.00  0.00    +0.000 A 
BRANCH   9  11
ATOM     11  S   UNL     1       4.806   4.320  17.981  0.00  0.00    +0.000 S 
ATOM     12  O   UNL     1       5.965   4.375  18.848  0.00  0.00    +0.000 OA
ATOM     13  O   UNL     1       4.439   3.100  17.298  0.00  0.00    +0.000 OA
BRANCH  11  14
ATOM     14  N   UNL     1       4.972   5.555  16.818  0.00  0.00    +0.000 NA
ATOM     15  C   UNL     1       5.375   5.137  15.436  0.00  0.00    +0.000 C 
ATOM     16  C   UNL     1       6.893   4.907  15.329  0.00  0.00    +0.000 C 
ATOM     17  O   UNL     1       7.639   6.055  15.761  0.00  0.00    +0.000 OA
ATOM     18  C   UNL     1       7.306   6.418  17.109  0.00  0.00    +0.000 C 
ATOM     19  C   UNL     1       5.812   6.726  17.241  0.00  0.00    +0.000 C 
ENDBRANCH  11  14
ENDBRANCH   9  11
ENDBRANCH   2   5
BRANCH   1  22
ATOM     20  C   UNL     1       0.185  10.582  18.826  0.00  0.00    +0.000 C 
ATOM     21  O   UNL     1      -0.352   9.975  17.901  0.00  0.00    +0.000 OA
ATOM     22  N   UNL     1       1.172   9.998  19.601  0.00  0.00    +0.000 N 
ATOM     23  H   UNL     1       1.643  10.435  20.386  0.00  0.00    +0.000 HD
BRANCH  20  27
ATOM     24  C   UNL     1      -1.054  14.595  19.895  0.00  0.00    +0.000 A 
ATOM     25  C   UNL     1      -1.517  13.480  20.593  0.00  0.00    +0.000 A 
ATOM     26  C   UNL     1      -1.100  12.190  20.237  0.00  0.00    +0.000 A 
ATOM     27  C   UNL     1      -0.224  11.991  19.159  0.00  0.00    +0.000 A 
ATOM     28  C   UNL     1       0.220  13.115  18.449  0.00  0.00    +0.000 A 
ATOM     29  C   UNL     1      -0.194  14.407  18.814  0.00  0.00    +0.000 A 
BRANCH  24  31
ATOM     30  C   UNL     1      -2.579  15.750  21.292  0.00  0.00    +0.000 C 
ATOM     31  O   UNL     1      -1.531  15.800  20.330  0.00  0.00    +0.000 OA
ENDBRANCH  24  31
ENDBRANCH  20  27
ENDBRANCH   1  22
TORSDOF 6
ENDMDL
MODEL 6
REMARK VINA RESULT:      -7.7      1.482      1.796
REMARK  Name = 
REMARK  7 active torsions:
REMARK  status: ('A' for Active; 'I' for Inactive)
REMARK    1  A    between atoms: C_1  and  O_2
REMARK    2  A    between atoms: O_2  and  C_3
REMARK    3  A    between atoms: C_6  and  C_7
REMARK    4  A    between atoms: N_9  and  N_10
REMARK    5  A    between atoms: C_11  and  C_13
REMARK    6  A    between atoms: C_17  and  S_18
REMARK    7  A    between atoms: S_18  and  N_21
REMARK                            x       y       z     vdW  Elec       q    Type
REMARK                         _______ _______ _______ _____ _____    ______ ____
ROOT
ATOM      1  N   UNL     1       7.556   7.532  16.856  0.00  0.00    +0.000 N 
ATOM      2  C   UNL     1       6.215   7.224  17.026  0.00  0.00    +0.000 C 
ATOM      3  O   UNL     1       5.434   8.026  17.542  0.00  0.00    +0.000 OA
ATOM      4  H   UNL     1       8.251   6.962  16.383  0.00  0.00    +0.000 HD
ENDROOT
BRANCH   2   5
ATOM      5  C   UNL     1       5.711   5.892  16.560  0.00  0.00    +0.000 A 
ATOM      6  C   UNL     1       6.032   5.353  15.305  0.00  0.00    +0.000 A 
ATOM      7  C   UNL     1       5.524   4.106  14.922  0.00  0.00    +0.000 A 
ATOM      8  C   UNL     1       4.692   3.391  15.783  0.00  0.00    +0.000 A 
ATOM      9  C   UNL     1       4.361   3.921  17.036  0.00  0.00    +0.000 A 
ATOM     10  C   UNL     1       4.871   5.162  17.430  0.00  0.00    +0.000 A 
BRANCH   9  11
ATOM     11  S   UNL     1       3.206   2.983  18.018  0.00  0.00    +0.000 S 
ATOM     12  O   UNL     1       1.897   3.321  17.501  0.00  0.00    +0.000 OA
ATOM     13  O   UNL     1       3.680   1.617  18.023  0.00  0.00    +0.000 OA
BRANCH  11  14
ATOM     14  N   UNL     1       3.307   3.587  19.608  0.00  0.00    +0.000 NA
ATOM     15  C   UNL     1       3.296   2.581  20.721  0.00  0.00    +0.000 C 
ATOM     16  C   UNL     1       1.870   2.107  21.048  0.00  0.00    +0.000 C 
ATOM     17  O   UNL     1       0.995   3.207  21.338  0.00  0.00    +0.000 OA
ATOM     18  C   UNL     1       0.947   4.139  20.248  0.00  0.00    +0.000 C 
ATOM     19  C   UNL     1       2.342   4.691  19.938  0.00  0.00    +0.000 C 
ENDBRANCH  11  14
ENDBRANCH   9  11
ENDBRANCH   2   5
BRANCH   1  22
ATOM     20  C   UNL     1       8.622   8.979  18.461  0.00  0.00    +0.000 C 
ATOM     21  O   UNL     1       8.823   8.029  19.216  0.00  0.00    +0.000 OA
ATOM     22  N   UNL     1       7.978   8.817  17.247  0.00  0.00    +0.000 N 
ATOM     23  H   UNL     1       7.794   9.552  16.572  0.00  0.00    +0.000 HD
BRANCH  20  27
ATOM     24  C   UNL     1       9.889  13.013  19.410  0.00  0.00    +0.000 A 
ATOM     25  C   UNL     1       9.338  12.696  18.169  0.00  0.00    +0.000 A 
ATOM     26  C   UNL     1       8.927  11.387  17.883  0.00  0.00    +0.000 A 
ATOM     27  C   UNL     1       9.080  10.363  18.830  0.00  0.00    +0.000 A 
ATOM     28  C   UNL     1       9.656  10.685  20.067  0.00  0.00    +0.000 A 
ATOM     29  C   UNL     1      10.058  12.001  20.353  0.00  0.00    +0.000 A 
BRANCH  24  31
ATOM     30  C   UNL     1      10.273  15.119  18.396  0.00  0.00    +0.000 C 
ATOM     31  O   UNL     1      10.256  14.320  19.574  0.00  0.00    +0.000 OA
ENDBRANCH  24  31
ENDBRANCH  20  27
ENDBRANCH   1  22
TORSDOF 6
ENDMDL
MODEL 7
REMARK VINA RESULT:      -7.6      5.950      7.416
REMARK  Name = 
REMARK  7 active torsions:
REMARK  status: ('A' for Active; 'I' for Inactive)
REMARK    1  A    between atoms: C_1  and  O_2
REMARK    2  A    between atoms: O_2  and  C_3
REMARK    3  A    between atoms: C_6  and  C_7
REMARK    4  A    between atoms: N_9  and  N_10
REMARK    5  A    between atoms: C_11  and  C_13
REMARK    6  A    between atoms: C_17  and  S_18
REMARK    7  A    between atoms: S_18  and  N_21
REMARK                            x       y       z     vdW  Elec       q    Type
REMARK                         _______ _______ _______ _____ _____    ______ ____
ROOT
ATOM      1  N   UNL     1       1.240  10.172  19.581  0.00  0.00    +0.000 N 
ATOM      2  C   UNL     1       1.832   9.273  18.709  0.00  0.00    +0.000 C 
ATOM      3  O   UNL     1       2.189   9.617  17.579  0.00  0.00    +0.000 OA
ATOM      4  H   UNL     1       0.979   9.993  20.547  0.00  0.00    +0.000 HD
ENDROOT
BRANCH   2   5
ATOM      5  C   UNL     1       2.049   7.860  19.156  0.00  0.00    +0.000 A 
ATOM      6  C   UNL     1       1.495   7.342  20.337  0.00  0.00    +0.000 A 
ATOM      7  C   UNL     1       1.739   6.015  20.708  0.00  0.00    +0.000 A 
ATOM      8  C   UNL     1       2.538   5.197  19.909  0.00  0.00    +0.000 A 
ATOM      9  C   UNL     1       3.100   5.704  18.731  0.00  0.00    +0.000 A 
ATOM     10  C   UNL     1       2.854   7.026  18.348  0.00  0.00    +0.000 A 
BRANCH   9  11
ATOM     11  S   UNL     1       4.192   4.616  17.836  0.00  0.00    +0.000 S 
ATOM     12  O   UNL     1       4.944   3.906  18.849  0.00  0.00    +0.000 OA
ATOM     13  O   UNL     1       3.375   3.907  16.876  0.00  0.00    +0.000 OA
BRANCH  11  14
ATOM     14  N   UNL     1       5.283   5.606  16.980  0.00  0.00    +0.000 NA
ATOM     15  C   UNL     1       5.615   5.196  15.576  0.00  0.00    +0.000 C 
ATOM     16  C   UNL     1       6.680   4.086  15.542  0.00  0.00    +0.000 C 
ATOM     17  O   UNL     1       7.862   4.458  16.266  0.00  0.00    +0.000 OA
ATOM     18  C   UNL     1       7.559   4.785  17.630  0.00  0.00    +0.000 C 
ATOM     19  C   UNL     1       6.555   5.938  17.707  0.00  0.00    +0.000 C 
ENDBRANCH  11  14
ENDBRANCH   9  11
ENDBRANCH   2   5
BRANCH   1  22
ATOM     20  C   UNL     1       1.272  12.534  20.060  0.00  0.00    +0.000 C 
ATOM     21  O   UNL     1       1.512  12.311  21.246  0.00  0.00    +0.000 OA
ATOM     22  N   UNL     1       1.112  11.505  19.148  0.00  0.00    +0.000 N 
ATOM     23  H   UNL     1       0.929  11.618  18.156  0.00  0.00    +0.000 HD
BRANCH  20  27
ATOM     24  C   UNL     1       0.813  16.610  18.666  0.00  0.00    +0.000 A 
ATOM     25  C   UNL     1      -0.203  15.963  19.368  0.00  0.00    +0.000 A 
ATOM     26  C   UNL     1      -0.033  14.645  19.817  0.00  0.00    +0.000 A 
ATOM     27  C   UNL     1       1.153  13.944  19.553  0.00  0.00    +0.000 A 
ATOM     28  C   UNL     1       2.160  14.594  18.827  0.00  0.00    +0.000 A 
ATOM     29  C   UNL     1       1.990  15.918  18.386  0.00  0.00    +0.000 A 
BRANCH  24  31
ATOM     30  C   UNL     1      -0.447  18.035  17.252  0.00  0.00    +0.000 C 
ATOM     31  O   UNL     1       0.533  17.890  18.275  0.00  0.00    +0.000 OA
ENDBRANCH  24  31
ENDBRANCH  20  27
ENDBRANCH   1  22
TORSDOF 6
ENDMDL
MODEL 8
REMARK VINA RESULT:      -7.6      1.467      1.694
REMARK  Name = 
REMARK  7 active torsions:
REMARK  status: ('A' for Active; 'I' for Inactive)
REMARK    1  A    between atoms: C_1  and  O_2
REMARK    2  A    between atoms: O_2  and  C_3
REMARK    3  A    between atoms: C_6  and  C_7
REMARK    4  A    between atoms: N_9  and  N_10
REMARK    5  A    between atoms: C_11  and  C_13
REMARK    6  A    between atoms: C_17  and  S_18
REMARK    7  A    between atoms: S_18  and  N_21
REMARK                            x       y       z     vdW  Elec       q    Type
REMARK                         _______ _______ _______ _____ _____    ______ ____
ROOT
ATOM      1  N   UNL     1       7.729   8.809  17.331  0.00  0.00    +0.000 N 
ATOM      2  C   UNL     1       7.714   7.524  17.850  0.00  0.00    +0.000 C 
ATOM      3  O   UNL     1       8.490   7.187  18.748  0.00  0.00    +0.000 OA
ATOM      4  H   UNL     1       7.085   9.189  16.643  0.00  0.00    +0.000 HD
ENDROOT
BRANCH   2   5
ATOM      5  C   UNL     1       6.727   6.533  17.314  0.00  0.00    +0.000 A 
ATOM      6  C   UNL     1       6.980   5.744  16.181  0.00  0.00    +0.000 A 
ATOM      7  C   UNL     1       6.016   4.840  15.722  0.00  0.00    +0.000 A 
ATOM      8  C   UNL     1       4.794   4.718  16.384  0.00  0.00    +0.000 A 
ATOM      9  C   UNL     1       4.529   5.503  17.512  0.00  0.00    +0.000 A 
ATOM     10  C   UNL     1       5.490   6.403  17.983  0.00  0.00    +0.000 A 
BRANCH   9  11
ATOM     11  S   UNL     1       2.901   5.353  18.223  0.00  0.00    +0.000 S 
ATOM     12  O   UNL     1       2.417   6.710  18.367  0.00  0.00    +0.000 OA
ATOM     13  O   UNL     1       2.187   4.384  17.423  0.00  0.00    +0.000 OA
BRANCH  11  14
ATOM     14  N   UNL     1       3.103   4.708  19.787  0.00  0.00    +0.000 NA
ATOM     15  C   UNL     1       3.583   3.290  19.882  0.00  0.00    +0.000 C 
ATOM     16  C   UNL     1       2.438   2.284  19.673  0.00  0.00    +0.000 C 
ATOM     17  O   UNL     1       1.347   2.522  20.577  0.00  0.00    +0.000 OA
ATOM     18  C   UNL     1       0.838   3.858  20.442  0.00  0.00    +0.000 C 
ATOM     19  C   UNL     1       1.935   4.892  20.714  0.00  0.00    +0.000 C 
ENDBRANCH  11  14
ENDBRANCH   9  11
ENDBRANCH   2   5
BRANCH   1  22
ATOM     20  C   UNL     1       8.444  11.082  17.684  0.00  0.00    +0.000 C 
ATOM     21  O   UNL     1       7.522  11.503  16.986  0.00  0.00    +0.000 OA
ATOM     22  N   UNL     1       8.626   9.729  17.905  0.00  0.00    +0.000 N 
ATOM     23  H   UNL     1       9.353   9.316  18.480  0.00  0.00    +0.000 HD
BRANCH  20  27
ATOM     24  C   UNL     1      11.323  13.774  19.485  0.00  0.00    +0.000 A 
ATOM     25  C   UNL     1      11.719  12.767  18.606  0.00  0.00    +0.000 A 
ATOM     26  C   UNL     1      10.772  11.910  18.028  0.00  0.00    +0.000 A 
ATOM     27  C   UNL     1       9.409  12.034  18.336  0.00  0.00    +0.000 A 
ATOM     28  C   UNL     1       9.021  13.035  19.238  0.00  0.00    +0.000 A 
ATOM     29  C   UNL     1       9.972  13.898  19.808  0.00  0.00    +0.000 A 
BRANCH  24  31
ATOM     30  C   UNL     1      12.028  15.921  20.198  0.00  0.00    +0.000 C 
ATOM     31  O   UNL     1      12.333  14.546  19.989  0.00  0.00    +0.000 OA
ENDBRANCH  24  31
ENDBRANCH  20  27
ENDBRANCH   1  22
TORSDOF 6
ENDMDL
MODEL 9
REMARK VINA RESULT:      -7.6      5.857      7.442
REMARK  Name = 
REMARK  7 active torsions:
REMARK  status: ('A' for Active; 'I' for Inactive)
REMARK    1  A    between atoms: C_1  and  O_2
REMARK    2  A    between atoms: O_2  and  C_3
REMARK    3  A    between atoms: C_6  and  C_7
REMARK    4  A    between atoms: N_9  and  N_10
REMARK    5  A    between atoms: C_11  and  C_13
REMARK    6  A    between atoms: C_17  and  S_18
REMARK    7  A    between atoms: S_18  and  N_21
REMARK                            x       y       z     vdW  Elec       q    Type
REMARK                         _______ _______ _______ _____ _____    ______ ____
ROOT
ATOM      1  N   UNL     1       0.743   9.736  19.693  0.00  0.00    +0.000 N 
ATOM      2  C   UNL     1       1.651   9.002  18.945  0.00  0.00    +0.000 C 
ATOM      3  O   UNL     1       2.207   9.487  17.957  0.00  0.00    +0.000 OA
ATOM      4  H   UNL     1       0.293   9.441  20.554  0.00  0.00    +0.000 HD
ENDROOT
BRANCH   2   5
ATOM      5  C   UNL     1       1.966   7.597  19.357  0.00  0.00    +0.000 A 
ATOM      6  C   UNL     1       1.471   7.021  20.538  0.00  0.00    +0.000 A 
ATOM      7  C   UNL     1       1.806   5.705  20.875  0.00  0.00    +0.000 A 
ATOM      8  C   UNL     1       2.637   4.956  20.042  0.00  0.00    +0.000 A 
ATOM      9  C   UNL     1       3.140   5.521  18.864  0.00  0.00    +0.000 A 
ATOM     10  C   UNL     1       2.804   6.833  18.515  0.00  0.00    +0.000 A 
BRANCH   9  11
ATOM     11  S   UNL     1       4.278   4.522  17.923  0.00  0.00    +0.000 S 
ATOM     12  O   UNL     1       5.014   3.751  18.903  0.00  0.00    +0.000 OA
ATOM     13  O   UNL     1       3.503   3.874  16.889  0.00  0.00    +0.000 OA
BRANCH  11  14
ATOM     14  N   UNL     1       5.374   5.592  17.177  0.00  0.00    +0.000 NA
ATOM     15  C   UNL     1       5.660   5.369  15.722  0.00  0.00    +0.000 C 
ATOM     16  C   UNL     1       6.692   4.248  15.508  0.00  0.00    +0.000 C 
ATOM     17  O   UNL     1       7.902   4.490  16.242  0.00  0.00    +0.000 OA
ATOM     18  C   UNL     1       7.643   4.636  17.646  0.00  0.00    +0.000 C 
ATOM     19  C   UNL     1       6.673   5.792  17.906  0.00  0.00    +0.000 C 
ENDBRANCH  11  14
ENDBRANCH   9  11
ENDBRANCH   2   5
BRANCH   1  22
ATOM     20  C   UNL     1       0.910  12.094  20.162  0.00  0.00    +0.000 C 
ATOM     21  O   UNL     1       1.434  11.861  21.251  0.00  0.00    +0.000 OA
ATOM     22  N   UNL     1       0.522  11.073  19.312  0.00  0.00    +0.000 N 
ATOM     23  H   UNL     1       0.101  11.194  18.397  0.00  0.00    +0.000 HD
BRANCH  20  27
ATOM     24  C   UNL     1       0.370  16.169  18.793  0.00  0.00    +0.000 A 
ATOM     25  C   UNL     1       1.593  15.514  18.660  0.00  0.00    +0.000 A 
ATOM     26  C   UNL     1       1.747  14.192  19.103  0.00  0.00    +0.000 A 
ATOM     27  C   UNL     1       0.680  13.508  19.707  0.00  0.00    +0.000 A 
ATOM     28  C   UNL     1      -0.540  14.182  19.857  0.00  0.00    +0.000 A 
ATOM     29  C   UNL     1      -0.692  15.504  19.404  0.00  0.00    +0.000 A 
BRANCH  24  31
ATOM     30  C   UNL     1       1.405  17.836  17.466  0.00  0.00    +0.000 C 
ATOM     31  O   UNL     1       0.339  17.455  18.330  0.00  0.00    +0.000 OA
ENDBRANCH  24  31
ENDBRANCH  20  27
ENDBRANCH   1  22
TORSDOF 6
ENDMDL
