MODEL 1
REMARK VINA RESULT:      -7.9      0.000      0.000
REMARK  Name = 
REMARK  5 active torsions:
REMARK  status: ('A' for Active; 'I' for Inactive)
REMARK    1  A    between atoms: C_1  and  O_2
REMARK    2  A    between atoms: O_2  and  C_3
REMARK    3  A    between atoms: C_6  and  N_7
REMARK    4  A    between atoms: C_8  and  C_10
REMARK    5  A    between atoms: N_15  and  C_16
REMARK                            x       y       z     vdW  Elec       q    Type
REMARK                         _______ _______ _______ _____ _____    ______ ____
ROOT
ATOM      1  C   UNL     1       1.649   8.442  19.590  0.00  0.00    +0.000 A 
ATOM      2  C   UNL     1       1.764   7.271  20.322  0.00  0.00    +0.000 A 
ATOM      3  C   UNL     1       2.605   6.326  19.642  0.00  0.00    +0.000 A 
ATOM      4  C   UNL     1       2.906   4.956  20.038  0.00  0.00    +0.000 A 
ATOM      5  O   UNL     1       2.432   4.490  21.068  0.00  0.00    +0.000 OA
ATOM      6  N   UNL     1       3.753   4.231  19.173  0.00  0.00    +0.000 N 
ATOM      7  C   UNL     1       4.087   2.870  19.553  0.00  0.00    +0.000 C 
ATOM      8  C   UNL     1       4.295   4.782  17.955  0.00  0.00    +0.000 A 
ATOM      9  C   UNL     1       5.141   4.038  17.118  0.00  0.00    +0.000 A 
ATOM     10  C   UNL     1       5.652   4.586  15.937  0.00  0.00    +0.000 A 
ATOM     11  C   UNL     1       5.322   5.883  15.563  0.00  0.00    +0.000 A 
ATOM     12  C   UNL     1       4.487   6.641  16.377  0.00  0.00    +0.000 A 
ATOM     13  C   UNL     1       3.980   6.103  17.574  0.00  0.00    +0.000 A 
ATOM     14  C   UNL     1       3.118   6.845  18.477  0.00  0.00    +0.000 A 
ATOM     15  S   UNL     1       2.633   8.434  18.203  0.00  0.00    +0.000 S 
ENDROOT
BRANCH   1  17
ATOM     16  N   UNL     1       0.911  10.173  21.110  0.00  0.00    +0.000 N 
ATOM     17  C   UNL     1       0.777   9.596  19.833  0.00  0.00    +0.000 C 
ATOM     18  O   UNL     1       0.071  10.020  18.947  0.00  0.00    +0.000 OA
ATOM     19  H   UNL     1       1.601   9.768  21.727  0.00  0.00    +0.000 HD
BRANCH  16  23
ATOM     20  C   UNL     1      -1.208  13.603  22.413  0.00  0.00    +0.000 A 
ATOM     21  C   UNL     1      -0.087  13.703  21.589  0.00  0.00    +0.000 A 
ATOM     22  C   UNL     1       0.595  12.584  21.148  0.00  0.00    +0.000 A 
ATOM     23  C   UNL     1       0.208  11.312  21.543  0.00  0.00    +0.000 A 
ATOM     24  C   UNL     1      -0.931  11.191  22.356  0.00  0.00    +0.000 A 
ATOM     25  C   UNL     1      -1.636  12.324  22.791  0.00  0.00    +0.000 A 
ATOM     26 CL   UNL     1      -3.100  12.013  23.665  0.00  0.00    +0.000 Cl
BRANCH  20  28
ATOM     27  C   UNL     1      -1.393  15.252  24.068  0.00  0.00    +0.000 C 
ATOM     28  O   UNL     1      -1.855  14.752  22.803  0.00  0.00    +0.000 OA
ENDBRANCH  20  28
ENDBRANCH  16  23
ENDBRANCH   1  17
TORSDOF 3
ENDMDL
MODEL 2
REMARK VINA RESULT:      -7.8      1.545      1.921
REMARK  Name = 
REMARK  5 active torsions:
REMARK  status: ('A' for Active; 'I' for Inactive)
REMARK    1  A    between atoms: C_1  and  O_2
REMARK    2  A    between atoms: O_2  and  C_3
REMARK    3  A    between atoms: C_6  and  N_7
REMARK    4  A    between atoms: C_8  and  C_10
REMARK    5  A    between atoms: N_15  and  C_16
REMARK                            x       y       z     vdW  Elec       q    Type
REMARK                         _______ _______ _______ _____ _____    ______ ____
ROOT
ATOM      1  C   UNL     1       2.187   7.593  19.134  0.00  0.00    +0.000 A 
ATOM      2  C   UNL     1       2.069   6.299  19.616  0.00  0.00    +0.000 A 
ATOM      3  C   UNL     1       2.861   5.391  18.834  0.00  0.00    +0.000 A 
ATOM      4  C   UNL     1       2.941   3.941  18.964  0.00  0.00    +0.000 A 
ATOM      5  O   UNL     1       2.295   3.359  19.828  0.00  0.00    +0.000 OA
ATOM      6  N   UNL     1       3.789   3.282  18.049  0.00  0.00    +0.000 N 
ATOM      7  C   UNL     1       3.905   1.839  18.167  0.00  0.00    +0.000 C 
ATOM      8  C   UNL     1       4.536   3.973  17.026  0.00  0.00    +0.000 A 
ATOM      9  C   UNL     1       5.377   3.289  16.134  0.00  0.00    +0.000 A 
ATOM     10  C   UNL     1       6.088   3.975  15.143  0.00  0.00    +0.000 A 
ATOM     11  C   UNL     1       5.968   5.353  15.018  0.00  0.00    +0.000 A 
ATOM     12  C   UNL     1       5.142   6.053  15.891  0.00  0.00    +0.000 A 
ATOM     13  C   UNL     1       4.434   5.373  16.900  0.00  0.00    +0.000 A 
ATOM     14  C   UNL     1       3.569   6.045  17.854  0.00  0.00    +0.000 A 
ATOM     15  S   UNL     1       3.321   7.710  17.872  0.00  0.00    +0.000 S 
ENDROOT
BRANCH   1  17
ATOM     16  N   UNL     1       1.083   8.836  20.891  0.00  0.00    +0.000 N 
ATOM     17  C   UNL     1       1.443   8.793  19.531  0.00  0.00    +0.000 C 
ATOM     18  O   UNL     1       1.243   9.675  18.729  0.00  0.00    +0.000 OA
ATOM     19  H   UNL     1       1.385   8.067  21.471  0.00  0.00    +0.000 HD
BRANCH  16  23
ATOM     20  C   UNL     1      -0.957  12.069  22.719  0.00  0.00    +0.000 A 
ATOM     21  C   UNL     1      -1.159  10.751  23.125  0.00  0.00    +0.000 A 
ATOM     22  C   UNL     1      -0.481   9.696  22.543  0.00  0.00    +0.000 A 
ATOM     23  C   UNL     1       0.405   9.909  21.498  0.00  0.00    +0.000 A 
ATOM     24  C   UNL     1       0.637  11.233  21.087  0.00  0.00    +0.000 A 
ATOM     25  C   UNL     1      -0.037  12.308  21.690  0.00  0.00    +0.000 A 
ATOM     26 CL   UNL     1       0.457  13.889  21.181  0.00  0.00    +0.000 Cl
BRANCH  20  28
ATOM     27  C   UNL     1      -3.046  12.785  23.505  0.00  0.00    +0.000 C 
ATOM     28  O   UNL     1      -1.647  13.077  23.350  0.00  0.00    +0.000 OA
ENDBRANCH  20  28
ENDBRANCH  16  23
ENDBRANCH   1  17
TORSDOF 3
ENDMDL
MODEL 3
REMARK VINA RESULT:      -7.8      1.032      1.383
REMARK  Name = 
REMARK  5 active torsions:
REMARK  status: ('A' for Active; 'I' for Inactive)
REMARK    1  A    between atoms: C_1  and  O_2
REMARK    2  A    between atoms: O_2  and  C_3
REMARK    3  A    between atoms: C_6  and  N_7
REMARK    4  A    between atoms: C_8  and  C_10
REMARK    5  A    between atoms: N_15  and  C_16
REMARK                            x       y       z     vdW  Elec       q    Type
REMARK                         _______ _______ _______ _____ _____    ______ ____
ROOT
ATOM      1  C   UNL     1       1.686   8.337  19.610  0.00  0.00    +0.000 A 
ATOM      2  C   UNL     1       1.821   7.156  20.321  0.00  0.00    +0.000 A 
ATOM      3  C   UNL     1       2.671   6.234  19.621  0.00  0.00    +0.000 A 
ATOM      4  C   UNL     1       2.993   4.861  19.992  0.00  0.00    +0.000 A 
ATOM      5  O   UNL     1       2.530   4.371  21.015  0.00  0.00    +0.000 OA
ATOM      6  N   UNL     1       3.846   4.164  19.111  0.00  0.00    +0.000 N 
ATOM      7  C   UNL     1       4.201   2.801  19.466  0.00  0.00    +0.000 C 
ATOM      8  C   UNL     1       4.377   4.744  17.901  0.00  0.00    +0.000 A 
ATOM      9  C   UNL     1       5.229   4.026  17.048  0.00  0.00    +0.000 A 
ATOM     10  C   UNL     1       5.728   4.602  15.874  0.00  0.00    +0.000 A 
ATOM     11  C   UNL     1       5.378   5.901  15.525  0.00  0.00    +0.000 A 
ATOM     12  C   UNL     1       4.536   6.632  16.355  0.00  0.00    +0.000 A 
ATOM     13  C   UNL     1       4.041   6.066  17.545  0.00  0.00    +0.000 A 
ATOM     14  C   UNL     1       3.173   6.781  18.463  0.00  0.00    +0.000 A 
ATOM     15  S   UNL     1       2.665   8.367  18.220  0.00  0.00    +0.000 S 
ENDROOT
BRANCH   1  17
ATOM     16  N   UNL     1       0.882   9.987  21.185  0.00  0.00    +0.000 N 
ATOM     17  C   UNL     1       0.800   9.475  19.877  0.00  0.00    +0.000 C 
ATOM     18  O   UNL     1       0.126   9.940  18.987  0.00  0.00    +0.000 OA
ATOM     19  H   UNL     1       1.549   9.554  21.807  0.00  0.00    +0.000 HD
BRANCH  16  23
ATOM     20  C   UNL     1      -1.302  13.341  22.578  0.00  0.00    +0.000 A 
ATOM     21  C   UNL     1      -1.600  12.045  22.999  0.00  0.00    +0.000 A 
ATOM     22  C   UNL     1      -0.876  10.951  22.560  0.00  0.00    +0.000 A 
ATOM     23  C   UNL     1       0.156  11.100  21.647  0.00  0.00    +0.000 A 
ATOM     24  C   UNL     1       0.484  12.400  21.226  0.00  0.00    +0.000 A 
ATOM     25  C   UNL     1      -0.237  13.514  21.684  0.00  0.00    +0.000 A 
ATOM     26 CL   UNL     1       0.372  15.061  21.194  0.00  0.00    +0.000 Cl
BRANCH  20  28
ATOM     27  C   UNL     1      -1.616  14.823  24.366  0.00  0.00    +0.000 C 
ATOM     28  O   UNL     1      -2.046  14.390  23.065  0.00  0.00    +0.000 OA
ENDBRANCH  20  28
ENDBRANCH  16  23
ENDBRANCH   1  17
TORSDOF 3
ENDMDL
MODEL 4
REMARK VINA RESULT:      -7.8      3.339      9.331
REMARK  Name = 
REMARK  5 active torsions:
REMARK  status: ('A' for Active; 'I' for Inactive)
REMARK    1  A    between atoms: C_1  and  O_2
REMARK    2  A    between atoms: O_2  and  C_3
REMARK    3  A    between atoms: C_6  and  N_7
REMARK    4  A    between atoms: C_8  and  C_10
REMARK    5  A    between atoms: N_15  and  C_16
REMARK                            x       y       z     vdW  Elec       q    Type
REMARK                         _______ _______ _______ _____ _____    ______ ____
ROOT
ATOM      1  C   UNL     1       1.298   8.632  20.014  0.00  0.00    +0.000 A 
ATOM      2  C   UNL     1       0.678   8.883  21.228  0.00  0.00    +0.000 A 
ATOM      3  C   UNL     1       0.201  10.237  21.285  0.00  0.00    +0.000 A 
ATOM      4  C   UNL     1      -0.428  10.912  22.414  0.00  0.00    +0.000 A 
ATOM      5  O   UNL     1      -0.616  10.315  23.467  0.00  0.00    +0.000 OA
ATOM      6  N   UNL     1      -0.788  12.261  22.208  0.00  0.00    +0.000 N 
ATOM      7  C   UNL     1      -1.435  12.954  23.308  0.00  0.00    +0.000 C 
ATOM      8  C   UNL     1      -0.551  12.961  20.969  0.00  0.00    +0.000 A 
ATOM      9  C   UNL     1      -0.927  14.301  20.793  0.00  0.00    +0.000 A 
ATOM     10  C   UNL     1      -0.683  14.967  19.587  0.00  0.00    +0.000 A 
ATOM     11  C   UNL     1      -0.051  14.311  18.537  0.00  0.00    +0.000 A 
ATOM     12  C   UNL     1       0.330  12.982  18.688  0.00  0.00    +0.000 A 
ATOM     13  C   UNL     1       0.075  12.300  19.893  0.00  0.00    +0.000 A 
ATOM     14  C   UNL     1       0.431  10.909  20.108  0.00  0.00    +0.000 A 
ATOM     15  S   UNL     1       1.178   9.949  18.945  0.00  0.00    +0.000 S 
ENDROOT
BRANCH   1  17
ATOM     16  N   UNL     1       2.573   7.513  18.290  0.00  0.00    +0.000 N 
ATOM     17  C   UNL     1       2.053   7.446  19.596  0.00  0.00    +0.000 C 
ATOM     18  O   UNL     1       2.242   6.542  20.377  0.00  0.00    +0.000 OA
ATOM     19  H   UNL     1       2.409   8.365  17.773  0.00  0.00    +0.000 HD
BRANCH  16  23
ATOM     20  C   UNL     1       4.956   4.493  16.513  0.00  0.00    +0.000 A 
ATOM     21  C   UNL     1       5.299   5.842  16.429  0.00  0.00    +0.000 A 
ATOM     22  C   UNL     1       4.533   6.828  17.024  0.00  0.00    +0.000 A 
ATOM     23  C   UNL     1       3.364   6.511  17.700  0.00  0.00    +0.000 A 
ATOM     24  C   UNL     1       3.013   5.155  17.812  0.00  0.00    +0.000 A 
ATOM     25  C   UNL     1       3.799   4.151  17.225  0.00  0.00    +0.000 A 
ATOM     26 CL   UNL     1       3.322   2.521  17.570  0.00  0.00    +0.000 Cl
BRANCH  20  28
ATOM     27  C   UNL     1       6.491   4.082  14.791  0.00  0.00    +0.000 C 
ATOM     28  O   UNL     1       5.769   3.558  15.917  0.00  0.00    +0.000 OA
ENDBRANCH  20  28
ENDBRANCH  16  23
ENDBRANCH   1  17
TORSDOF 3
ENDMDL
MODEL 5
REMARK VINA RESULT:      -7.7      1.664      1.814
REMARK  Name = 
REMARK  5 active torsions:
REMARK  status: ('A' for Active; 'I' for Inactive)
REMARK    1  A    between atoms: C_1  and  O_2
REMARK    2  A    between atoms: O_2  and  C_3
REMARK    3  A    between atoms: C_6  and  N_7
REMARK    4  A    between atoms: C_8  and  C_10
REMARK    5  A    between atoms: N_15  and  C_16
REMARK                            x       y       z     vdW  Elec       q    Type
REMARK                         _______ _______ _______ _____ _____    ______ ____
ROOT
ATOM      1  C   UNL     1       1.972   7.363  19.901  0.00  0.00    +0.000 A 
ATOM      2  C   UNL     1       1.882   6.019  20.226  0.00  0.00    +0.000 A 
ATOM      3  C   UNL     1       2.633   5.220  19.299  0.00  0.00    +0.000 A 
ATOM      4  C   UNL     1       2.723   3.766  19.247  0.00  0.00    +0.000 A 
ATOM      5  O   UNL     1       2.126   3.078  20.066  0.00  0.00    +0.000 OA
ATOM      6  N   UNL     1       3.522   3.230  18.215  0.00  0.00    +0.000 N 
ATOM      7  C   UNL     1       3.648   1.784  18.151  0.00  0.00    +0.000 C 
ATOM      8  C   UNL     1       4.213   4.046  17.246  0.00  0.00    +0.000 A 
ATOM      9  C   UNL     1       5.006   3.484  16.235  0.00  0.00    +0.000 A 
ATOM     10  C   UNL     1       5.662   4.290  15.299  0.00  0.00    +0.000 A 
ATOM     11  C   UNL     1       5.532   5.673  15.348  0.00  0.00    +0.000 A 
ATOM     12  C   UNL     1       4.752   6.254  16.343  0.00  0.00    +0.000 A 
ATOM     13  C   UNL     1       4.100   5.451  17.297  0.00  0.00    +0.000 A 
ATOM     14  C   UNL     1       3.287   5.994  18.370  0.00  0.00    +0.000 A 
ATOM     15  S   UNL     1       3.036   7.642  18.604  0.00  0.00    +0.000 S 
ENDROOT
BRANCH   1  17
ATOM     16  N   UNL     1       1.024   9.567  19.589  0.00  0.00    +0.000 N 
ATOM     17  C   UNL     1       1.246   8.499  20.479  0.00  0.00    +0.000 C 
ATOM     18  O   UNL     1       0.834   8.440  21.614  0.00  0.00    +0.000 OA
ATOM     19  H   UNL     1       1.353   9.451  18.641  0.00  0.00    +0.000 HD
BRANCH  16  23
ATOM     20  C   UNL     1      -1.117  13.089  20.573  0.00  0.00    +0.000 A 
ATOM     21  C   UNL     1       0.231  12.936  20.894  0.00  0.00    +0.000 A 
ATOM     22  C   UNL     1       0.937  11.796  20.557  0.00  0.00    +0.000 A 
ATOM     23  C   UNL     1       0.313  10.736  19.916  0.00  0.00    +0.000 A 
ATOM     24  C   UNL     1      -1.040  10.879  19.567  0.00  0.00    +0.000 A 
ATOM     25  C   UNL     1      -1.754  12.044  19.891  0.00  0.00    +0.000 A 
ATOM     26 CL   UNL     1      -3.369  12.136  19.270  0.00  0.00    +0.000 Cl
BRANCH  20  28
ATOM     27  C   UNL     1      -2.397  14.184  22.203  0.00  0.00    +0.000 C 
ATOM     28  O   UNL     1      -1.759  14.255  20.917  0.00  0.00    +0.000 OA
ENDBRANCH  20  28
ENDBRANCH  16  23
ENDBRANCH   1  17
TORSDOF 3
ENDMDL
MODEL 6
REMARK VINA RESULT:      -7.6      1.875      2.102
REMARK  Name = 
REMARK  5 active torsions:
REMARK  status: ('A' for Active; 'I' for Inactive)
REMARK    1  A    between atoms: C_1  and  O_2
REMARK    2  A    between atoms: O_2  and  C_3
REMARK    3  A    between atoms: C_6  and  N_7
REMARK    4  A    between atoms: C_8  and  C_10
REMARK    5  A    between atoms: N_15  and  C_16
REMARK                            x       y       z     vdW  Elec       q    Type
REMARK                         _______ _______ _______ _____ _____    ______ ____
ROOT
ATOM      1  C   UNL     1       2.020   7.386  19.823  0.00  0.00    +0.000 A 
ATOM      2  C   UNL     1       1.936   6.051  20.185  0.00  0.00    +0.000 A 
ATOM      3  C   UNL     1       2.687   5.229  19.278  0.00  0.00    +0.000 A 
ATOM      4  C   UNL     1       2.781   3.774  19.266  0.00  0.00    +0.000 A 
ATOM      5  O   UNL     1       2.188   3.107  20.105  0.00  0.00    +0.000 OA
ATOM      6  N   UNL     1       3.579   3.213  18.246  0.00  0.00    +0.000 N 
ATOM      7  C   UNL     1       3.709   1.767  18.221  0.00  0.00    +0.000 C 
ATOM      8  C   UNL     1       4.264   4.005  17.253  0.00  0.00    +0.000 A 
ATOM      9  C   UNL     1       5.056   3.417  16.255  0.00  0.00    +0.000 A 
ATOM     10  C   UNL     1       5.707   4.201  15.295  0.00  0.00    +0.000 A 
ATOM     11  C   UNL     1       5.572   5.584  15.308  0.00  0.00    +0.000 A 
ATOM     12  C   UNL     1       4.794   6.189  16.289  0.00  0.00    +0.000 A 
ATOM     13  C   UNL     1       4.147   5.410  17.266  0.00  0.00    +0.000 A 
ATOM     14  C   UNL     1       3.335   5.980  18.326  0.00  0.00    +0.000 A 
ATOM     15  S   UNL     1       3.079   7.633  18.516  0.00  0.00    +0.000 S 
ENDROOT
BRANCH   1  17
ATOM     16  N   UNL     1       1.014   9.552  19.441  0.00  0.00    +0.000 N 
ATOM     17  C   UNL     1       1.292   8.535  20.372  0.00  0.00    +0.000 C 
ATOM     18  O   UNL     1       0.924   8.524  21.524  0.00  0.00    +0.000 OA
ATOM     19  H   UNL     1       1.309   9.396  18.488  0.00  0.00    +0.000 HD
BRANCH  16  23
ATOM     20  C   UNL     1      -1.165  13.075  20.335  0.00  0.00    +0.000 A 
ATOM     21  C   UNL     1      -1.759  11.987  19.695  0.00  0.00    +0.000 A 
ATOM     22  C   UNL     1      -1.055  10.830  19.419  0.00  0.00    +0.000 A 
ATOM     23  C   UNL     1       0.291  10.722  19.737  0.00  0.00    +0.000 A 
ATOM     24  C   UNL     1       0.902  11.800  20.399  0.00  0.00    +0.000 A 
ATOM     25  C   UNL     1       0.184  12.969  20.697  0.00  0.00    +0.000 A 
ATOM     26 CL   UNL     1       1.027  14.151  21.643  0.00  0.00    +0.000 Cl
BRANCH  20  28
ATOM     27  C   UNL     1      -3.109  13.895  21.355  0.00  0.00    +0.000 C 
ATOM     28  O   UNL     1      -1.923  14.191  20.599  0.00  0.00    +0.000 OA
ENDBRANCH  20  28
ENDBRANCH  16  23
ENDBRANCH   1  17
TORSDOF 3
ENDMDL
MODEL 7
REMARK VINA RESULT:      -7.6      3.352      9.345
REMARK  Name = 
REMARK  5 active torsions:
REMARK  status: ('A' for Active; 'I' for Inactive)
REMARK    1  A    between atoms: C_1  and  O_2
REMARK    2  A    between atoms: O_2  and  C_3
REMARK    3  A    between atoms: C_6  and  N_7
REMARK    4  A    between atoms: C_8  and  C_10
REMARK    5  A    between atoms: N_15  and  C_16
REMARK                            x       y       z     vdW  Elec       q    Type
REMARK                         _______ _______ _______ _____ _____    ______ ____
ROOT
ATOM      1  C   UNL     1       1.063   9.231  19.944  0.00  0.00    +0.000 A 
ATOM      2  C   UNL     1       0.437   9.465  21.158  0.00  0.00    +0.000 A 
ATOM      3  C   UNL     1       0.019  10.835  21.260  0.00  0.00    +0.000 A 
ATOM      4  C   UNL     1      -0.595  11.497  22.405  0.00  0.00    +0.000 A 
ATOM      5  O   UNL     1      -0.824  10.870  23.432  0.00  0.00    +0.000 OA
ATOM      6  N   UNL     1      -0.893  12.867  22.244  0.00  0.00    +0.000 N 
ATOM      7  C   UNL     1      -1.525  13.547  23.360  0.00  0.00    +0.000 C 
ATOM      8  C   UNL     1      -0.608  13.600  21.034  0.00  0.00    +0.000 A 
ATOM      9  C   UNL     1      -0.922  14.961  20.903  0.00  0.00    +0.000 A 
ATOM     10  C   UNL     1      -0.632  15.659  19.725  0.00  0.00    +0.000 A 
ATOM     11  C   UNL     1      -0.014  15.014  18.660  0.00  0.00    +0.000 A 
ATOM     12  C   UNL     1       0.306  13.665  18.767  0.00  0.00    +0.000 A 
ATOM     13  C   UNL     1       0.004  12.952  19.942  0.00  0.00    +0.000 A 
ATOM     14  C   UNL     1       0.296  11.539  20.111  0.00  0.00    +0.000 A 
ATOM     15  S   UNL     1       1.016  10.589  18.923  0.00  0.00    +0.000 S 
ENDROOT
BRANCH   1  17
ATOM     16  N   UNL     1       1.866   7.007  20.456  0.00  0.00    +0.000 N 
ATOM     17  C   UNL     1       1.771   8.028  19.492  0.00  0.00    +0.000 C 
ATOM     18  O   UNL     1       2.158   7.947  18.350  0.00  0.00    +0.000 OA
ATOM     19  H   UNL     1       1.425   7.175  21.349  0.00  0.00    +0.000 HD
BRANCH  16  23
ATOM     20  C   UNL     1       3.662   3.232  19.764  0.00  0.00    +0.000 A 
ATOM     21  C   UNL     1       2.430   3.352  20.405  0.00  0.00    +0.000 A 
ATOM     22  C   UNL     1       1.833   4.581  20.615  0.00  0.00    +0.000 A 
ATOM     23  C   UNL     1       2.462   5.754  20.227  0.00  0.00    +0.000 A 
ATOM     24  C   UNL     1       3.696   5.653  19.561  0.00  0.00    +0.000 A 
ATOM     25  C   UNL     1       4.295   4.404  19.330  0.00  0.00    +0.000 A 
ATOM     26 CL   UNL     1       5.739   4.427  18.372  0.00  0.00    +0.000 Cl
BRANCH  20  28
ATOM     27  C   UNL     1       3.683   1.334  18.389  0.00  0.00    +0.000 C 
ATOM     28  O   UNL     1       4.195   1.980  19.566  0.00  0.00    +0.000 OA
ENDBRANCH  20  28
ENDBRANCH  16  23
ENDBRANCH   1  17
TORSDOF 3
ENDMDL
MODEL 8
REMARK VINA RESULT:      -7.6      1.477      1.602
REMARK  Name = 
REMARK  5 active torsions:
REMARK  status: ('A' for Active; 'I' for Inactive)
REMARK    1  A    between atoms: C_1  and  O_2
REMARK    2  A    between atoms: O_2  and  C_3
REMARK    3  A    between atoms: C_6  and  N_7
REMARK    4  A    between atoms: C_8  and  C_10
REMARK    5  A    between atoms: N_15  and  C_16
REMARK                            x       y       z     vdW  Elec       q    Type
REMARK                         _______ _______ _______ _____ _____    ______ ____
ROOT
ATOM      1  C   UNL     1       1.902   8.583  19.096  0.00  0.00    +0.000 A 
ATOM      2  C   UNL     1       1.892   7.506  19.967  0.00  0.00    +0.000 A 
ATOM      3  C   UNL     1       2.672   6.420  19.442  0.00  0.00    +0.000 A 
ATOM      4  C   UNL     1       2.841   5.088  20.012  0.00  0.00    +0.000 A 
ATOM      5  O   UNL     1       2.295   4.792  21.068  0.00  0.00    +0.000 OA
ATOM      6  N   UNL     1       3.653   4.198  19.278  0.00  0.00    +0.000 N 
ATOM      7  C   UNL     1       3.857   2.871  19.831  0.00  0.00    +0.000 C 
ATOM      8  C   UNL     1       4.282   4.550  18.028  0.00  0.00    +0.000 A 
ATOM      9  C   UNL     1       5.089   3.644  17.324  0.00  0.00    +0.000 A 
ATOM     10  C   UNL     1       5.686   4.000  16.110  0.00  0.00    +0.000 A 
ATOM     11  C   UNL     1       5.480   5.264  15.570  0.00  0.00    +0.000 A 
ATOM     12  C   UNL     1       4.685   6.180  16.250  0.00  0.00    +0.000 A 
ATOM     13  C   UNL     1       4.093   5.835  17.479  0.00  0.00    +0.000 A 
ATOM     14  C   UNL     1       3.267   6.750  18.247  0.00  0.00    +0.000 A 
ATOM     15  S   UNL     1       2.930   8.327  17.766  0.00  0.00    +0.000 S 
ENDROOT
BRANCH   1  17
ATOM     16  N   UNL     1       0.074   9.810  20.099  0.00  0.00    +0.000 N 
ATOM     17  C   UNL     1       1.124   9.825  19.161  0.00  0.00    +0.000 C 
ATOM     18  O   UNL     1       1.447  10.778  18.492  0.00  0.00    +0.000 OA
ATOM     19  H   UNL     1      -0.035   8.973  20.653  0.00  0.00    +0.000 HD
BRANCH  16  23
ATOM     20  C   UNL     1      -2.471  13.105  20.886  0.00  0.00    +0.000 A 
ATOM     21  C   UNL     1      -2.580  12.358  19.714  0.00  0.00    +0.000 A 
ATOM     22  C   UNL     1      -1.762  11.271  19.463  0.00  0.00    +0.000 A 
ATOM     23  C   UNL     1      -0.770  10.904  20.360  0.00  0.00    +0.000 A 
ATOM     24  C   UNL     1      -0.659  11.633  21.556  0.00  0.00    +0.000 A 
ATOM     25  C   UNL     1      -1.499  12.726  21.821  0.00  0.00    +0.000 A 
ATOM     26 CL   UNL     1      -1.343  13.434  23.395  0.00  0.00    +0.000 Cl
BRANCH  20  28
ATOM     27  C   UNL     1      -4.679  13.749  21.339  0.00  0.00    +0.000 C 
ATOM     28  O   UNL     1      -3.326  14.163  21.087  0.00  0.00    +0.000 OA
ENDBRANCH  20  28
ENDBRANCH  16  23
ENDBRANCH   1  17
TORSDOF 3
ENDMDL
MODEL 9
REMARK VINA RESULT:      -7.6      3.060      9.242
REMARK  Name = 
REMARK  5 active torsions:
REMARK  status: ('A' for Active; 'I' for Inactive)
REMARK    1  A    between atoms: C_1  and  O_2
REMARK    2  A    between atoms: O_2  and  C_3
REMARK    3  A    between atoms: C_6  and  N_7
REMARK    4  A    between atoms: C_8  and  C_10
REMARK    5  A    between atoms: N_15  and  C_16
REMARK                            x       y       z     vdW  Elec       q    Type
REMARK                         _______ _______ _______ _____ _____    ______ ____
ROOT
ATOM      1  C   UNL     1       0.974   9.521  19.910  0.00  0.00    +0.000 A 
ATOM      2  C   UNL     1       0.340   9.755  21.119  0.00  0.00    +0.000 A 
ATOM      3  C   UNL     1      -0.036  11.136  21.239  0.00  0.00    +0.000 A 
ATOM      4  C   UNL     1      -0.645  11.797  22.387  0.00  0.00    +0.000 A 
ATOM      5  O   UNL     1      -0.907  11.161  23.401  0.00  0.00    +0.000 OA
ATOM      6  N   UNL     1      -0.897  13.178  22.246  0.00  0.00    +0.000 N 
ATOM      7  C   UNL     1      -1.522  13.859  23.365  0.00  0.00    +0.000 C 
ATOM      8  C   UNL     1      -0.574  13.922  21.052  0.00  0.00    +0.000 A 
ATOM      9  C   UNL     1      -0.844  15.294  20.940  0.00  0.00    +0.000 A 
ATOM     10  C   UNL     1      -0.516  16.002  19.778  0.00  0.00    +0.000 A 
ATOM     11  C   UNL     1       0.096  15.356  18.711  0.00  0.00    +0.000 A 
ATOM     12  C   UNL     1       0.372  13.995  18.798  0.00  0.00    +0.000 A 
ATOM     13  C   UNL     1       0.033  13.273  19.957  0.00  0.00    +0.000 A 
ATOM     14  C   UNL     1       0.277  11.849  20.106  0.00  0.00    +0.000 A 
ATOM     15  S   UNL     1       0.984  10.897  18.911  0.00  0.00    +0.000 S 
ENDROOT
BRANCH   1  17
ATOM     16  N   UNL     1       1.817   7.315  20.433  0.00  0.00    +0.000 N 
ATOM     17  C   UNL     1       1.650   8.305  19.446  0.00  0.00    +0.000 C 
ATOM     18  O   UNL     1       1.955   8.187  18.282  0.00  0.00    +0.000 OA
ATOM     19  H   UNL     1       1.442   7.512  21.350  0.00  0.00    +0.000 HD
BRANCH  16  23
ATOM     20  C   UNL     1       3.568   3.520  19.736  0.00  0.00    +0.000 A 
ATOM     21  C   UNL     1       4.095   4.684  19.178  0.00  0.00    +0.000 A 
ATOM     22  C   UNL     1       3.536   5.926  19.419  0.00  0.00    +0.000 A 
ATOM     23  C   UNL     1       2.398   6.055  20.201  0.00  0.00    +0.000 A 
ATOM     24  C   UNL     1       1.865   4.895  20.789  0.00  0.00    +0.000 A 
ATOM     25  C   UNL     1       2.441   3.636  20.560  0.00  0.00    +0.000 A 
ATOM     26 CL   UNL     1       1.765   2.321  21.465  0.00  0.00    +0.000 Cl
BRANCH  20  28
ATOM     27  C   UNL     1       3.557   1.594  18.401  0.00  0.00    +0.000 C 
ATOM     28  O   UNL     1       4.180   2.317  19.475  0.00  0.00    +0.000 OA
ENDBRANCH  20  28
ENDBRANCH  16  23
ENDBRANCH   1  17
TORSDOF 3
ENDMDL
