MODEL 1
REMARK VINA RESULT:      -7.2      0.000      0.000
REMARK  Name = 
REMARK  2 active torsions:
REMARK  status: ('A' for Active; 'I' for Inactive)
REMARK    1  A    between atoms: O_1  and  C_2
REMARK    2  A    between atoms: C_5  and  N_6
REMARK                            x       y       z     vdW  Elec       q    Type
REMARK                         _______ _______ _______ _____ _____    ______ ____
ROOT
ATOM      1  N   UNL     1       4.305   3.926  18.167  0.00  0.00    +0.000 N 
ATOM      2  C   UNL     1       4.577   3.254  19.340  0.00  0.00    +0.000 A 
ATOM      3  C   UNL     1       3.380   3.139  19.987  0.00  0.00    +0.000 A 
ATOM      4  C   UNL     1       3.186   2.525  21.217  0.00  0.00    +0.000 A 
ATOM      5  C   UNL     1       1.827   2.563  21.587  0.00  0.00    +0.000 A 
ATOM      6  C   UNL     1       0.799   3.157  20.786  0.00  0.00    +0.000 A 
ATOM      7  C   UNL     1       1.041   3.778  19.540  0.00  0.00    +0.000 A 
ATOM      8  C   UNL     1       2.391   3.755  19.150  0.00  0.00    +0.000 A 
ATOM      9  N   UNL     1       2.983   4.244  18.051  0.00  0.00    +0.000 NA
ENDROOT
BRANCH   1  13
ATOM     10  C   UNL     1       7.026   4.995  15.124  0.00  0.00    +0.000 A 
ATOM     11  C   UNL     1       7.443   5.019  16.449  0.00  0.00    +0.000 A 
ATOM     12  C   UNL     1       6.545   4.668  17.464  0.00  0.00    +0.000 A 
ATOM     13  C   UNL     1       5.232   4.288  17.147  0.00  0.00    +0.000 A 
ATOM     14  C   UNL     1       4.830   4.266  15.802  0.00  0.00    +0.000 A 
ATOM     15  C   UNL     1       5.728   4.624  14.793  0.00  0.00    +0.000 A 
BRANCH  10  16
ATOM     16  O   UNL     1       7.871   5.331  14.109  0.00  0.00    +0.000 OA
ATOM     17  H   UNL     1       7.832   6.291  13.976  0.00  0.00    +0.000 HD
ENDBRANCH  10  16
ENDBRANCH   1  13
TORSDOF 2
ENDMDL
MODEL 2
REMARK VINA RESULT:      -7.2      0.046      1.210
REMARK  Name = 
REMARK  2 active torsions:
REMARK  status: ('A' for Active; 'I' for Inactive)
REMARK    1  A    between atoms: O_1  and  C_2
REMARK    2  A    between atoms: C_5  and  N_6
REMARK                            x       y       z     vdW  Elec       q    Type
REMARK                         _______ _______ _______ _____ _____    ______ ____
ROOT
ATOM      1  N   UNL     1       4.281   3.929  18.150  0.00  0.00    +0.000 N 
ATOM      2  C   UNL     1       4.575   3.283  19.334  0.00  0.00    +0.000 A 
ATOM      3  C   UNL     1       3.384   3.150  19.987  0.00  0.00    +0.000 A 
ATOM      4  C   UNL     1       3.211   2.554  21.229  0.00  0.00    +0.000 A 
ATOM      5  C   UNL     1       1.852   2.566  21.605  0.00  0.00    +0.000 A 
ATOM      6  C   UNL     1       0.807   3.121  20.799  0.00  0.00    +0.000 A 
ATOM      7  C   UNL     1       1.028   3.726  19.541  0.00  0.00    +0.000 A 
ATOM      8  C   UNL     1       2.377   3.729  19.145  0.00  0.00    +0.000 A 
ATOM      9  N   UNL     1       2.952   4.212  18.035  0.00  0.00    +0.000 NA
ENDROOT
BRANCH   1  13
ATOM     10  C   UNL     1       7.009   5.014  15.119  0.00  0.00    +0.000 A 
ATOM     11  C   UNL     1       5.707   4.674  14.773  0.00  0.00    +0.000 A 
ATOM     12  C   UNL     1       4.797   4.311  15.773  0.00  0.00    +0.000 A 
ATOM     13  C   UNL     1       5.195   4.295  17.119  0.00  0.00    +0.000 A 
ATOM     14  C   UNL     1       6.513   4.645  17.449  0.00  0.00    +0.000 A 
ATOM     15  C   UNL     1       7.420   5.000  16.447  0.00  0.00    +0.000 A 
BRANCH  10  16
ATOM     16  O   UNL     1       7.923   5.372  14.173  0.00  0.00    +0.000 OA
ATOM     17  H   UNL     1       7.540   5.216  13.296  0.00  0.00    +0.000 HD
ENDBRANCH  10  16
ENDBRANCH   1  13
TORSDOF 2
ENDMDL
MODEL 3
REMARK VINA RESULT:      -7.2      0.533      1.539
REMARK  Name = 
REMARK  2 active torsions:
REMARK  status: ('A' for Active; 'I' for Inactive)
REMARK    1  A    between atoms: O_1  and  C_2
REMARK    2  A    between atoms: C_5  and  N_6
REMARK                            x       y       z     vdW  Elec       q    Type
REMARK                         _______ _______ _______ _____ _____    ______ ____
ROOT
ATOM      1  N   UNL     1       4.210   4.050  18.052  0.00  0.00    +0.000 N 
ATOM      2  C   UNL     1       2.851   4.285  18.019  0.00  0.00    +0.000 A 
ATOM      3  C   UNL     1       2.355   3.746  19.172  0.00  0.00    +0.000 A 
ATOM      4  C   UNL     1       1.020   3.755  19.554  0.00  0.00    +0.000 A 
ATOM      5  C   UNL     1       0.855   3.132  20.808  0.00  0.00    +0.000 A 
ATOM      6  C   UNL     1       1.931   2.575  21.569  0.00  0.00    +0.000 A 
ATOM      7  C   UNL     1       3.278   2.582  21.140  0.00  0.00    +0.000 A 
ATOM      8  C   UNL     1       3.468   3.196  19.890  0.00  0.00    +0.000 A 
ATOM      9  N   UNL     1       4.589   3.379  19.178  0.00  0.00    +0.000 NA
ENDROOT
BRANCH   1  13
ATOM     10  C   UNL     1       7.043   5.146  15.123  0.00  0.00    +0.000 A 
ATOM     11  C   UNL     1       7.184   5.625  16.420  0.00  0.00    +0.000 A 
ATOM     12  C   UNL     1       6.247   5.268  17.396  0.00  0.00    +0.000 A 
ATOM     13  C   UNL     1       5.173   4.425  17.070  0.00  0.00    +0.000 A 
ATOM     14  C   UNL     1       5.049   3.948  15.756  0.00  0.00    +0.000 A 
ATOM     15  C   UNL     1       5.983   4.313  14.784  0.00  0.00    +0.000 A 
BRANCH  10  16
ATOM     16  O   UNL     1       7.935   5.473  14.146  0.00  0.00    +0.000 OA
ATOM     17  H   UNL     1       8.615   6.052  14.526  0.00  0.00    +0.000 HD
ENDBRANCH  10  16
ENDBRANCH   1  13
TORSDOF 2
ENDMDL
MODEL 4
REMARK VINA RESULT:      -7.2      0.586      1.909
REMARK  Name = 
REMARK  2 active torsions:
REMARK  status: ('A' for Active; 'I' for Inactive)
REMARK    1  A    between atoms: O_1  and  C_2
REMARK    2  A    between atoms: C_5  and  N_6
REMARK                            x       y       z     vdW  Elec       q    Type
REMARK                         _______ _______ _______ _____ _____    ______ ____
ROOT
ATOM      1  N   UNL     1       4.218   4.053  18.020  0.00  0.00    +0.000 N 
ATOM      2  C   UNL     1       2.866   4.328  18.020  0.00  0.00    +0.000 A 
ATOM      3  C   UNL     1       2.380   3.786  19.175  0.00  0.00    +0.000 A 
ATOM      4  C   UNL     1       1.054   3.828  19.586  0.00  0.00    +0.000 A 
ATOM      5  C   UNL     1       0.897   3.191  20.834  0.00  0.00    +0.000 A 
ATOM      6  C   UNL     1       1.972   2.591  21.564  0.00  0.00    +0.000 A 
ATOM      7  C   UNL     1       3.309   2.565  21.105  0.00  0.00    +0.000 A 
ATOM      8  C   UNL     1       3.491   3.192  19.860  0.00  0.00    +0.000 A 
ATOM      9  N   UNL     1       4.602   3.354  19.127  0.00  0.00    +0.000 NA
ENDROOT
BRANCH   1  13
ATOM     10  C   UNL     1       7.052   5.143  15.089  0.00  0.00    +0.000 A 
ATOM     11  C   UNL     1       6.100   4.176  14.790  0.00  0.00    +0.000 A 
ATOM     12  C   UNL     1       5.159   3.808  15.757  0.00  0.00    +0.000 A 
ATOM     13  C   UNL     1       5.170   4.415  17.023  0.00  0.00    +0.000 A 
ATOM     14  C   UNL     1       6.137   5.392  17.306  0.00  0.00    +0.000 A 
ATOM     15  C   UNL     1       7.079   5.751  16.339  0.00  0.00    +0.000 A 
BRANCH  10  16
ATOM     16  O   UNL     1       7.985   5.527  14.173  0.00  0.00    +0.000 OA
ATOM     17  H   UNL     1       8.404   6.346  14.480  0.00  0.00    +0.000 HD
ENDBRANCH  10  16
ENDBRANCH   1  13
TORSDOF 2
ENDMDL
MODEL 5
REMARK VINA RESULT:      -6.9      1.173      1.664
REMARK  Name = 
REMARK  2 active torsions:
REMARK  status: ('A' for Active; 'I' for Inactive)
REMARK    1  A    between atoms: O_1  and  C_2
REMARK    2  A    between atoms: C_5  and  N_6
REMARK                            x       y       z     vdW  Elec       q    Type
REMARK                         _______ _______ _______ _____ _____    ______ ____
ROOT
ATOM      1  N   UNL     1       4.100   4.345  17.508  0.00  0.00    +0.000 N 
ATOM      2  C   UNL     1       3.939   4.925  18.749  0.00  0.00    +0.000 A 
ATOM      3  C   UNL     1       2.831   4.339  19.290  0.00  0.00    +0.000 A 
ATOM      4  C   UNL     1       2.299   4.626  20.540  0.00  0.00    +0.000 A 
ATOM      5  C   UNL     1       1.166   3.828  20.797  0.00  0.00    +0.000 A 
ATOM      6  C   UNL     1       0.650   2.857  19.880  0.00  0.00    +0.000 A 
ATOM      7  C   UNL     1       1.219   2.600  18.612  0.00  0.00    +0.000 A 
ATOM      8  C   UNL     1       2.351   3.386  18.331  0.00  0.00    +0.000 A 
ATOM      9  N   UNL     1       3.133   3.419  17.243  0.00  0.00    +0.000 NA
ENDROOT
BRANCH   1  13
ATOM     10  C   UNL     1       7.142   5.179  14.705  0.00  0.00    +0.000 A 
ATOM     11  C   UNL     1       6.101   4.331  14.348  0.00  0.00    +0.000 A 
ATOM     12  C   UNL     1       5.090   4.047  15.273  0.00  0.00    +0.000 A 
ATOM     13  C   UNL     1       5.122   4.621  16.553  0.00  0.00    +0.000 A 
ATOM     14  C   UNL     1       6.179   5.479  16.895  0.00  0.00    +0.000 A 
ATOM     15  C   UNL     1       7.190   5.753  15.970  0.00  0.00    +0.000 A 
BRANCH  10  16
ATOM     16  O   UNL     1       8.144   5.478  13.831  0.00  0.00    +0.000 OA
ATOM     17  H   UNL     1       7.843   6.188  13.243  0.00  0.00    +0.000 HD
ENDBRANCH  10  16
ENDBRANCH   1  13
TORSDOF 2
ENDMDL
MODEL 6
REMARK VINA RESULT:      -6.9      1.111      1.152
REMARK  Name = 
REMARK  2 active torsions:
REMARK  status: ('A' for Active; 'I' for Inactive)
REMARK    1  A    between atoms: O_1  and  C_2
REMARK    2  A    between atoms: C_5  and  N_6
REMARK                            x       y       z     vdW  Elec       q    Type
REMARK                         _______ _______ _______ _____ _____    ______ ____
ROOT
ATOM      1  N   UNL     1       4.103   4.343  17.601  0.00  0.00    +0.000 N 
ATOM      2  C   UNL     1       3.965   4.866  18.870  0.00  0.00    +0.000 A 
ATOM      3  C   UNL     1       2.847   4.281  19.391  0.00  0.00    +0.000 A 
ATOM      4  C   UNL     1       2.332   4.518  20.658  0.00  0.00    +0.000 A 
ATOM      5  C   UNL     1       1.182   3.736  20.885  0.00  0.00    +0.000 A 
ATOM      6  C   UNL     1       0.637   2.823  19.927  0.00  0.00    +0.000 A 
ATOM      7  C   UNL     1       1.191   2.615  18.643  0.00  0.00    +0.000 A 
ATOM      8  C   UNL     1       2.338   3.387  18.392  0.00  0.00    +0.000 A 
ATOM      9  N   UNL     1       3.113   3.454  17.300  0.00  0.00    +0.000 NA
ENDROOT
BRANCH   1  13
ATOM     10  C   UNL     1       7.112   5.210  14.772  0.00  0.00    +0.000 A 
ATOM     11  C   UNL     1       7.167   5.803  16.028  0.00  0.00    +0.000 A 
ATOM     12  C   UNL     1       6.171   5.522  16.970  0.00  0.00    +0.000 A 
ATOM     13  C   UNL     1       5.125   4.642  16.653  0.00  0.00    +0.000 A 
ATOM     14  C   UNL     1       5.089   4.049  15.381  0.00  0.00    +0.000 A 
ATOM     15  C   UNL     1       6.082   4.339  14.441  0.00  0.00    +0.000 A 
BRANCH  10  16
ATOM     16  O   UNL     1       8.063   5.460  13.828  0.00  0.00    +0.000 OA
ATOM     17  H   UNL     1       7.626   5.584  12.971  0.00  0.00    +0.000 HD
ENDBRANCH  10  16
ENDBRANCH   1  13
TORSDOF 2
ENDMDL
MODEL 7
REMARK VINA RESULT:      -6.9      2.925      6.466
REMARK  Name = 
REMARK  2 active torsions:
REMARK  status: ('A' for Active; 'I' for Inactive)
REMARK    1  A    between atoms: O_1  and  C_2
REMARK    2  A    between atoms: C_5  and  N_6
REMARK                            x       y       z     vdW  Elec       q    Type
REMARK                         _______ _______ _______ _____ _____    ______ ____
ROOT
ATOM      1  N   UNL     1       4.147   3.839  18.254  0.00  0.00    +0.000 N 
ATOM      2  C   UNL     1       3.849   3.830  16.907  0.00  0.00    +0.000 A 
ATOM      3  C   UNL     1       4.994   4.218  16.273  0.00  0.00    +0.000 A 
ATOM      4  C   UNL     1       5.147   4.349  14.899  0.00  0.00    +0.000 A 
ATOM      5  C   UNL     1       6.460   4.748  14.577  0.00  0.00    +0.000 A 
ATOM      6  C   UNL     1       7.484   4.980  15.550  0.00  0.00    +0.000 A 
ATOM      7  C   UNL     1       7.284   4.841  16.943  0.00  0.00    +0.000 A 
ATOM      8  C   UNL     1       5.980   4.446  17.289  0.00  0.00    +0.000 A 
ATOM      9  N   UNL     1       5.435   4.223  18.493  0.00  0.00    +0.000 NA
ENDROOT
BRANCH   1  13
ATOM     10  C   UNL     1       1.592   2.834  21.458  0.00  0.00    +0.000 A 
ATOM     11  C   UNL     1       1.130   3.681  20.458  0.00  0.00    +0.000 A 
ATOM     12  C   UNL     1       1.972   4.021  19.394  0.00  0.00    +0.000 A 
ATOM     13  C   UNL     1       3.276   3.505  19.331  0.00  0.00    +0.000 A 
ATOM     14  C   UNL     1       3.724   2.648  20.349  0.00  0.00    +0.000 A 
ATOM     15  C   UNL     1       2.881   2.318  21.413  0.00  0.00    +0.000 A 
BRANCH  10  16
ATOM     16  O   UNL     1       0.801   2.482  22.510  0.00  0.00    +0.000 OA
ATOM     17  H   UNL     1       1.208   1.729  22.968  0.00  0.00    +0.000 HD
ENDBRANCH  10  16
ENDBRANCH   1  13
TORSDOF 2
ENDMDL
MODEL 8
REMARK VINA RESULT:      -6.9      1.154      1.672
REMARK  Name = 
REMARK  2 active torsions:
REMARK  status: ('A' for Active; 'I' for Inactive)
REMARK    1  A    between atoms: O_1  and  C_2
REMARK    2  A    between atoms: C_5  and  N_6
REMARK                            x       y       z     vdW  Elec       q    Type
REMARK                         _______ _______ _______ _____ _____    ______ ____
ROOT
ATOM      1  N   UNL     1       4.211   4.147  17.543  0.00  0.00    +0.000 N 
ATOM      2  C   UNL     1       3.558   2.940  17.681  0.00  0.00    +0.000 A 
ATOM      3  C   UNL     1       2.697   3.103  18.728  0.00  0.00    +0.000 A 
ATOM      4  C   UNL     1       1.835   2.132  19.219  0.00  0.00    +0.000 A 
ATOM      5  C   UNL     1       1.071   2.636  20.291  0.00  0.00    +0.000 A 
ATOM      6  C   UNL     1       1.183   3.973  20.790  0.00  0.00    +0.000 A 
ATOM      7  C   UNL     1       2.080   4.930  20.265  0.00  0.00    +0.000 A 
ATOM      8  C   UNL     1       2.856   4.450  19.195  0.00  0.00    +0.000 A 
ATOM      9  N   UNL     1       3.798   5.064  18.466  0.00  0.00    +0.000 NA
ENDROOT
BRANCH   1  13
ATOM     10  C   UNL     1       7.185   5.152  14.723  0.00  0.00    +0.000 A 
ATOM     11  C   UNL     1       6.117   4.354  14.332  0.00  0.00    +0.000 A 
ATOM     12  C   UNL     1       5.128   4.015  15.262  0.00  0.00    +0.000 A 
ATOM     13  C   UNL     1       5.210   4.482  16.583  0.00  0.00    +0.000 A 
ATOM     14  C   UNL     1       6.294   5.290  16.959  0.00  0.00    +0.000 A 
ATOM     15  C   UNL     1       7.283   5.620  16.028  0.00  0.00    +0.000 A 
BRANCH  10  16
ATOM     16  O   UNL     1       8.168   5.502  13.846  0.00  0.00    +0.000 OA
ATOM     17  H   UNL     1       8.214   6.470  13.800  0.00  0.00    +0.000 HD
ENDBRANCH  10  16
ENDBRANCH   1  13
TORSDOF 2
ENDMDL
MODEL 9
REMARK VINA RESULT:      -6.8      2.936      6.393
REMARK  Name = 
REMARK  2 active torsions:
REMARK  status: ('A' for Active; 'I' for Inactive)
REMARK    1  A    between atoms: O_1  and  C_2
REMARK    2  A    between atoms: C_5  and  N_6
REMARK                            x       y       z     vdW  Elec       q    Type
REMARK                         _______ _______ _______ _____ _____    ______ ____
ROOT
ATOM      1  N   UNL     1       4.202   3.804  18.333  0.00  0.00    +0.000 N 
ATOM      2  C   UNL     1       3.882   3.847  16.992  0.00  0.00    +0.000 A 
ATOM      3  C   UNL     1       5.025   4.232  16.352  0.00  0.00    +0.000 A 
ATOM      4  C   UNL     1       5.160   4.406  14.981  0.00  0.00    +0.000 A 
ATOM      5  C   UNL     1       6.476   4.788  14.652  0.00  0.00    +0.000 A 
ATOM      6  C   UNL     1       7.519   4.965  15.616  0.00  0.00    +0.000 A 
ATOM      7  C   UNL     1       7.338   4.783  17.006  0.00  0.00    +0.000 A 
ATOM      8  C   UNL     1       6.032   4.404  17.360  0.00  0.00    +0.000 A 
ATOM      9  N   UNL     1       5.500   4.152  18.564  0.00  0.00    +0.000 NA
ENDROOT
BRANCH   1  13
ATOM     10  C   UNL     1       1.627   2.777  21.515  0.00  0.00    +0.000 A 
ATOM     11  C   UNL     1       2.919   2.267  21.493  0.00  0.00    +0.000 A 
ATOM     12  C   UNL     1       3.778   2.601  20.439  0.00  0.00    +0.000 A 
ATOM     13  C   UNL     1       3.340   3.452  19.413  0.00  0.00    +0.000 A 
ATOM     14  C   UNL     1       2.033   3.961  19.455  0.00  0.00    +0.000 A 
ATOM     15  C   UNL     1       1.177   3.619  20.505  0.00  0.00    +0.000 A 
BRANCH  10  16
ATOM     16  O   UNL     1       0.763   2.474  22.524  0.00  0.00    +0.000 OA
ATOM     17  H   UNL     1       0.651   1.510  22.558  0.00  0.00    +0.000 HD
ENDBRANCH  10  16
ENDBRANCH   1  13
TORSDOF 2
ENDMDL
