MODEL 1
REMARK VINA RESULT:      -7.2      0.000      0.000
REMARK  Name = 
REMARK  5 active torsions:
REMARK  status: ('A' for Active; 'I' for Inactive)
REMARK    1  A    between atoms: C_1  and  C_2
REMARK    2  A    between atoms: C_2  and  O_3
REMARK    3  A    between atoms: C_2  and  C_19
REMARK    4  A    between atoms: O_3  and  C_4
REMARK    5  A    between atoms: C_7  and  C_8
REMARK                            x       y       z     vdW  Elec       q    Type
REMARK                         _______ _______ _______ _____ _____    ______ ____
ROOT
ATOM      1  C   UNL     1       4.167   5.511  18.884  0.00  0.00    +0.000 A 
ATOM      2  C   UNL     1       5.266   4.641  18.759  0.00  0.00    +0.000 A 
ATOM      3  C   UNL     1       6.107   4.680  17.638  0.00  0.00    +0.000 A 
ATOM      4  C   UNL     1       5.843   5.587  16.616  0.00  0.00    +0.000 A 
ATOM      5  C   UNL     1       4.754   6.455  16.733  0.00  0.00    +0.000 A 
ATOM      6  C   UNL     1       3.949   6.456  17.875  0.00  0.00    +0.000 A 
ATOM      7 CL   UNL     1       2.827   7.767  17.958  0.00  0.00    +0.000 Cl
ENDROOT
BRANCH   4   8
ATOM      8  C   UNL     1       6.719   5.766  15.453  0.00  0.00    +0.000 C 
ATOM      9  C   UNL     1       6.596   5.043  14.331  0.00  0.00    +0.000 C 
ATOM     10  S   UNL     1       5.353   3.913  13.929  0.00  0.00    +0.000 S 
ATOM     11  C   UNL     1       6.170   3.412  12.468  0.00  0.00    +0.000 C 
ATOM     12  O   UNL     1       5.771   2.531  11.721  0.00  0.00    +0.000 OA
ATOM     13  N   UNL     1       7.305   4.134  12.305  0.00  0.00    +0.000 N 
ATOM     14  C   UNL     1       7.639   5.035  13.273  0.00  0.00    +0.000 C 
ATOM     15  O   UNL     1       8.668   5.692  13.291  0.00  0.00    +0.000 OA
ATOM     16  H   UNL     1       7.926   3.946  11.534  0.00  0.00    +0.000 HD
ENDBRANCH   4   8
BRANCH   1  17
ATOM     17  O   UNL     1       3.485   5.371  20.065  0.00  0.00    +0.000 OA
BRANCH  17  19
ATOM     18  C   UNL     1       1.504   6.520  20.784  0.00  0.00    +0.000 C 
ATOM     19  C   UNL     1       2.051   5.312  20.025  0.00  0.00    +0.000 C 
BRANCH  19  20
ATOM     20  C   UNL     1       1.603   4.033  20.698  0.00  0.00    +0.000 C 
ATOM     21  C   UNL     1       0.877   2.969  19.905  0.00  0.00    +0.000 C 
ATOM     22  C   UNL     1       2.284   2.726  20.373  0.00  0.00    +0.000 C 
ENDBRANCH  19  20
ENDBRANCH  17  19
ENDBRANCH   1  17
TORSDOF 4
ENDMDL
MODEL 2
REMARK VINA RESULT:      -7.1      4.069      7.269
REMARK  Name = 
REMARK  5 active torsions:
REMARK  status: ('A' for Active; 'I' for Inactive)
REMARK    1  A    between atoms: C_1  and  C_2
REMARK    2  A    between atoms: C_2  and  O_3
REMARK    3  A    between atoms: C_2  and  C_19
REMARK    4  A    between atoms: O_3  and  C_4
REMARK    5  A    between atoms: C_7  and  C_8
REMARK                            x       y       z     vdW  Elec       q    Type
REMARK                         _______ _______ _______ _____ _____    ______ ____
ROOT
ATOM      1  C   UNL     1       5.804   6.385  16.700  0.00  0.00    +0.000 A 
ATOM      2  C   UNL     1       4.728   7.031  17.337  0.00  0.00    +0.000 A 
ATOM      3  C   UNL     1       3.536   6.352  17.630  0.00  0.00    +0.000 A 
ATOM      4  C   UNL     1       3.405   5.014  17.270  0.00  0.00    +0.000 A 
ATOM      5  C   UNL     1       4.468   4.366  16.637  0.00  0.00    +0.000 A 
ATOM      6  C   UNL     1       5.677   5.024  16.396  0.00  0.00    +0.000 A 
ATOM      7 CL   UNL     1       6.956   3.997  15.855  0.00  0.00    +0.000 Cl
ENDROOT
BRANCH   4   8
ATOM      8  C   UNL     1       2.236   4.198  17.619  0.00  0.00    +0.000 C 
ATOM      9  C   UNL     1       1.953   3.832  18.877  0.00  0.00    +0.000 C 
ATOM     10  S   UNL     1       2.741   4.334  20.330  0.00  0.00    +0.000 S 
ATOM     11  C   UNL     1       1.826   3.212  21.309  0.00  0.00    +0.000 C 
ATOM     12  O   UNL     1       1.984   3.056  22.510  0.00  0.00    +0.000 OA
ATOM     13  N   UNL     1       0.937   2.545  20.533  0.00  0.00    +0.000 N 
ATOM     14  C   UNL     1       0.938   2.793  19.192  0.00  0.00    +0.000 C 
ATOM     15  O   UNL     1       0.248   2.209  18.373  0.00  0.00    +0.000 OA
ATOM     16  H   UNL     1       0.354   1.824  20.927  0.00  0.00    +0.000 HD
ENDBRANCH   4   8
BRANCH   1  17
ATOM     17  O   UNL     1       6.907   7.182  16.536  0.00  0.00    +0.000 OA
BRANCH  17  19
ATOM     18  C   UNL     1       7.516   6.182  18.632  0.00  0.00    +0.000 C 
ATOM     19  C   UNL     1       7.855   7.268  17.611  0.00  0.00    +0.000 C 
BRANCH  19  20
ATOM     20  C   UNL     1       7.735   8.633  18.251  0.00  0.00    +0.000 C 
ATOM     21  C   UNL     1       8.957   9.312  18.829  0.00  0.00    +0.000 C 
ATOM     22  C   UNL     1       8.330   9.843  17.572  0.00  0.00    +0.000 C 
ENDBRANCH  19  20
ENDBRANCH  17  19
ENDBRANCH   1  17
TORSDOF 4
ENDMDL
MODEL 3
REMARK VINA RESULT:      -7.1      4.066      6.960
REMARK  Name = 
REMARK  5 active torsions:
REMARK  status: ('A' for Active; 'I' for Inactive)
REMARK    1  A    between atoms: C_1  and  C_2
REMARK    2  A    between atoms: C_2  and  O_3
REMARK    3  A    between atoms: C_2  and  C_19
REMARK    4  A    between atoms: O_3  and  C_4
REMARK    5  A    between atoms: C_7  and  C_8
REMARK                            x       y       z     vdW  Elec       q    Type
REMARK                         _______ _______ _______ _____ _____    ______ ____
ROOT
ATOM      1  C   UNL     1       5.649   6.286  16.806  0.00  0.00    +0.000 A 
ATOM      2  C   UNL     1       4.657   6.827  17.645  0.00  0.00    +0.000 A 
ATOM      3  C   UNL     1       3.462   6.140  17.903  0.00  0.00    +0.000 A 
ATOM      4  C   UNL     1       3.243   4.902  17.308  0.00  0.00    +0.000 A 
ATOM      5  C   UNL     1       4.223   4.357  16.473  0.00  0.00    +0.000 A 
ATOM      6  C   UNL     1       5.437   5.014  16.260  0.00  0.00    +0.000 A 
ATOM      7 CL   UNL     1       6.623   4.074  15.426  0.00  0.00    +0.000 Cl
ENDROOT
BRANCH   4   8
ATOM      8  C   UNL     1       2.069   4.068  17.593  0.00  0.00    +0.000 C 
ATOM      9  C   UNL     1       1.742   3.670  18.830  0.00  0.00    +0.000 C 
ATOM     10  S   UNL     1       2.470   4.145  20.323  0.00  0.00    +0.000 S 
ATOM     11  C   UNL     1       1.528   2.992  21.241  0.00  0.00    +0.000 C 
ATOM     12  O   UNL     1       1.643   2.809  22.443  0.00  0.00    +0.000 OA
ATOM     13  N   UNL     1       0.676   2.336  20.416  0.00  0.00    +0.000 N 
ATOM     14  C   UNL     1       0.726   2.616  19.083  0.00  0.00    +0.000 C 
ATOM     15  O   UNL     1       0.072   2.046  18.224  0.00  0.00    +0.000 OA
ATOM     16  H   UNL     1       0.085   1.601  20.771  0.00  0.00    +0.000 HD
ENDBRANCH   4   8
BRANCH   1  17
ATOM     17  O   UNL     1       6.771   7.066  16.704  0.00  0.00    +0.000 OA
BRANCH  17  19
ATOM     18  C   UNL     1       8.113   8.893  17.494  0.00  0.00    +0.000 C 
ATOM     19  C   UNL     1       7.304   7.661  17.898  0.00  0.00    +0.000 C 
BRANCH  19  20
ATOM     20  C   UNL     1       8.203   6.653  18.578  0.00  0.00    +0.000 C 
ATOM     21  C   UNL     1       7.678   5.816  19.724  0.00  0.00    +0.000 C 
ATOM     22  C   UNL     1       7.959   5.175  18.396  0.00  0.00    +0.000 C 
ENDBRANCH  19  20
ENDBRANCH  17  19
ENDBRANCH   1  17
TORSDOF 4
ENDMDL
MODEL 4
REMARK VINA RESULT:      -7.0      3.849      5.724
REMARK  Name = 
REMARK  5 active torsions:
REMARK  status: ('A' for Active; 'I' for Inactive)
REMARK    1  A    between atoms: C_1  and  C_2
REMARK    2  A    between atoms: C_2  and  O_3
REMARK    3  A    between atoms: C_2  and  C_19
REMARK    4  A    between atoms: O_3  and  C_4
REMARK    5  A    between atoms: C_7  and  C_8
REMARK                            x       y       z     vdW  Elec       q    Type
REMARK                         _______ _______ _______ _____ _____    ______ ____
ROOT
ATOM      1  C   UNL     1       1.319   9.346  19.148  0.00  0.00    +0.000 A 
ATOM      2  C   UNL     1       1.696   9.017  17.832  0.00  0.00    +0.000 A 
ATOM      3  C   UNL     1       2.328   7.801  17.533  0.00  0.00    +0.000 A 
ATOM      4  C   UNL     1       2.604   6.904  18.560  0.00  0.00    +0.000 A 
ATOM      5  C   UNL     1       2.234   7.223  19.869  0.00  0.00    +0.000 A 
ATOM      6  C   UNL     1       1.553   8.407  20.160  0.00  0.00    +0.000 A 
ATOM      7 CL   UNL     1       0.943   8.505  21.774  0.00  0.00    +0.000 Cl
ENDROOT
BRANCH   4   8
ATOM      8  C   UNL     1       3.174   5.571  18.332  0.00  0.00    +0.000 C 
ATOM      9  C   UNL     1       4.353   5.377  17.726  0.00  0.00    +0.000 C 
ATOM     10  S   UNL     1       5.506   6.571  17.244  0.00  0.00    +0.000 S 
ATOM     11  C   UNL     1       6.505   5.391  16.427  0.00  0.00    +0.000 C 
ATOM     12  O   UNL     1       7.519   5.661  15.801  0.00  0.00    +0.000 OA
ATOM     13  N   UNL     1       5.975   4.154  16.584  0.00  0.00    +0.000 N 
ATOM     14  C   UNL     1       4.795   4.038  17.257  0.00  0.00    +0.000 C 
ATOM     15  O   UNL     1       4.173   2.999  17.402  0.00  0.00    +0.000 OA
ATOM     16  H   UNL     1       6.399   3.355  16.139  0.00  0.00    +0.000 HD
ENDBRANCH   4   8
BRANCH   1  17
ATOM     17  O   UNL     1       0.669  10.547  19.251  0.00  0.00    +0.000 OA
BRANCH  17  19
ATOM     18  C   UNL     1      -1.545  10.654  18.331  0.00  0.00    +0.000 C 
ATOM     19  C   UNL     1      -0.721  10.546  19.613  0.00  0.00    +0.000 C 
BRANCH  19  20
ATOM     20  C   UNL     1      -0.988  11.742  20.501  0.00  0.00    +0.000 C 
ATOM     21  C   UNL     1      -1.142  11.561  21.995  0.00  0.00    +0.000 C 
ATOM     22  C   UNL     1       0.080  12.239  21.444  0.00  0.00    +0.000 C 
ENDBRANCH  19  20
ENDBRANCH  17  19
ENDBRANCH   1  17
TORSDOF 4
ENDMDL
MODEL 5
REMARK VINA RESULT:      -7.0      0.897      1.104
REMARK  Name = 
REMARK  5 active torsions:
REMARK  status: ('A' for Active; 'I' for Inactive)
REMARK    1  A    between atoms: C_1  and  C_2
REMARK    2  A    between atoms: C_2  and  O_3
REMARK    3  A    between atoms: C_2  and  C_19
REMARK    4  A    between atoms: O_3  and  C_4
REMARK    5  A    between atoms: C_7  and  C_8
REMARK                            x       y       z     vdW  Elec       q    Type
REMARK                         _______ _______ _______ _____ _____    ______ ____
ROOT
ATOM      1  C   UNL     1       4.305   4.819  18.938  0.00  0.00    +0.000 A 
ATOM      2  C   UNL     1       5.549   4.178  18.785  0.00  0.00    +0.000 A 
ATOM      3  C   UNL     1       6.349   4.392  17.654  0.00  0.00    +0.000 A 
ATOM      4  C   UNL     1       5.901   5.245  16.651  0.00  0.00    +0.000 A 
ATOM      5  C   UNL     1       4.667   5.886  16.794  0.00  0.00    +0.000 A 
ATOM      6  C   UNL     1       3.895   5.718  17.946  0.00  0.00    +0.000 A 
ATOM      7 CL   UNL     1       2.543   6.787  18.064  0.00  0.00    +0.000 Cl
ENDROOT
BRANCH   4   8
ATOM      8  C   UNL     1       6.709   5.605  15.479  0.00  0.00    +0.000 C 
ATOM      9  C   UNL     1       6.629   4.952  14.312  0.00  0.00    +0.000 C 
ATOM     10  S   UNL     1       5.508   3.715  13.864  0.00  0.00    +0.000 S 
ATOM     11  C   UNL     1       6.324   3.414  12.347  0.00  0.00    +0.000 C 
ATOM     12  O   UNL     1       6.001   2.546  11.550  0.00  0.00    +0.000 OA
ATOM     13  N   UNL     1       7.363   4.273  12.207  0.00  0.00    +0.000 N 
ATOM     14  C   UNL     1       7.627   5.137  13.228  0.00  0.00    +0.000 C 
ATOM     15  O   UNL     1       8.575   5.906  13.265  0.00  0.00    +0.000 OA
ATOM     16  H   UNL     1       7.974   4.212  11.407  0.00  0.00    +0.000 HD
ENDBRANCH   4   8
BRANCH   1  17
ATOM     17  O   UNL     1       3.680   4.535  20.124  0.00  0.00    +0.000 OA
BRANCH  17  19
ATOM     18  C   UNL     1       1.845   3.884  21.527  0.00  0.00    +0.000 C 
ATOM     19  C   UNL     1       2.337   4.029  20.087  0.00  0.00    +0.000 C 
BRANCH  19  20
ATOM     20  C   UNL     1       2.350   2.677  19.409  0.00  0.00    +0.000 C 
ATOM     21  C   UNL     1       1.086   2.125  18.786  0.00  0.00    +0.000 C 
ATOM     22  C   UNL     1       2.216   2.580  17.908  0.00  0.00    +0.000 C 
ENDBRANCH  19  20
ENDBRANCH  17  19
ENDBRANCH   1  17
TORSDOF 4
ENDMDL
MODEL 6
REMARK VINA RESULT:      -6.9      4.151      6.243
REMARK  Name = 
REMARK  5 active torsions:
REMARK  status: ('A' for Active; 'I' for Inactive)
REMARK    1  A    between atoms: C_1  and  C_2
REMARK    2  A    between atoms: C_2  and  O_3
REMARK    3  A    between atoms: C_2  and  C_19
REMARK    4  A    between atoms: O_3  and  C_4
REMARK    5  A    between atoms: C_7  and  C_8
REMARK                            x       y       z     vdW  Elec       q    Type
REMARK                         _______ _______ _______ _____ _____    ______ ____
ROOT
ATOM      1  C   UNL     1       1.170   9.332  18.875  0.00  0.00    +0.000 A 
ATOM      2  C   UNL     1       1.805   8.691  17.795  0.00  0.00    +0.000 A 
ATOM      3  C   UNL     1       2.529   7.503  17.973  0.00  0.00    +0.000 A 
ATOM      4  C   UNL     1       2.637   6.951  19.245  0.00  0.00    +0.000 A 
ATOM      5  C   UNL     1       2.009   7.582  20.323  0.00  0.00    +0.000 A 
ATOM      6  C   UNL     1       1.240   8.733  20.139  0.00  0.00    +0.000 A 
ATOM      7 CL   UNL     1       0.328   9.214  21.525  0.00  0.00    +0.000 Cl
ENDROOT
BRANCH   4   8
ATOM      8  C   UNL     1       3.291   5.665  19.512  0.00  0.00    +0.000 C 
ATOM      9  C   UNL     1       4.460   5.314  18.960  0.00  0.00    +0.000 C 
ATOM     10  S   UNL     1       5.511   6.289  17.995  0.00  0.00    +0.000 S 
ATOM     11  C   UNL     1       6.563   4.940  17.635  0.00  0.00    +0.000 C 
ATOM     12  O   UNL     1       7.535   5.000  16.897  0.00  0.00    +0.000 OA
ATOM     13  N   UNL     1       6.126   3.832  18.283  0.00  0.00    +0.000 N 
ATOM     14  C   UNL     1       4.980   3.923  19.015  0.00  0.00    +0.000 C 
ATOM     15  O   UNL     1       4.436   2.989  19.581  0.00  0.00    +0.000 OA
ATOM     16  H   UNL     1       6.591   2.947  18.153  0.00  0.00    +0.000 HD
ENDBRANCH   4   8
BRANCH   1  17
ATOM     17  O   UNL     1       0.466  10.451  18.515  0.00  0.00    +0.000 OA
BRANCH  17  19
ATOM     18  C   UNL     1      -1.576  10.054  17.318  0.00  0.00    +0.000 C 
ATOM     19  C   UNL     1      -0.962  10.441  18.663  0.00  0.00    +0.000 C 
BRANCH  19  20
ATOM     20  C   UNL     1      -1.416  11.829  19.057  0.00  0.00    +0.000 C 
ATOM     21  C   UNL     1      -1.756  12.138  20.499  0.00  0.00    +0.000 C 
ATOM     22  C   UNL     1      -0.515  12.715  19.882  0.00  0.00    +0.000 C 
ENDBRANCH  19  20
ENDBRANCH  17  19
ENDBRANCH   1  17
TORSDOF 4
ENDMDL
MODEL 7
REMARK VINA RESULT:      -6.8      5.537      7.816
REMARK  Name = 
REMARK  5 active torsions:
REMARK  status: ('A' for Active; 'I' for Inactive)
REMARK    1  A    between atoms: C_1  and  C_2
REMARK    2  A    between atoms: C_2  and  O_3
REMARK    3  A    between atoms: C_2  and  C_19
REMARK    4  A    between atoms: O_3  and  C_4
REMARK    5  A    between atoms: C_7  and  C_8
REMARK                            x       y       z     vdW  Elec       q    Type
REMARK                         _______ _______ _______ _____ _____    ______ ____
ROOT
ATOM      1  C   UNL     1       2.227   6.964  19.861  0.00  0.00    +0.000 A 
ATOM      2  C   UNL     1       1.318   7.398  20.844  0.00  0.00    +0.000 A 
ATOM      3  C   UNL     1       0.713   8.662  20.775  0.00  0.00    +0.000 A 
ATOM      4  C   UNL     1       1.028   9.514  19.721  0.00  0.00    +0.000 A 
ATOM      5  C   UNL     1       1.930   9.090  18.741  0.00  0.00    +0.000 A 
ATOM      6  C   UNL     1       2.489   7.810  18.778  0.00  0.00    +0.000 A 
ATOM      7 CL   UNL     1       3.362   7.370  17.353  0.00  0.00    +0.000 Cl
ENDROOT
BRANCH   4   8
ATOM      8  C   UNL     1       0.376  10.812  19.513  0.00  0.00    +0.000 C 
ATOM      9  C   UNL     1      -0.589  11.005  18.604  0.00  0.00    +0.000 C 
ATOM     10  S   UNL     1      -1.380   9.818  17.630  0.00  0.00    +0.000 S 
ATOM     11  C   UNL     1      -2.245  11.030  16.714  0.00  0.00    +0.000 C 
ATOM     12  O   UNL     1      -2.987  10.786  15.774  0.00  0.00    +0.000 OA
ATOM     13  N   UNL     1      -1.956  12.263  17.196  0.00  0.00    +0.000 N 
ATOM     14  C   UNL     1      -1.051  12.362  18.211  0.00  0.00    +0.000 C 
ATOM     15  O   UNL     1      -0.643  13.410  18.684  0.00  0.00    +0.000 OA
ATOM     16  H   UNL     1      -2.335  13.086  16.756  0.00  0.00    +0.000 HD
ENDBRANCH   4   8
BRANCH   1  17
ATOM     17  O   UNL     1       2.682   5.686  20.058  0.00  0.00    +0.000 OA
BRANCH  17  19
ATOM     18  C   UNL     1       2.108   3.850  21.492  0.00  0.00    +0.000 C 
ATOM     19  C   UNL     1       1.721   4.636  20.240  0.00  0.00    +0.000 C 
BRANCH  19  20
ATOM     20  C   UNL     1       1.761   3.730  19.029  0.00  0.00    +0.000 C 
ATOM     21  C   UNL     1       1.462   4.285  17.654  0.00  0.00    +0.000 C 
ATOM     22  C   UNL     1       2.863   3.878  18.009  0.00  0.00    +0.000 C 
ENDBRANCH  19  20
ENDBRANCH  17  19
ENDBRANCH   1  17
TORSDOF 4
ENDMDL
MODEL 8
REMARK VINA RESULT:      -6.8      4.886      7.149
REMARK  Name = 
REMARK  5 active torsions:
REMARK  status: ('A' for Active; 'I' for Inactive)
REMARK    1  A    between atoms: C_1  and  C_2
REMARK    2  A    between atoms: C_2  and  O_3
REMARK    3  A    between atoms: C_2  and  C_19
REMARK    4  A    between atoms: O_3  and  C_4
REMARK    5  A    between atoms: C_7  and  C_8
REMARK                            x       y       z     vdW  Elec       q    Type
REMARK                         _______ _______ _______ _____ _____    ______ ____
ROOT
ATOM      1  C   UNL     1       1.202   9.344  19.018  0.00  0.00    +0.000 A 
ATOM      2  C   UNL     1       1.793   8.901  17.820  0.00  0.00    +0.000 A 
ATOM      3  C   UNL     1       2.552   7.722  17.771  0.00  0.00    +0.000 A 
ATOM      4  C   UNL     1       2.740   6.981  18.932  0.00  0.00    +0.000 A 
ATOM      5  C   UNL     1       2.156   7.414  20.126  0.00  0.00    +0.000 A 
ATOM      6  C   UNL     1       1.353   8.556  20.165  0.00  0.00    +0.000 A 
ATOM      7 CL   UNL     1       0.505   8.785  21.653  0.00  0.00    +0.000 Cl
ENDROOT
BRANCH   4   8
ATOM      8  C   UNL     1       3.436   5.689  18.959  0.00  0.00    +0.000 C 
ATOM      9  C   UNL     1       3.023   4.654  19.703  0.00  0.00    +0.000 C 
ATOM     10  S   UNL     1       1.568   4.527  20.627  0.00  0.00    +0.000 S 
ATOM     11  C   UNL     1       2.052   3.000  21.327  0.00  0.00    +0.000 C 
ATOM     12  O   UNL     1       1.404   2.388  22.163  0.00  0.00    +0.000 OA
ATOM     13  N   UNL     1       3.246   2.618  20.814  0.00  0.00    +0.000 N 
ATOM     14  C   UNL     1       3.869   3.456  19.937  0.00  0.00    +0.000 C 
ATOM     15  O   UNL     1       4.978   3.271  19.463  0.00  0.00    +0.000 OA
ATOM     16  H   UNL     1       3.698   1.778  21.141  0.00  0.00    +0.000 HD
ENDBRANCH   4   8
BRANCH   1  17
ATOM     17  O   UNL     1       0.455  10.484  18.875  0.00  0.00    +0.000 OA
BRANCH  17  19
ATOM     18  C   UNL     1      -1.657  10.185  17.774  0.00  0.00    +0.000 C 
ATOM     19  C   UNL     1      -0.959  10.412  19.115  0.00  0.00    +0.000 C 
BRANCH  19  20
ATOM     20  C   UNL     1      -1.412  11.724  19.717  0.00  0.00    +0.000 C 
ATOM     21  C   UNL     1      -1.488  11.885  21.220  0.00  0.00    +0.000 C 
ATOM     22  C   UNL     1      -0.426  12.606  20.442  0.00  0.00    +0.000 C 
ENDBRANCH  19  20
ENDBRANCH  17  19
ENDBRANCH   1  17
TORSDOF 4
ENDMDL
MODEL 9
REMARK VINA RESULT:      -6.8      3.062      4.641
REMARK  Name = 
REMARK  5 active torsions:
REMARK  status: ('A' for Active; 'I' for Inactive)
REMARK    1  A    between atoms: C_1  and  C_2
REMARK    2  A    between atoms: C_2  and  O_3
REMARK    3  A    between atoms: C_2  and  C_19
REMARK    4  A    between atoms: O_3  and  C_4
REMARK    5  A    between atoms: C_7  and  C_8
REMARK                            x       y       z     vdW  Elec       q    Type
REMARK                         _______ _______ _______ _____ _____    ______ ____
ROOT
ATOM      1  C   UNL     1       1.872   7.292  19.924  0.00  0.00    +0.000 A 
ATOM      2  C   UNL     1       2.180   8.211  18.903  0.00  0.00    +0.000 A 
ATOM      3  C   UNL     1       3.024   7.865  17.837  0.00  0.00    +0.000 A 
ATOM      4  C   UNL     1       3.583   6.593  17.793  0.00  0.00    +0.000 A 
ATOM      5  C   UNL     1       3.283   5.674  18.803  0.00  0.00    +0.000 A 
ATOM      6  C   UNL     1       2.397   5.998  19.834  0.00  0.00    +0.000 A 
ATOM      7 CL   UNL     1       1.941   4.663  20.831  0.00  0.00    +0.000 Cl
ENDROOT
BRANCH   4   8
ATOM      8  C   UNL     1       4.399   6.111  16.672  0.00  0.00    +0.000 C 
ATOM      9  C   UNL     1       5.566   5.476  16.841  0.00  0.00    +0.000 C 
ATOM     10  S   UNL     1       6.279   4.945  18.323  0.00  0.00    +0.000 S 
ATOM     11  C   UNL     1       7.763   4.468  17.532  0.00  0.00    +0.000 C 
ATOM     12  O   UNL     1       8.745   4.030  18.112  0.00  0.00    +0.000 OA
ATOM     13  N   UNL     1       7.656   4.672  16.196  0.00  0.00    +0.000 N 
ATOM     14  C   UNL     1       6.510   5.234  15.719  0.00  0.00    +0.000 C 
ATOM     15  O   UNL     1       6.314   5.542  14.555  0.00  0.00    +0.000 OA
ATOM     16  H   UNL     1       8.439   4.491  15.587  0.00  0.00    +0.000 HD
ENDBRANCH   4   8
BRANCH   1  17
ATOM     17  O   UNL     1       0.994   7.779  20.857  0.00  0.00    +0.000 OA
BRANCH  17  19
ATOM     18  C   UNL     1       1.401   9.351  22.624  0.00  0.00    +0.000 C 
ATOM     19  C   UNL     1       1.017   9.184  21.154  0.00  0.00    +0.000 C 
BRANCH  19  20
ATOM     20  C   UNL     1      -0.365   9.750  20.914  0.00  0.00    +0.000 C 
ATOM     21  C   UNL     1      -0.540  11.216  20.583  0.00  0.00    +0.000 C 
ATOM     22  C   UNL     1      -0.779  10.176  19.526  0.00  0.00    +0.000 C 
ENDBRANCH  19  20
ENDBRANCH  17  19
ENDBRANCH   1  17
TORSDOF 4
ENDMDL
