MODEL 1
REMARK VINA RESULT:      -8.0      0.000      0.000
REMARK  Name = 
REMARK  8 active torsions:
REMARK  status: ('A' for Active; 'I' for Inactive)
REMARK    1  A    between atoms: C_1  and  C_2
REMARK    2  A    between atoms: C_5  and  N_6
REMARK    3  A    between atoms: C_7  and  S_8
REMARK    4  A    between atoms: S_8  and  C_9
REMARK    5  A    between atoms: C_9  and  C_10
REMARK    6  A    between atoms: C_16  and  S_17
REMARK    7  A    between atoms: S_17  and  N_18
REMARK    8  A    between atoms: C_24  and  C_25
REMARK                            x       y       z     vdW  Elec       q    Type
REMARK                         _______ _______ _______ _____ _____    ______ ____
ROOT
ATOM      1  C   UNL     1       2.247  13.397  19.535  0.00  0.00    +0.000 C 
ENDROOT
BRANCH   1   2
ATOM      2  C   UNL     1       1.853  14.888  19.606  0.00  0.00    +0.000 C 
ATOM      3  O   UNL     1       0.677  15.257  19.651  0.00  0.00    +0.000 OA
ATOM      4  N   UNL     1       2.916  15.849  19.544  0.00  0.00    +0.000 N 
ATOM      5  C   UNL     1       4.240  15.387  19.414  0.00  0.00    +0.000 A 
ATOM      6  C   UNL     1       5.224  15.539  20.369  0.00  0.00    +0.000 A 
ATOM      7  C   UNL     1       6.520  15.221  19.992  0.00  0.00    +0.000 A 
ATOM      8  C   UNL     1       6.769  14.703  18.704  0.00  0.00    +0.000 A 
ATOM      9  C   UNL     1       5.793  14.723  17.694  0.00  0.00    +0.000 A 
ATOM     10  C   UNL     1       4.547  15.194  18.057  0.00  0.00    +0.000 A 
ATOM     11  C   UNL     1       3.405  15.775  17.228  0.00  0.00    +0.000 C 
ATOM     12  C   UNL     1       2.854  16.719  18.342  0.00  0.00    +0.000 C 
ATOM     13  C   UNL     1       1.596  17.542  18.182  0.00  0.00    +0.000 C 
BRANCH   8  14
ATOM     14  S   UNL     1       8.365  13.996  18.415  0.00  0.00    +0.000 S 
ATOM     15  O   UNL     1       9.248  15.001  17.879  0.00  0.00    +0.000 OA
ATOM     16  O   UNL     1       8.718  13.153  19.534  0.00  0.00    +0.000 OA
BRANCH  14  17
ATOM     17  N   UNL     1       7.992  12.965  17.141  0.00  0.00    +0.000 NA
ATOM     18  H   UNL     1       7.833  12.016  17.478  0.00  0.00    +0.000 HD
ATOM     19  H   UNL     1       7.247  13.348  16.561  0.00  0.00    +0.000 HD
ENDBRANCH  14  17
ENDBRANCH   8  14
ENDBRANCH   1   2
BRANCH   1  20
ATOM     20  S   UNL     1       1.363  12.361  20.727  0.00  0.00    +0.000 S 
BRANCH  20  22
ATOM     21  N   UNL     1      -0.246  10.661  19.218  0.00  0.00    +0.000 N 
ATOM     22  C   UNL     1      -0.107  11.873  19.925  0.00  0.00    +0.000 A 
ATOM     23  N   UNL     1      -1.217  12.570  19.934  0.00  0.00    +0.000 NA
ATOM     24  C   UNL     1      -2.129  11.832  19.197  0.00  0.00    +0.000 A 
ATOM     25  C   UNL     1      -3.465  12.119  18.876  0.00  0.00    +0.000 A 
ATOM     26  C   UNL     1      -4.198  11.222  18.084  0.00  0.00    +0.000 A 
ATOM     27  C   UNL     1      -3.602  10.067  17.591  0.00  0.00    +0.000 A 
ATOM     28  C   UNL     1      -2.265   9.778  17.875  0.00  0.00    +0.000 A 
ATOM     29  C   UNL     1      -1.552  10.659  18.724  0.00  0.00    +0.000 A 
BRANCH  21  34
ATOM     30  C   UNL     1       3.686   6.510  18.637  0.00  0.00    +0.000 C 
ATOM     31  C   UNL     1       2.619   7.553  18.767  0.00  0.00    +0.000 A 
ATOM     32  C   UNL     1       1.913   7.707  19.961  0.00  0.00    +0.000 A 
ATOM     33  C   UNL     1       0.981   8.738  20.102  0.00  0.00    +0.000 A 
ATOM     34  C   UNL     1       0.702   9.608  19.033  0.00  0.00    +0.000 A 
ATOM     35  C   UNL     1       1.367   9.408  17.821  0.00  0.00    +0.000 A 
ATOM     36  C   UNL     1       2.326   8.400  17.694  0.00  0.00    +0.000 A 
ENDBRANCH  21  34
ENDBRANCH  20  22
ENDBRANCH   1  20
TORSDOF 6
ENDMDL
MODEL 2
REMARK VINA RESULT:      -8.0      0.622      1.140
REMARK  Name = 
REMARK  8 active torsions:
REMARK  status: ('A' for Active; 'I' for Inactive)
REMARK    1  A    between atoms: C_1  and  C_2
REMARK    2  A    between atoms: C_5  and  N_6
REMARK    3  A    between atoms: C_7  and  S_8
REMARK    4  A    between atoms: S_8  and  C_9
REMARK    5  A    between atoms: C_9  and  C_10
REMARK    6  A    between atoms: C_16  and  S_17
REMARK    7  A    between atoms: S_17  and  N_18
REMARK    8  A    between atoms: C_24  and  C_25
REMARK                            x       y       z     vdW  Elec       q    Type
REMARK                         _______ _______ _______ _____ _____    ______ ____
ROOT
ATOM      1  C   UNL     1       2.258  13.429  19.550  0.00  0.00    +0.000 C 
ENDROOT
BRANCH   1   2
ATOM      2  C   UNL     1       1.875  14.923  19.587  0.00  0.00    +0.000 C 
ATOM      3  O   UNL     1       0.701  15.301  19.618  0.00  0.00    +0.000 OA
ATOM      4  N   UNL     1       2.944  15.875  19.509  0.00  0.00    +0.000 N 
ATOM      5  C   UNL     1       4.266  15.402  19.397  0.00  0.00    +0.000 A 
ATOM      6  C   UNL     1       5.246  15.567  20.352  0.00  0.00    +0.000 A 
ATOM      7  C   UNL     1       6.542  15.232  19.989  0.00  0.00    +0.000 A 
ATOM      8  C   UNL     1       6.793  14.685  18.714  0.00  0.00    +0.000 A 
ATOM      9  C   UNL     1       5.823  14.690  17.698  0.00  0.00    +0.000 A 
ATOM     10  C   UNL     1       4.579  15.178  18.045  0.00  0.00    +0.000 A 
ATOM     11  C   UNL     1       3.444  15.749  17.198  0.00  0.00    +0.000 C 
ATOM     12  C   UNL     1       2.895  16.720  18.289  0.00  0.00    +0.000 C 
ATOM     13  C   UNL     1       1.643  17.548  18.105  0.00  0.00    +0.000 C 
BRANCH   8  14
ATOM     14  S   UNL     1       8.386  13.961  18.448  0.00  0.00    +0.000 S 
ATOM     15  O   UNL     1       8.246  12.763  17.659  0.00  0.00    +0.000 OA
ATOM     16  O   UNL     1       9.334  15.005  18.135  0.00  0.00    +0.000 OA
BRANCH  14  17
ATOM     17  N   UNL     1       8.733  13.458  20.014  0.00  0.00    +0.000 NA
ATOM     18  H   UNL     1       9.150  14.215  20.553  0.00  0.00    +0.000 HD
ATOM     19  H   UNL     1       7.925  13.012  20.447  0.00  0.00    +0.000 HD
ENDBRANCH  14  17
ENDBRANCH   8  14
ENDBRANCH   1   2
BRANCH   1  20
ATOM     20  S   UNL     1       1.357  12.423  20.756  0.00  0.00    +0.000 S 
BRANCH  20  22
ATOM     21  N   UNL     1      -0.215  10.680  19.259  0.00  0.00    +0.000 N 
ATOM     22  C   UNL     1      -0.096  11.907  19.943  0.00  0.00    +0.000 A 
ATOM     23  N   UNL     1      -1.213  12.594  19.923  0.00  0.00    +0.000 NA
ATOM     24  C   UNL     1      -2.108  11.833  19.188  0.00  0.00    +0.000 A 
ATOM     25  C   UNL     1      -3.441  12.101  18.843  0.00  0.00    +0.000 A 
ATOM     26  C   UNL     1      -4.155  11.182  18.059  0.00  0.00    +0.000 A 
ATOM     27  C   UNL     1      -3.542  10.024  17.597  0.00  0.00    +0.000 A 
ATOM     28  C   UNL     1      -2.207   9.753  17.906  0.00  0.00    +0.000 A 
ATOM     29  C   UNL     1      -1.514  10.656  18.747  0.00  0.00    +0.000 A 
BRANCH  21  34
ATOM     30  C   UNL     1       3.522   6.381  18.495  0.00  0.00    +0.000 C 
ATOM     31  C   UNL     1       2.594   7.536  18.715  0.00  0.00    +0.000 A 
ATOM     32  C   UNL     1       2.338   8.451  17.693  0.00  0.00    +0.000 A 
ATOM     33  C   UNL     1       1.406   9.474  17.878  0.00  0.00    +0.000 A 
ATOM     34  C   UNL     1       0.744   9.631  19.109  0.00  0.00    +0.000 A 
ATOM     35  C   UNL     1       1.052   8.749  20.147  0.00  0.00    +0.000 A 
ATOM     36  C   UNL     1       1.957   7.703  19.948  0.00  0.00    +0.000 A 
ENDBRANCH  21  34
ENDBRANCH  20  22
ENDBRANCH   1  20
TORSDOF 6
ENDMDL
MODEL 3
REMARK VINA RESULT:      -7.7      4.949      9.294
REMARK  Name = 
REMARK  8 active torsions:
REMARK  status: ('A' for Active; 'I' for Inactive)
REMARK    1  A    between atoms: C_1  and  C_2
REMARK    2  A    between atoms: C_5  and  N_6
REMARK    3  A    between atoms: C_7  and  S_8
REMARK    4  A    between atoms: S_8  and  C_9
REMARK    5  A    between atoms: C_9  and  C_10
REMARK    6  A    between atoms: C_16  and  S_17
REMARK    7  A    between atoms: S_17  and  N_18
REMARK    8  A    between atoms: C_24  and  C_25
REMARK                            x       y       z     vdW  Elec       q    Type
REMARK                         _______ _______ _______ _____ _____    ______ ____
ROOT
ATOM      1  C   UNL     1      -3.853  11.225  18.519  0.00  0.00    +0.000 C 
ENDROOT
BRANCH   1   2
ATOM      2  C   UNL     1      -4.941  11.538  17.471  0.00  0.00    +0.000 C 
ATOM      3  O   UNL     1      -4.684  11.659  16.271  0.00  0.00    +0.000 OA
ATOM      4  N   UNL     1      -6.272  11.759  17.957  0.00  0.00    +0.000 N 
ATOM      5  C   UNL     1      -6.508  11.688  19.343  0.00  0.00    +0.000 A 
ATOM      6  C   UNL     1      -7.291  10.737  19.962  0.00  0.00    +0.000 A 
ATOM      7  C   UNL     1      -7.592  10.942  21.300  0.00  0.00    +0.000 A 
ATOM      8  C   UNL     1      -7.045  12.050  21.980  0.00  0.00    +0.000 A 
ATOM      9  C   UNL     1      -6.402  13.097  21.298  0.00  0.00    +0.000 A 
ATOM     10  C   UNL     1      -6.255  12.938  19.935  0.00  0.00    +0.000 A 
ATOM     11  C   UNL     1      -6.040  13.954  18.816  0.00  0.00    +0.000 C 
ATOM     12  C   UNL     1      -6.771  13.135  17.706  0.00  0.00    +0.000 C 
ATOM     13  C   UNL     1      -6.824  13.568  16.258  0.00  0.00    +0.000 C 
BRANCH   8  14
ATOM     14  S   UNL     1      -7.177  12.057  23.744  0.00  0.00    +0.000 S 
ATOM     15  O   UNL     1      -7.916  13.219  24.168  0.00  0.00    +0.000 OA
ATOM     16  O   UNL     1      -7.480  10.721  24.201  0.00  0.00    +0.000 OA
BRANCH  14  17
ATOM     17  N   UNL     1      -5.571  12.344  24.147  0.00  0.00    +0.000 NA
ATOM     18  H   UNL     1      -5.406  13.340  24.291  0.00  0.00    +0.000 HD
ATOM     19  H   UNL     1      -5.267  11.741  24.911  0.00  0.00    +0.000 HD
ENDBRANCH  14  17
ENDBRANCH   8  14
ENDBRANCH   1   2
BRANCH   1  20
ATOM     20  S   UNL     1      -2.255  10.787  17.790  0.00  0.00    +0.000 S 
BRANCH  20  22
ATOM     21  N   UNL     1       0.133  11.560  18.996  0.00  0.00    +0.000 N 
ATOM     22  C   UNL     1      -1.111  11.929  18.445  0.00  0.00    +0.000 A 
ATOM     23  N   UNL     1      -1.290  13.228  18.454  0.00  0.00    +0.000 NA
ATOM     24  C   UNL     1      -0.155  13.758  19.048  0.00  0.00    +0.000 A 
ATOM     25  C   UNL     1       0.172  15.094  19.323  0.00  0.00    +0.000 A 
ATOM     26  C   UNL     1       1.384  15.396  19.962  0.00  0.00    +0.000 A 
ATOM     27  C   UNL     1       2.249  14.380  20.350  0.00  0.00    +0.000 A 
ATOM     28  C   UNL     1       1.928  13.041  20.110  0.00  0.00    +0.000 A 
ATOM     29  C   UNL     1       0.731  12.751  19.412  0.00  0.00    +0.000 A 
BRANCH  21  34
ATOM     30  C   UNL     1       2.645   6.426  19.598  0.00  0.00    +0.000 C 
ATOM     31  C   UNL     1       1.939   7.735  19.426  0.00  0.00    +0.000 A 
ATOM     32  C   UNL     1       1.314   8.357  20.508  0.00  0.00    +0.000 A 
ATOM     33  C   UNL     1       0.733   9.618  20.359  0.00  0.00    +0.000 A 
ATOM     34  C   UNL     1       0.723  10.263  19.110  0.00  0.00    +0.000 A 
ATOM     35  C   UNL     1       1.295   9.607  18.017  0.00  0.00    +0.000 A 
ATOM     36  C   UNL     1       1.910   8.362  18.177  0.00  0.00    +0.000 A 
ENDBRANCH  21  34
ENDBRANCH  20  22
ENDBRANCH   1  20
TORSDOF 6
ENDMDL
MODEL 4
REMARK VINA RESULT:      -7.6      4.404      7.357
REMARK  Name = 
REMARK  8 active torsions:
REMARK  status: ('A' for Active; 'I' for Inactive)
REMARK    1  A    between atoms: C_1  and  C_2
REMARK    2  A    between atoms: C_5  and  N_6
REMARK    3  A    between atoms: C_7  and  S_8
REMARK    4  A    between atoms: S_8  and  C_9
REMARK    5  A    between atoms: C_9  and  C_10
REMARK    6  A    between atoms: C_16  and  S_17
REMARK    7  A    between atoms: S_17  and  N_18
REMARK    8  A    between atoms: C_24  and  C_25
REMARK                            x       y       z     vdW  Elec       q    Type
REMARK                         _______ _______ _______ _____ _____    ______ ____
ROOT
ATOM      1  C   UNL     1       0.123  13.430  22.132  0.00  0.00    +0.000 C 
ENDROOT
BRANCH   1   2
ATOM      2  C   UNL     1       0.297  14.962  22.180  0.00  0.00    +0.000 C 
ATOM      3  O   UNL     1       1.404  15.501  22.111  0.00  0.00    +0.000 OA
ATOM      4  N   UNL     1      -0.884  15.749  22.385  0.00  0.00    +0.000 N 
ATOM      5  C   UNL     1      -2.119  15.089  22.537  0.00  0.00    +0.000 A 
ATOM      6  C   UNL     1      -3.173  15.176  21.651  0.00  0.00    +0.000 A 
ATOM      7  C   UNL     1      -4.385  14.641  22.061  0.00  0.00    +0.000 A 
ATOM      8  C   UNL     1      -4.477  13.986  23.306  0.00  0.00    +0.000 A 
ATOM      9  C   UNL     1      -3.452  14.062  24.264  0.00  0.00    +0.000 A 
ATOM     10  C   UNL     1      -2.311  14.740  23.885  0.00  0.00    +0.000 A 
ATOM     11  C   UNL     1      -1.212  15.409  24.706  0.00  0.00    +0.000 C 
ATOM     12  C   UNL     1      -0.871  16.514  23.657  0.00  0.00    +0.000 C 
ATOM     13  C   UNL     1       0.266  17.496  23.829  0.00  0.00    +0.000 C 
BRANCH   8  14
ATOM     14  S   UNL     1      -5.936  13.031  23.608  0.00  0.00    +0.000 S 
ATOM     15  O   UNL     1      -6.957  13.875  24.174  0.00  0.00    +0.000 OA
ATOM     16  O   UNL     1      -6.171  12.158  22.480  0.00  0.00    +0.000 OA
BRANCH  14  17
ATOM     17  N   UNL     1      -5.382  12.054  24.858  0.00  0.00    +0.000 NA
ATOM     18  H   UNL     1      -6.162  11.616  25.348  0.00  0.00    +0.000 HD
ATOM     19  H   UNL     1      -4.659  11.412  24.534  0.00  0.00    +0.000 HD
ENDBRANCH  14  17
ENDBRANCH   8  14
ENDBRANCH   1   2
BRANCH   1  20
ATOM     20  S   UNL     1       0.805  12.673  20.636  0.00  0.00    +0.000 S 
BRANCH  20  22
ATOM     21  N   UNL     1      -0.591  10.791  19.132  0.00  0.00    +0.000 N 
ATOM     22  C   UNL     1      -0.567  12.056  19.755  0.00  0.00    +0.000 A 
ATOM     23  N   UNL     1      -1.704  12.695  19.619  0.00  0.00    +0.000 NA
ATOM     24  C   UNL     1      -2.515  11.861  18.867  0.00  0.00    +0.000 A 
ATOM     25  C   UNL     1      -3.830  12.057  18.417  0.00  0.00    +0.000 A 
ATOM     26  C   UNL     1      -4.452  11.070  17.636  0.00  0.00    +0.000 A 
ATOM     27  C   UNL     1      -3.765   9.915  17.282  0.00  0.00    +0.000 A 
ATOM     28  C   UNL     1      -2.446   9.715  17.697  0.00  0.00    +0.000 A 
ATOM     29  C   UNL     1      -1.848  10.688  18.533  0.00  0.00    +0.000 A 
BRANCH  21  34
ATOM     30  C   UNL     1       3.340   6.607  18.875  0.00  0.00    +0.000 C 
ATOM     31  C   UNL     1       2.359   7.736  18.959  0.00  0.00    +0.000 A 
ATOM     32  C   UNL     1       2.084   8.528  17.844  0.00  0.00    +0.000 A 
ATOM     33  C   UNL     1       1.105   9.522  17.908  0.00  0.00    +0.000 A 
ATOM     34  C   UNL     1       0.415   9.777  19.106  0.00  0.00    +0.000 A 
ATOM     35  C   UNL     1       0.740   9.022  20.235  0.00  0.00    +0.000 A 
ATOM     36  C   UNL     1       1.693   8.002  20.159  0.00  0.00    +0.000 A 
ENDBRANCH  21  34
ENDBRANCH  20  22
ENDBRANCH   1  20
TORSDOF 6
ENDMDL
MODEL 5
REMARK VINA RESULT:      -7.5      5.566      7.625
REMARK  Name = 
REMARK  8 active torsions:
REMARK  status: ('A' for Active; 'I' for Inactive)
REMARK    1  A    between atoms: C_1  and  C_2
REMARK    2  A    between atoms: C_5  and  N_6
REMARK    3  A    between atoms: C_7  and  S_8
REMARK    4  A    between atoms: S_8  and  C_9
REMARK    5  A    between atoms: C_9  and  C_10
REMARK    6  A    between atoms: C_16  and  S_17
REMARK    7  A    between atoms: S_17  and  N_18
REMARK    8  A    between atoms: C_24  and  C_25
REMARK                            x       y       z     vdW  Elec       q    Type
REMARK                         _______ _______ _______ _____ _____    ______ ____
ROOT
ATOM      1  C   UNL     1       5.617  15.805  21.394  0.00  0.00    +0.000 C 
ENDROOT
BRANCH   1   2
ATOM      2  C   UNL     1       4.665  16.540  20.426  0.00  0.00    +0.000 C 
ATOM      3  O   UNL     1       3.484  16.760  20.705  0.00  0.00    +0.000 OA
ATOM      4  N   UNL     1       5.189  16.899  19.141  0.00  0.00    +0.000 N 
ATOM      5  C   UNL     1       6.521  16.561  18.834  0.00  0.00    +0.000 A 
ATOM      6  C   UNL     1       7.537  17.469  18.621  0.00  0.00    +0.000 A 
ATOM      7  C   UNL     1       8.730  16.974  18.117  0.00  0.00    +0.000 A 
ATOM      8  C   UNL     1       8.881  15.587  17.910  0.00  0.00    +0.000 A 
ATOM      9  C   UNL     1       7.789  14.705  17.960  0.00  0.00    +0.000 A 
ATOM     10  C   UNL     1       6.574  15.256  18.314  0.00  0.00    +0.000 A 
ATOM     11  C   UNL     1       5.142  14.788  18.068  0.00  0.00    +0.000 C 
ATOM     12  C   UNL     1       4.509  16.214  18.013  0.00  0.00    +0.000 C 
ATOM     13  C   UNL     1       3.021  16.455  17.891  0.00  0.00    +0.000 C 
BRANCH   8  14
ATOM     14  S   UNL     1      10.520  14.992  17.607  0.00  0.00    +0.000 S 
ATOM     15  O   UNL     1      11.404  15.466  18.642  0.00  0.00    +0.000 OA
ATOM     16  O   UNL     1      10.453  13.608  17.201  0.00  0.00    +0.000 OA
BRANCH  14  17
ATOM     17  N   UNL     1      10.891  15.876  16.226  0.00  0.00    +0.000 NA
ATOM     18  H   UNL     1      11.484  16.673  16.455  0.00  0.00    +0.000 HD
ATOM     19  H   UNL     1      11.245  15.273  15.484  0.00  0.00    +0.000 HD
ENDBRANCH  14  17
ENDBRANCH   8  14
ENDBRANCH   1   2
BRANCH   1  20
ATOM     20  S   UNL     1       4.971  14.216  21.971  0.00  0.00    +0.000 S 
BRANCH  20  22
ATOM     21  N   UNL     1       6.862  13.534  23.899  0.00  0.00    +0.000 N 
ATOM     22  C   UNL     1       5.576  14.026  23.596  0.00  0.00    +0.000 A 
ATOM     23  N   UNL     1       4.905  14.352  24.674  0.00  0.00    +0.000 NA
ATOM     24  C   UNL     1       5.740  14.053  25.739  0.00  0.00    +0.000 A 
ATOM     25  C   UNL     1       5.518  14.190  27.118  0.00  0.00    +0.000 A 
ATOM     26  C   UNL     1       6.513  13.794  28.025  0.00  0.00    +0.000 A 
ATOM     27  C   UNL     1       7.703  13.240  27.569  0.00  0.00    +0.000 A 
ATOM     28  C   UNL     1       7.931  13.069  26.201  0.00  0.00    +0.000 A 
ATOM     29  C   UNL     1       6.946  13.527  25.293  0.00  0.00    +0.000 A 
BRANCH  21  34
ATOM     30  C   UNL     1      10.995  12.070  20.183  0.00  0.00    +0.000 C 
ATOM     31  C   UNL     1       9.956  12.438  21.197  0.00  0.00    +0.000 A 
ATOM     32  C   UNL     1       9.836  13.752  21.652  0.00  0.00    +0.000 A 
ATOM     33  C   UNL     1       8.810  14.104  22.532  0.00  0.00    +0.000 A 
ATOM     34  C   UNL     1       7.910  13.136  23.012  0.00  0.00    +0.000 A 
ATOM     35  C   UNL     1       8.075  11.811  22.601  0.00  0.00    +0.000 A 
ATOM     36  C   UNL     1       9.079  11.468  21.692  0.00  0.00    +0.000 A 
ENDBRANCH  21  34
ENDBRANCH  20  22
ENDBRANCH   1  20
TORSDOF 6
ENDMDL
MODEL 6
REMARK VINA RESULT:      -7.4      3.517      8.523
REMARK  Name = 
REMARK  8 active torsions:
REMARK  status: ('A' for Active; 'I' for Inactive)
REMARK    1  A    between atoms: C_1  and  C_2
REMARK    2  A    between atoms: C_5  and  N_6
REMARK    3  A    between atoms: C_7  and  S_8
REMARK    4  A    between atoms: S_8  and  C_9
REMARK    5  A    between atoms: C_9  and  C_10
REMARK    6  A    between atoms: C_16  and  S_17
REMARK    7  A    between atoms: S_17  and  N_18
REMARK    8  A    between atoms: C_24  and  C_25
REMARK                            x       y       z     vdW  Elec       q    Type
REMARK                         _______ _______ _______ _____ _____    ______ ____
ROOT
ATOM      1  C   UNL     1       4.830  15.163  20.158  0.00  0.00    +0.000 C 
ENDROOT
BRANCH   1   2
ATOM      2  C   UNL     1       4.259  15.905  18.932  0.00  0.00    +0.000 C 
ATOM      3  O   UNL     1       4.712  16.985  18.546  0.00  0.00    +0.000 OA
ATOM      4  N   UNL     1       3.117  15.323  18.288  0.00  0.00    +0.000 N 
ATOM      5  C   UNL     1       2.583  14.128  18.808  0.00  0.00    +0.000 A 
ATOM      6  C   UNL     1       2.579  12.915  18.152  0.00  0.00    +0.000 A 
ATOM      7  C   UNL     1       1.822  11.898  18.713  0.00  0.00    +0.000 A 
ATOM      8  C   UNL     1       1.156  12.114  19.938  0.00  0.00    +0.000 A 
ATOM      9  C   UNL     1       1.023  13.396  20.496  0.00  0.00    +0.000 A 
ATOM     10  C   UNL     1       1.660  14.423  19.827  0.00  0.00    +0.000 A 
ATOM     11  C   UNL     1       1.421  15.930  19.825  0.00  0.00    +0.000 C 
ATOM     12  C   UNL     1       1.902  16.173  18.360  0.00  0.00    +0.000 C 
ATOM     13  C   UNL     1       2.017  17.549  17.744  0.00  0.00    +0.000 C 
BRANCH   8  14
ATOM     14  S   UNL     1       0.510  10.689  20.765  0.00  0.00    +0.000 S 
ATOM     15  O   UNL     1       0.195   9.670  19.796  0.00  0.00    +0.000 OA
ATOM     16  O   UNL     1       1.296  10.434  21.950  0.00  0.00    +0.000 OA
BRANCH  14  17
ATOM     17  N   UNL     1      -0.960  11.310  21.293  0.00  0.00    +0.000 NA
ATOM     18  H   UNL     1      -1.374  10.706  22.002  0.00  0.00    +0.000 HD
ATOM     19  H   UNL     1      -0.874  12.291  21.556  0.00  0.00    +0.000 HD
ENDBRANCH  14  17
ENDBRANCH   8  14
ENDBRANCH   1   2
BRANCH   1  20
ATOM     20  S   UNL     1       6.455  15.770  20.676  0.00  0.00    +0.000 S 
BRANCH  20  22
ATOM     21  N   UNL     1       8.204  13.619  20.933  0.00  0.00    +0.000 N 
ATOM     22  C   UNL     1       7.601  14.587  20.104  0.00  0.00    +0.000 A 
ATOM     23  N   UNL     1       7.979  14.471  18.854  0.00  0.00    +0.000 NA
ATOM     24  C   UNL     1       8.879  13.417  18.831  0.00  0.00    +0.000 A 
ATOM     25  C   UNL     1       9.598  12.876  17.754  0.00  0.00    +0.000 A 
ATOM     26  C   UNL     1      10.484  11.810  17.975  0.00  0.00    +0.000 A 
ATOM     27  C   UNL     1      10.675  11.307  19.257  0.00  0.00    +0.000 A 
ATOM     28  C   UNL     1       9.989  11.851  20.345  0.00  0.00    +0.000 A 
ATOM     29  C   UNL     1       9.054  12.885  20.103  0.00  0.00    +0.000 A 
BRANCH  21  34
ATOM     30  C   UNL     1       7.631  12.608  26.562  0.00  0.00    +0.000 C 
ATOM     31  C   UNL     1       7.729  12.905  25.097  0.00  0.00    +0.000 A 
ATOM     32  C   UNL     1       8.459  14.003  24.638  0.00  0.00    +0.000 A 
ATOM     33  C   UNL     1       8.618  14.223  23.268  0.00  0.00    +0.000 A 
ATOM     34  C   UNL     1       8.008  13.374  22.328  0.00  0.00    +0.000 A 
ATOM     35  C   UNL     1       7.228  12.313  22.795  0.00  0.00    +0.000 A 
ATOM     36  C   UNL     1       7.101  12.073  24.165  0.00  0.00    +0.000 A 
ENDBRANCH  21  34
ENDBRANCH  20  22
ENDBRANCH   1  20
TORSDOF 6
ENDMDL
MODEL 7
REMARK VINA RESULT:      -7.3      3.706      8.821
REMARK  Name = 
REMARK  8 active torsions:
REMARK  status: ('A' for Active; 'I' for Inactive)
REMARK    1  A    between atoms: C_1  and  C_2
REMARK    2  A    between atoms: C_5  and  N_6
REMARK    3  A    between atoms: C_7  and  S_8
REMARK    4  A    between atoms: S_8  and  C_9
REMARK    5  A    between atoms: C_9  and  C_10
REMARK    6  A    between atoms: C_16  and  S_17
REMARK    7  A    between atoms: S_17  and  N_18
REMARK    8  A    between atoms: C_24  and  C_25
REMARK                            x       y       z     vdW  Elec       q    Type
REMARK                         _______ _______ _______ _____ _____    ______ ____
ROOT
ATOM      1  C   UNL     1       4.921  14.649  20.398  0.00  0.00    +0.000 C 
ENDROOT
BRANCH   1   2
ATOM      2  C   UNL     1       4.553  15.138  18.981  0.00  0.00    +0.000 C 
ATOM      3  O   UNL     1       5.297  15.867  18.322  0.00  0.00    +0.000 OA
ATOM      4  N   UNL     1       3.262  14.770  18.477  0.00  0.00    +0.000 N 
ATOM      5  C   UNL     1       2.410  14.000  19.293  0.00  0.00    +0.000 A 
ATOM      6  C   UNL     1       2.009  12.710  19.018  0.00  0.00    +0.000 A 
ATOM      7  C   UNL     1       1.002  12.181  19.811  0.00  0.00    +0.000 A 
ATOM      8  C   UNL     1       0.485  12.936  20.884  0.00  0.00    +0.000 A 
ATOM      9  C   UNL     1       0.774  14.302  21.039  0.00  0.00    +0.000 A 
ATOM     10  C   UNL     1       1.665  14.844  20.134  0.00  0.00    +0.000 A 
ATOM     11  C   UNL     1       1.898  16.284  19.683  0.00  0.00    +0.000 C 
ATOM     12  C   UNL     1       2.369  15.931  18.237  0.00  0.00    +0.000 C 
ATOM     13  C   UNL     1       2.872  16.964  17.255  0.00  0.00    +0.000 C 
BRANCH   8  14
ATOM     14  S   UNL     1      -0.529  12.081  22.055  0.00  0.00    +0.000 S 
ATOM     15  O   UNL     1      -1.873  11.979  21.545  0.00  0.00    +0.000 OA
ATOM     16  O   UNL     1       0.203  10.951  22.578  0.00  0.00    +0.000 OA
BRANCH  14  17
ATOM     17  N   UNL     1      -0.574  13.229  23.282  0.00  0.00    +0.000 NA
ATOM     18  H   UNL     1       0.187  13.900  23.178  0.00  0.00    +0.000 HD
ATOM     19  H   UNL     1      -1.503  13.639  23.372  0.00  0.00    +0.000 HD
ENDBRANCH  14  17
ENDBRANCH   8  14
ENDBRANCH   1   2
BRANCH   1  20
ATOM     20  S   UNL     1       6.441  15.391  21.044  0.00  0.00    +0.000 S 
BRANCH  20  22
ATOM     21  N   UNL     1       8.414  13.442  21.297  0.00  0.00    +0.000 N 
ATOM     22  C   UNL     1       7.737  14.370  20.479  0.00  0.00    +0.000 A 
ATOM     23  N   UNL     1       8.175  14.351  19.244  0.00  0.00    +0.000 NA
ATOM     24  C   UNL     1       9.190  13.408  19.221  0.00  0.00    +0.000 A 
ATOM     25  C   UNL     1      10.009  12.998  18.158  0.00  0.00    +0.000 A 
ATOM     26  C   UNL     1      11.002  12.031  18.377  0.00  0.00    +0.000 A 
ATOM     27  C   UNL     1      11.199  11.498  19.646  0.00  0.00    +0.000 A 
ATOM     28  C   UNL     1      10.412  11.914  20.723  0.00  0.00    +0.000 A 
ATOM     29  C   UNL     1       9.375  12.846  20.478  0.00  0.00    +0.000 A 
BRANCH  21  34
ATOM     30  C   UNL     1       7.306  12.143  26.785  0.00  0.00    +0.000 C 
ATOM     31  C   UNL     1       7.648  12.452  25.360  0.00  0.00    +0.000 A 
ATOM     32  C   UNL     1       7.238  11.606  24.328  0.00  0.00    +0.000 A 
ATOM     33  C   UNL     1       7.485  11.946  22.996  0.00  0.00    +0.000 A 
ATOM     34  C   UNL     1       8.192  13.117  22.671  0.00  0.00    +0.000 A 
ATOM     35  C   UNL     1       8.653  13.927  23.712  0.00  0.00    +0.000 A 
ATOM     36  C   UNL     1       8.372  13.605  25.042  0.00  0.00    +0.000 A 
ENDBRANCH  21  34
ENDBRANCH  20  22
ENDBRANCH   1  20
TORSDOF 6
ENDMDL
MODEL 8
REMARK VINA RESULT:      -7.2      3.655      8.684
REMARK  Name = 
REMARK  8 active torsions:
REMARK  status: ('A' for Active; 'I' for Inactive)
REMARK    1  A    between atoms: C_1  and  C_2
REMARK    2  A    between atoms: C_5  and  N_6
REMARK    3  A    between atoms: C_7  and  S_8
REMARK    4  A    between atoms: S_8  and  C_9
REMARK    5  A    between atoms: C_9  and  C_10
REMARK    6  A    between atoms: C_16  and  S_17
REMARK    7  A    between atoms: S_17  and  N_18
REMARK    8  A    between atoms: C_24  and  C_25
REMARK                            x       y       z     vdW  Elec       q    Type
REMARK                         _______ _______ _______ _____ _____    ______ ____
ROOT
ATOM      1  C   UNL     1       5.218  14.962  19.443  0.00  0.00    +0.000 C 
ENDROOT
BRANCH   1   2
ATOM      2  C   UNL     1       4.324  16.175  19.113  0.00  0.00    +0.000 C 
ATOM      3  O   UNL     1       4.777  17.317  19.007  0.00  0.00    +0.000 OA
ATOM      4  N   UNL     1       2.914  15.938  19.003  0.00  0.00    +0.000 N 
ATOM      5  C   UNL     1       2.429  14.632  19.208  0.00  0.00    +0.000 A 
ATOM      6  C   UNL     1       1.833  13.852  18.239  0.00  0.00    +0.000 A 
ATOM      7  C   UNL     1       1.220  12.682  18.662  0.00  0.00    +0.000 A 
ATOM      8  C   UNL     1       1.285  12.308  20.020  0.00  0.00    +0.000 A 
ATOM      9  C   UNL     1       1.736  13.193  21.014  0.00  0.00    +0.000 A 
ATOM     10  C   UNL     1       2.197  14.418  20.577  0.00  0.00    +0.000 A 
ATOM     11  C   UNL     1       2.344  15.758  21.295  0.00  0.00    +0.000 C 
ATOM     12  C   UNL     1       2.115  16.648  20.033  0.00  0.00    +0.000 C 
ATOM     13  C   UNL     1       2.240  18.154  20.049  0.00  0.00    +0.000 C 
BRANCH   8  14
ATOM     14  S   UNL     1       0.798  10.655  20.424  0.00  0.00    +0.000 S 
ATOM     15  O   UNL     1       1.212   9.760  19.374  0.00  0.00    +0.000 OA
ATOM     16  O   UNL     1       1.071  10.411  21.822  0.00  0.00    +0.000 OA
BRANCH  14  17
ATOM     17  N   UNL     1      -0.869  10.810  20.285  0.00  0.00    +0.000 NA
ATOM     18  H   UNL     1      -1.309  10.831  21.205  0.00  0.00    +0.000 HD
ATOM     19  H   UNL     1      -1.120  11.582  19.669  0.00  0.00    +0.000 HD
ENDBRANCH  14  17
ENDBRANCH   8  14
ENDBRANCH   1   2
BRANCH   1  20
ATOM     20  S   UNL     1       6.600  15.363  20.542  0.00  0.00    +0.000 S 
BRANCH  20  22
ATOM     21  N   UNL     1       8.612  13.468  20.883  0.00  0.00    +0.000 N 
ATOM     22  C   UNL     1       7.920  14.348  20.025  0.00  0.00    +0.000 A 
ATOM     23  N   UNL     1       8.365  14.287  18.793  0.00  0.00    +0.000 NA
ATOM     24  C   UNL     1       9.399  13.366  18.813  0.00  0.00    +0.000 A 
ATOM     25  C   UNL     1      10.232  12.930  17.771  0.00  0.00    +0.000 A 
ATOM     26  C   UNL     1      11.244  11.994  18.034  0.00  0.00    +0.000 A 
ATOM     27  C   UNL     1      11.445  11.518  19.325  0.00  0.00    +0.000 A 
ATOM     28  C   UNL     1      10.645  11.961  20.380  0.00  0.00    +0.000 A 
ATOM     29  C   UNL     1       9.589  12.860  20.094  0.00  0.00    +0.000 A 
BRANCH  21  34
ATOM     30  C   UNL     1       7.506  12.354  26.412  0.00  0.00    +0.000 C 
ATOM     31  C   UNL     1       7.850  12.620  24.978  0.00  0.00    +0.000 A 
ATOM     32  C   UNL     1       7.554  11.684  23.987  0.00  0.00    +0.000 A 
ATOM     33  C   UNL     1       7.798  11.976  22.644  0.00  0.00    +0.000 A 
ATOM     34  C   UNL     1       8.390  13.195  22.269  0.00  0.00    +0.000 A 
ATOM     35  C   UNL     1       8.742  14.102  23.272  0.00  0.00    +0.000 A 
ATOM     36  C   UNL     1       8.461  13.823  24.612  0.00  0.00    +0.000 A 
ENDBRANCH  21  34
ENDBRANCH  20  22
ENDBRANCH   1  20
TORSDOF 6
ENDMDL
MODEL 9
REMARK VINA RESULT:      -7.2      4.579      8.848
REMARK  Name = 
REMARK  8 active torsions:
REMARK  status: ('A' for Active; 'I' for Inactive)
REMARK    1  A    between atoms: C_1  and  C_2
REMARK    2  A    between atoms: C_5  and  N_6
REMARK    3  A    between atoms: C_7  and  S_8
REMARK    4  A    between atoms: S_8  and  C_9
REMARK    5  A    between atoms: C_9  and  C_10
REMARK    6  A    between atoms: C_16  and  S_17
REMARK    7  A    between atoms: S_17  and  N_18
REMARK    8  A    between atoms: C_24  and  C_25
REMARK                            x       y       z     vdW  Elec       q    Type
REMARK                         _______ _______ _______ _____ _____    ______ ____
ROOT
ATOM      1  C   UNL     1      -1.496  11.476  22.122  0.00  0.00    +0.000 C 
ENDROOT
BRANCH   1   2
ATOM      2  C   UNL     1      -1.393  12.901  22.705  0.00  0.00    +0.000 C 
ATOM      3  O   UNL     1      -0.468  13.245  23.444  0.00  0.00    +0.000 OA
ATOM      4  N   UNL     1      -2.467  13.805  22.414  0.00  0.00    +0.000 N 
ATOM      5  C   UNL     1      -3.544  13.348  21.629  0.00  0.00    +0.000 A 
ATOM      6  C   UNL     1      -3.859  13.820  20.372  0.00  0.00    +0.000 A 
ATOM      7  C   UNL     1      -5.072  13.417  19.835  0.00  0.00    +0.000 A 
ATOM      8  C   UNL     1      -5.887  12.510  20.544  0.00  0.00    +0.000 A 
ATOM      9  C   UNL     1      -5.639  12.183  21.888  0.00  0.00    +0.000 A 
ATOM     10  C   UNL     1      -4.501  12.727  22.449  0.00  0.00    +0.000 A 
ATOM     11  C   UNL     1      -4.116  12.986  23.903  0.00  0.00    +0.000 C 
ATOM     12  C   UNL     1      -3.222  14.233  23.618  0.00  0.00    +0.000 C 
ATOM     13  C   UNL     1      -2.420  14.939  24.688  0.00  0.00    +0.000 C 
BRANCH   8  14
ATOM     14  S   UNL     1      -7.231  11.773  19.660  0.00  0.00    +0.000 S 
ATOM     15  O   UNL     1      -7.916  10.838  20.515  0.00  0.00    +0.000 OA
ATOM     16  O   UNL     1      -7.914  12.796  18.902  0.00  0.00    +0.000 OA
BRANCH  14  17
ATOM     17  N   UNL     1      -6.368  10.854  18.549  0.00  0.00    +0.000 NA
ATOM     18  H   UNL     1      -5.541  11.356  18.227  0.00  0.00    +0.000 HD
ATOM     19  H   UNL     1      -6.193   9.914  18.902  0.00  0.00    +0.000 HD
ENDBRANCH  14  17
ENDBRANCH   8  14
ENDBRANCH   1   2
BRANCH   1  20
ATOM     20  S   UNL     1      -0.335  10.306  22.871  0.00  0.00    +0.000 S 
BRANCH  20  22
ATOM     21  N   UNL     1       0.792  10.192  20.327  0.00  0.00    +0.000 N 
ATOM     22  C   UNL     1       0.483   9.537  21.536  0.00  0.00    +0.000 A 
ATOM     23  N   UNL     1       0.909   8.297  21.549  0.00  0.00    +0.000 NA
ATOM     24  C   UNL     1       1.501   8.091  20.313  0.00  0.00    +0.000 A 
ATOM     25  C   UNL     1       2.105   6.939  19.789  0.00  0.00    +0.000 A 
ATOM     26  C   UNL     1       2.623   6.956  18.484  0.00  0.00    +0.000 A 
ATOM     27  C   UNL     1       2.513   8.097  17.698  0.00  0.00    +0.000 A 
ATOM     28  C   UNL     1       1.889   9.245  18.192  0.00  0.00    +0.000 A 
ATOM     29  C   UNL     1       1.425   9.237  19.529  0.00  0.00    +0.000 A 
BRANCH  21  34
ATOM     30  C   UNL     1      -0.177  15.704  19.018  0.00  0.00    +0.000 C 
ATOM     31  C   UNL     1       0.110  14.263  19.309  0.00  0.00    +0.000 A 
ATOM     32  C   UNL     1       1.198  13.897  20.103  0.00  0.00    +0.000 A 
ATOM     33  C   UNL     1       1.407  12.558  20.440  0.00  0.00    +0.000 A 
ATOM     34  C   UNL     1       0.558  11.550  19.949  0.00  0.00    +0.000 A 
ATOM     35  C   UNL     1      -0.492  11.918  19.104  0.00  0.00    +0.000 A 
ATOM     36  C   UNL     1      -0.722  13.262  18.798  0.00  0.00    +0.000 A 
ENDBRANCH  21  34
ENDBRANCH  20  22
ENDBRANCH   1  20
TORSDOF 6
ENDMDL
