MODEL 1
REMARK VINA RESULT:      -8.1      0.000      0.000
REMARK  Name = 
REMARK  10 active torsions:
REMARK  status: ('A' for Active; 'I' for Inactive)
REMARK    1  A    between atoms: C_1  and  C_2
REMARK    2  A    between atoms: C_2  and  C_3
REMARK    3  A    between atoms: C_3  and  C_4
REMARK    4  A    between atoms: C_4  and  C_5
REMARK    5  A    between atoms: C_5  and  C_6
REMARK    6  A    between atoms: C_6  and  C_7
REMARK    7  A    between atoms: C_15  and  C_16
REMARK    8  A    between atoms: C_19  and  N_20
REMARK    9  A    between atoms: C_19  and  C_21
REMARK   10  A    between atoms: C_21  and  O_22
REMARK                            x       y       z     vdW  Elec       q    Type
REMARK                         _______ _______ _______ _____ _____    ______ ____
ROOT
ATOM      1  C   UNL     1       5.487   4.870  16.779  0.00  0.00    +0.000 A 
ATOM      2  N   UNL     1       4.768   4.216  17.668  0.00  0.00    +0.000 NA
ATOM      3  C   UNL     1       3.819   5.071  18.181  0.00  0.00    +0.000 A 
ATOM      4  C   UNL     1       3.832   6.355  17.674  0.00  0.00    +0.000 A 
ATOM      5  S   UNL     1       4.987   6.483  16.441  0.00  0.00    +0.000 S 
ATOM      6  C   UNL     1       2.990   7.428  18.177  0.00  0.00    +0.000 A 
ATOM      7  C   UNL     1       2.844   8.660  17.539  0.00  0.00    +0.000 A 
ATOM      8  C   UNL     1       2.003   9.629  18.082  0.00  0.00    +0.000 A 
ATOM      9  C   UNL     1       1.277   9.386  19.261  0.00  0.00    +0.000 A 
ATOM     10  C   UNL     1       1.466   8.163  19.918  0.00  0.00    +0.000 A 
ATOM     11  C   UNL     1       2.297   7.176  19.382  0.00  0.00    +0.000 A 
ATOM     12  C   UNL     1       2.510   5.872  20.142  0.00  0.00    +0.000 C 
ATOM     13  C   UNL     1       2.852   4.668  19.240  0.00  0.00    +0.000 C 
ENDROOT
BRANCH   9  14
ATOM     14  C   UNL     1       0.301  10.451  19.733  0.00  0.00    +0.000 C 
ATOM     15  C   UNL     1       0.537  11.777  18.969  0.00  0.00    +0.000 C 
ATOM     16  C   UNL     1      -0.805  12.189  18.371  0.00  0.00    +0.000 C 
ATOM     17  C   UNL     1      -1.632  10.900  18.291  0.00  0.00    +0.000 C 
ATOM     18  C   UNL     1      -1.210  10.185  19.581  0.00  0.00    +0.000 C 
BRANCH  17  19
ATOM     19  N   UNL     1      -1.231  10.147  17.091  0.00  0.00    +0.000 NA
ATOM     20  H   UNL     1      -0.653   9.357  17.391  0.00  0.00    +0.000 HD
ATOM     21  H   UNL     1      -0.602  10.717  16.524  0.00  0.00    +0.000 HD
ENDBRANCH  17  19
BRANCH  17  22
ATOM     22  C   UNL     1      -3.147  11.173  18.245  0.00  0.00    +0.000 C 
BRANCH  22  23
ATOM     23  O   UNL     1      -3.462  12.415  18.875  0.00  0.00    +0.000 OA
ATOM     24  H   UNL     1      -3.711  13.041  18.173  0.00  0.00    +0.000 HD
ENDBRANCH  22  23
ENDBRANCH  17  22
ENDBRANCH   9  14
BRANCH   1  25
ATOM     25  C   UNL     1       6.724   4.345  16.131  0.00  0.00    +0.000 C 
BRANCH  25  26
ATOM     26  C   UNL     1       6.705   4.676  14.637  0.00  0.00    +0.000 C 
BRANCH  26  27
ATOM     27  C   UNL     1       5.771   3.748  13.871  0.00  0.00    +0.000 C 
BRANCH  27  28
ATOM     28  C   UNL     1       6.246   3.576  12.429  0.00  0.00    +0.000 C 
BRANCH  28  30
ATOM     29  C   UNL     1       4.120   3.187  11.146  0.00  0.00    +0.000 C 
ATOM     30  C   UNL     1       5.390   2.553  11.688  0.00  0.00    +0.000 C 
ENDBRANCH  28  30
ENDBRANCH  27  28
ENDBRANCH  26  27
ENDBRANCH  25  26
ENDBRANCH   1  25
TORSDOF 9
ENDMDL
MODEL 2
REMARK VINA RESULT:      -7.7      2.080      3.072
REMARK  Name = 
REMARK  10 active torsions:
REMARK  status: ('A' for Active; 'I' for Inactive)
REMARK    1  A    between atoms: C_1  and  C_2
REMARK    2  A    between atoms: C_2  and  C_3
REMARK    3  A    between atoms: C_3  and  C_4
REMARK    4  A    between atoms: C_4  and  C_5
REMARK    5  A    between atoms: C_5  and  C_6
REMARK    6  A    between atoms: C_6  and  C_7
REMARK    7  A    between atoms: C_15  and  C_16
REMARK    8  A    between atoms: C_19  and  N_20
REMARK    9  A    between atoms: C_19  and  C_21
REMARK   10  A    between atoms: C_21  and  O_22
REMARK                            x       y       z     vdW  Elec       q    Type
REMARK                         _______ _______ _______ _____ _____    ______ ____
ROOT
ATOM      1  C   UNL     1       4.599   4.731  17.486  0.00  0.00    +0.000 A 
ATOM      2  N   UNL     1       3.859   4.282  18.478  0.00  0.00    +0.000 NA
ATOM      3  C   UNL     1       3.024   5.294  18.896  0.00  0.00    +0.000 A 
ATOM      4  C   UNL     1       3.143   6.489  18.215  0.00  0.00    +0.000 A 
ATOM      5  S   UNL     1       4.249   6.327  16.942  0.00  0.00    +0.000 S 
ATOM      6  C   UNL     1       2.435   7.702  18.589  0.00  0.00    +0.000 A 
ATOM      7  C   UNL     1       2.385   8.845  17.792  0.00  0.00    +0.000 A 
ATOM      8  C   UNL     1       1.670   9.962  18.219  0.00  0.00    +0.000 A 
ATOM      9  C   UNL     1       0.976   9.958  19.442  0.00  0.00    +0.000 A 
ATOM     10  C   UNL     1       1.071   8.822  20.257  0.00  0.00    +0.000 A 
ATOM     11  C   UNL     1       1.774   7.690  19.838  0.00  0.00    +0.000 A 
ATOM     12  C   UNL     1       1.888   6.485  20.765  0.00  0.00    +0.000 C 
ATOM     13  C   UNL     1       2.069   5.141  20.029  0.00  0.00    +0.000 C 
ENDROOT
BRANCH   9  14
ATOM     14  C   UNL     1       0.134  11.174  19.791  0.00  0.00    +0.000 C 
ATOM     15  C   UNL     1       0.433  12.337  18.813  0.00  0.00    +0.000 C 
ATOM     16  C   UNL     1      -0.906  12.782  18.231  0.00  0.00    +0.000 C 
ATOM     17  C   UNL     1      -1.848  11.584  18.403  0.00  0.00    +0.000 C 
ATOM     18  C   UNL     1      -1.402  11.037  19.765  0.00  0.00    +0.000 C 
BRANCH  17  19
ATOM     19  N   UNL     1      -1.599  10.620  17.318  0.00  0.00    +0.000 NA
ATOM     20  H   UNL     1      -2.489  10.170  17.084  0.00  0.00    +0.000 HD
ATOM     21  H   UNL     1      -1.017   9.857  17.665  0.00  0.00    +0.000 HD
ENDBRANCH  17  19
BRANCH  17  22
ATOM     22  C   UNL     1      -3.332  11.994  18.396  0.00  0.00    +0.000 C 
BRANCH  22  23
ATOM     23  O   UNL     1      -3.971  11.580  17.188  0.00  0.00    +0.000 OA
ATOM     24  H   UNL     1      -4.091  12.374  16.638  0.00  0.00    +0.000 HD
ENDBRANCH  22  23
ENDBRANCH  17  22
ENDBRANCH   9  14
BRANCH   1  25
ATOM     25  C   UNL     1       5.749   3.996  16.881  0.00  0.00    +0.000 C 
BRANCH  25  26
ATOM     26  C   UNL     1       6.956   4.930  16.769  0.00  0.00    +0.000 C 
BRANCH  26  27
ATOM     27  C   UNL     1       7.752   4.971  18.067  0.00  0.00    +0.000 C 
BRANCH  27  28
ATOM     28  C   UNL     1       7.762   6.384  18.648  0.00  0.00    +0.000 C 
BRANCH  28  30
ATOM     29  C   UNL     1       8.187   8.774  17.997  0.00  0.00    +0.000 C 
ATOM     30  C   UNL     1       7.641   7.431  17.544  0.00  0.00    +0.000 C 
ENDBRANCH  28  30
ENDBRANCH  27  28
ENDBRANCH  26  27
ENDBRANCH  25  26
ENDBRANCH   1  25
TORSDOF 9
ENDMDL
MODEL 3
REMARK VINA RESULT:      -7.6      1.253      1.561
REMARK  Name = 
REMARK  10 active torsions:
REMARK  status: ('A' for Active; 'I' for Inactive)
REMARK    1  A    between atoms: C_1  and  C_2
REMARK    2  A    between atoms: C_2  and  C_3
REMARK    3  A    between atoms: C_3  and  C_4
REMARK    4  A    between atoms: C_4  and  C_5
REMARK    5  A    between atoms: C_5  and  C_6
REMARK    6  A    between atoms: C_6  and  C_7
REMARK    7  A    between atoms: C_15  and  C_16
REMARK    8  A    between atoms: C_19  and  N_20
REMARK    9  A    between atoms: C_19  and  C_21
REMARK   10  A    between atoms: C_21  and  O_22
REMARK                            x       y       z     vdW  Elec       q    Type
REMARK                         _______ _______ _______ _____ _____    ______ ____
ROOT
ATOM      1  C   UNL     1       5.622   4.769  16.541  0.00  0.00    +0.000 A 
ATOM      2  N   UNL     1       5.099   4.050  17.512  0.00  0.00    +0.000 NA
ATOM      3  C   UNL     1       4.131   4.799  18.142  0.00  0.00    +0.000 A 
ATOM      4  C   UNL     1       3.935   6.070  17.638  0.00  0.00    +0.000 A 
ATOM      5  S   UNL     1       4.904   6.311  16.270  0.00  0.00    +0.000 S 
ATOM      6  C   UNL     1       3.045   7.047  18.244  0.00  0.00    +0.000 A 
ATOM      7  C   UNL     1       2.682   8.246  17.631  0.00  0.00    +0.000 A 
ATOM      8  C   UNL     1       1.811   9.122  18.276  0.00  0.00    +0.000 A 
ATOM      9  C   UNL     1       1.270   8.814  19.537  0.00  0.00    +0.000 A 
ATOM     10  C   UNL     1       1.678   7.629  20.164  0.00  0.00    +0.000 A 
ATOM     11  C   UNL     1       2.542   6.735  19.527  0.00  0.00    +0.000 A 
ATOM     12  C   UNL     1       2.995   5.473  20.253  0.00  0.00    +0.000 C 
ATOM     13  C   UNL     1       3.356   4.304  19.313  0.00  0.00    +0.000 C 
ENDROOT
BRANCH   9  14
ATOM     14  C   UNL     1       0.247   9.768  20.129  0.00  0.00    +0.000 C 
ATOM     15  C   UNL     1       0.922  10.719  21.148  0.00  0.00    +0.000 C 
ATOM     16  C   UNL     1       0.572  12.144  20.725  0.00  0.00    +0.000 C 
ATOM     17  C   UNL     1       0.216  12.053  19.236  0.00  0.00    +0.000 C 
ATOM     18  C   UNL     1      -0.521  10.708  19.178  0.00  0.00    +0.000 C 
BRANCH  17  19
ATOM     19  N   UNL     1       1.458  12.032  18.446  0.00  0.00    +0.000 NA
ATOM     20  H   UNL     1       1.940  12.924  18.590  0.00  0.00    +0.000 HD
ATOM     21  H   UNL     1       1.231  12.027  17.452  0.00  0.00    +0.000 HD
ENDBRANCH  17  19
BRANCH  17  22
ATOM     22  C   UNL     1      -0.670  13.223  18.769  0.00  0.00    +0.000 C 
BRANCH  22  23
ATOM     23  O   UNL     1      -1.164  12.995  17.449  0.00  0.00    +0.000 OA
ATOM     24  H   UNL     1      -0.581  12.337  17.032  0.00  0.00    +0.000 HD
ENDBRANCH  22  23
ENDBRANCH  17  22
ENDBRANCH   9  14
BRANCH   1  25
ATOM     25  C   UNL     1       6.821   4.379  15.742  0.00  0.00    +0.000 C 
BRANCH  25  26
ATOM     26  C   UNL     1       6.384   3.914  14.351  0.00  0.00    +0.000 C 
BRANCH  26  27
ATOM     27  C   UNL     1       7.229   4.556  13.257  0.00  0.00    +0.000 C 
BRANCH  27  28
ATOM     28  C   UNL     1       6.894   3.952  11.894  0.00  0.00    +0.000 C 
BRANCH  28  30
ATOM     29  C   UNL     1       5.971   1.672  11.377  0.00  0.00    +0.000 C 
ATOM     30  C   UNL     1       5.679   3.033  11.986  0.00  0.00    +0.000 C 
ENDBRANCH  28  30
ENDBRANCH  27  28
ENDBRANCH  26  27
ENDBRANCH  25  26
ENDBRANCH   1  25
TORSDOF 9
ENDMDL
MODEL 4
REMARK VINA RESULT:      -7.6      0.977      1.272
REMARK  Name = 
REMARK  10 active torsions:
REMARK  status: ('A' for Active; 'I' for Inactive)
REMARK    1  A    between atoms: C_1  and  C_2
REMARK    2  A    between atoms: C_2  and  C_3
REMARK    3  A    between atoms: C_3  and  C_4
REMARK    4  A    between atoms: C_4  and  C_5
REMARK    5  A    between atoms: C_5  and  C_6
REMARK    6  A    between atoms: C_6  and  C_7
REMARK    7  A    between atoms: C_15  and  C_16
REMARK    8  A    between atoms: C_19  and  N_20
REMARK    9  A    between atoms: C_19  and  C_21
REMARK   10  A    between atoms: C_21  and  O_22
REMARK                            x       y       z     vdW  Elec       q    Type
REMARK                         _______ _______ _______ _____ _____    ______ ____
ROOT
ATOM      1  C   UNL     1       5.085   5.037  17.298  0.00  0.00    +0.000 A 
ATOM      2  N   UNL     1       4.362   4.482  18.248  0.00  0.00    +0.000 NA
ATOM      3  C   UNL     1       3.430   5.398  18.683  0.00  0.00    +0.000 A 
ATOM      4  C   UNL     1       3.461   6.629  18.056  0.00  0.00    +0.000 A 
ATOM      5  S   UNL     1       4.610   6.619  16.811  0.00  0.00    +0.000 S 
ATOM      6  C   UNL     1       2.639   7.758  18.459  0.00  0.00    +0.000 A 
ATOM      7  C   UNL     1       2.509   8.926  17.708  0.00  0.00    +0.000 A 
ATOM      8  C   UNL     1       1.688   9.957  18.161  0.00  0.00    +0.000 A 
ATOM      9  C   UNL     1       0.966   9.838  19.361  0.00  0.00    +0.000 A 
ATOM     10  C   UNL     1       1.139   8.680  20.131  0.00  0.00    +0.000 A 
ATOM     11  C   UNL     1       1.951   7.633  19.686  0.00  0.00    +0.000 A 
ATOM     12  C   UNL     1       2.146   6.403  20.566  0.00  0.00    +0.000 C 
ATOM     13  C   UNL     1       2.463   5.114  19.779  0.00  0.00    +0.000 C 
ENDROOT
BRANCH   9  14
ATOM     14  C   UNL     1       0.011  10.960  19.735  0.00  0.00    +0.000 C 
ATOM     15  C   UNL     1       0.310  12.226  18.896  0.00  0.00    +0.000 C 
ATOM     16  C   UNL     1      -1.002  12.639  18.232  0.00  0.00    +0.000 C 
ATOM     17  C   UNL     1      -1.866  11.372  18.210  0.00  0.00    +0.000 C 
ATOM     18  C   UNL     1      -1.503  10.729  19.554  0.00  0.00    +0.000 C 
BRANCH  17  19
ATOM     19  N   UNL     1      -1.455  10.532  17.072  0.00  0.00    +0.000 NA
ATOM     20  H   UNL     1      -0.577  10.068  17.322  0.00  0.00    +0.000 HD
ATOM     21  H   UNL     1      -1.207  11.126  16.280  0.00  0.00    +0.000 HD
ENDBRANCH  17  19
BRANCH  17  22
ATOM     22  C   UNL     1      -3.370  11.685  18.100  0.00  0.00    +0.000 C 
BRANCH  22  23
ATOM     23  O   UNL     1      -3.765  11.822  16.734  0.00  0.00    +0.000 OA
ATOM     24  H   UNL     1      -3.758  12.773  16.525  0.00  0.00    +0.000 HD
ENDBRANCH  22  23
ENDBRANCH  17  22
ENDBRANCH   9  14
BRANCH   1  25
ATOM     25  C   UNL     1       6.310   4.432  16.696  0.00  0.00    +0.000 C 
BRANCH  25  26
ATOM     26  C   UNL     1       5.924   3.590  15.478  0.00  0.00    +0.000 C 
BRANCH  26  27
ATOM     27  C   UNL     1       5.919   4.423  14.203  0.00  0.00    +0.000 C 
BRANCH  27  28
ATOM     28  C   UNL     1       6.190   3.543  12.984  0.00  0.00    +0.000 C 
BRANCH  28  30
ATOM     29  C   UNL     1       7.905   5.355  12.688  0.00  0.00    +0.000 C 
ATOM     30  C   UNL     1       7.139   4.233  12.009  0.00  0.00    +0.000 C 
ENDBRANCH  28  30
ENDBRANCH  27  28
ENDBRANCH  26  27
ENDBRANCH  25  26
ENDBRANCH   1  25
TORSDOF 9
ENDMDL
MODEL 5
REMARK VINA RESULT:      -7.5      3.605      5.338
REMARK  Name = 
REMARK  10 active torsions:
REMARK  status: ('A' for Active; 'I' for Inactive)
REMARK    1  A    between atoms: C_1  and  C_2
REMARK    2  A    between atoms: C_2  and  C_3
REMARK    3  A    between atoms: C_3  and  C_4
REMARK    4  A    between atoms: C_4  and  C_5
REMARK    5  A    between atoms: C_5  and  C_6
REMARK    6  A    between atoms: C_6  and  C_7
REMARK    7  A    between atoms: C_15  and  C_16
REMARK    8  A    between atoms: C_19  and  N_20
REMARK    9  A    between atoms: C_19  and  C_21
REMARK   10  A    between atoms: C_21  and  O_22
REMARK                            x       y       z     vdW  Elec       q    Type
REMARK                         _______ _______ _______ _____ _____    ______ ____
ROOT
ATOM      1  C   UNL     1       2.657   6.333  18.579  0.00  0.00    +0.000 A 
ATOM      2  N   UNL     1       2.677   7.415  17.828  0.00  0.00    +0.000 NA
ATOM      3  C   UNL     1       2.101   8.449  18.530  0.00  0.00    +0.000 A 
ATOM      4  C   UNL     1       1.655   8.136  19.800  0.00  0.00    +0.000 A 
ATOM      5  S   UNL     1       2.060   6.536  20.182  0.00  0.00    +0.000 S 
ATOM      6  C   UNL     1       0.915   9.061  20.643  0.00  0.00    +0.000 A 
ATOM      7  C   UNL     1       0.648   8.831  21.992  0.00  0.00    +0.000 A 
ATOM      8  C   UNL     1      -0.057   9.778  22.733  0.00  0.00    +0.000 A 
ATOM      9  C   UNL     1      -0.495  10.980  22.151  0.00  0.00    +0.000 A 
ATOM     10  C   UNL     1      -0.262  11.180  20.783  0.00  0.00    +0.000 A 
ATOM     11  C   UNL     1       0.452  10.246  20.029  0.00  0.00    +0.000 A 
ATOM     12  C   UNL     1       0.655  10.477  18.535  0.00  0.00    +0.000 C 
ATOM     13  C   UNL     1       1.928   9.816  17.965  0.00  0.00    +0.000 C 
ENDROOT
BRANCH   9  14
ATOM     14  C   UNL     1      -1.164  12.008  23.047  0.00  0.00    +0.000 C 
ATOM     15  C   UNL     1      -0.872  13.441  22.538  0.00  0.00    +0.000 C 
ATOM     16  C   UNL     1      -2.221  14.135  22.370  0.00  0.00    +0.000 C 
ATOM     17  C   UNL     1      -3.249  13.006  22.224  0.00  0.00    +0.000 C 
ATOM     18  C   UNL     1      -2.697  11.961  23.203  0.00  0.00    +0.000 C 
BRANCH  17  19
ATOM     19  N   UNL     1      -3.230  12.518  20.835  0.00  0.00    +0.000 NA
ATOM     20  H   UNL     1      -2.358  12.833  20.400  0.00  0.00    +0.000 HD
ATOM     21  H   UNL     1      -3.961  12.986  20.299  0.00  0.00    +0.000 HD
ENDBRANCH  17  19
BRANCH  17  22
ATOM     22  C   UNL     1      -4.675  13.455  22.592  0.00  0.00    +0.000 C 
BRANCH  22  23
ATOM     23  O   UNL     1      -5.334  12.465  23.383  0.00  0.00    +0.000 OA
ATOM     24  H   UNL     1      -4.759  11.680  23.402  0.00  0.00    +0.000 HD
ENDBRANCH  22  23
ENDBRANCH  17  22
ENDBRANCH   9  14
BRANCH   1  25
ATOM     25  C   UNL     1       3.026   4.964  18.113  0.00  0.00    +0.000 C 
BRANCH  25  26
ATOM     26  C   UNL     1       1.775   4.232  17.622  0.00  0.00    +0.000 C 
BRANCH  26  27
ATOM     27  C   UNL     1       1.787   2.767  18.038  0.00  0.00    +0.000 C 
BRANCH  27  28
ATOM     28  C   UNL     1       2.447   2.600  19.406  0.00  0.00    +0.000 C 
BRANCH  28  30
ATOM     29  C   UNL     1       2.038   3.133  21.828  0.00  0.00    +0.000 C 
ATOM     30  C   UNL     1       1.412   2.664  20.526  0.00  0.00    +0.000 C 
ENDBRANCH  28  30
ENDBRANCH  27  28
ENDBRANCH  26  27
ENDBRANCH  25  26
ENDBRANCH   1  25
TORSDOF 9
ENDMDL
MODEL 6
REMARK VINA RESULT:      -7.1      4.264     10.385
REMARK  Name = 
REMARK  10 active torsions:
REMARK  status: ('A' for Active; 'I' for Inactive)
REMARK    1  A    between atoms: C_1  and  C_2
REMARK    2  A    between atoms: C_2  and  C_3
REMARK    3  A    between atoms: C_3  and  C_4
REMARK    4  A    between atoms: C_4  and  C_5
REMARK    5  A    between atoms: C_5  and  C_6
REMARK    6  A    between atoms: C_6  and  C_7
REMARK    7  A    between atoms: C_15  and  C_16
REMARK    8  A    between atoms: C_19  and  N_20
REMARK    9  A    between atoms: C_19  and  C_21
REMARK   10  A    between atoms: C_21  and  O_22
REMARK                            x       y       z     vdW  Elec       q    Type
REMARK                         _______ _______ _______ _____ _____    ______ ____
ROOT
ATOM      1  C   UNL     1      -0.409  11.099  21.581  0.00  0.00    +0.000 A 
ATOM      2  N   UNL     1      -0.401  11.292  20.279  0.00  0.00    +0.000 NA
ATOM      3  C   UNL     1       0.236  10.229  19.680  0.00  0.00    +0.000 A 
ATOM      4  C   UNL     1       0.698   9.248  20.535  0.00  0.00    +0.000 A 
ATOM      5  S   UNL     1       0.236   9.598  22.127  0.00  0.00    +0.000 S 
ATOM      6  C   UNL     1       1.497   8.114  20.102  0.00  0.00    +0.000 A 
ATOM      7  C   UNL     1       1.787   7.017  20.914  0.00  0.00    +0.000 A 
ATOM      8  C   UNL     1       2.550   5.963  20.414  0.00  0.00    +0.000 A 
ATOM      9  C   UNL     1       3.024   5.971  19.090  0.00  0.00    +0.000 A 
ATOM     10  C   UNL     1       2.767   7.099  18.298  0.00  0.00    +0.000 A 
ATOM     11  C   UNL     1       1.995   8.158  18.780  0.00  0.00    +0.000 A 
ATOM     12  C   UNL     1       1.766   9.385  17.905  0.00  0.00    +0.000 C 
ATOM     13  C   UNL     1       0.453  10.137  18.210  0.00  0.00    +0.000 C 
ENDROOT
BRANCH   9  14
ATOM     14  C   UNL     1       3.758   4.740  18.586  0.00  0.00    +0.000 C 
ATOM     15  C   UNL     1       3.691   4.667  17.041  0.00  0.00    +0.000 C 
ATOM     16  C   UNL     1       5.127   4.537  16.540  0.00  0.00    +0.000 C 
ATOM     17  C   UNL     1       6.006   5.090  17.668  0.00  0.00    +0.000 C 
ATOM     18  C   UNL     1       5.258   4.593  18.912  0.00  0.00    +0.000 C 
BRANCH  17  19
ATOM     19  N   UNL     1       6.020   6.560  17.589  0.00  0.00    +0.000 NA
ATOM     20  H   UNL     1       5.588   6.833  16.701  0.00  0.00    +0.000 HD
ATOM     21  H   UNL     1       6.983   6.889  17.510  0.00  0.00    +0.000 HD
ENDBRANCH  17  19
BRANCH  17  22
ATOM     22  C   UNL     1       7.451   4.558  17.605  0.00  0.00    +0.000 C 
BRANCH  22  23
ATOM     23  O   UNL     1       7.912   4.491  16.255  0.00  0.00    +0.000 OA
ATOM     24  H   UNL     1       8.021   5.406  15.941  0.00  0.00    +0.000 HD
ENDBRANCH  22  23
ENDBRANCH  17  22
ENDBRANCH   9  14
BRANCH   1  25
ATOM     25  C   UNL     1      -0.847  12.107  22.590  0.00  0.00    +0.000 C 
BRANCH  25  26
ATOM     26  C   UNL     1      -2.248  11.757  23.095  0.00  0.00    +0.000 C 
BRANCH  26  27
ATOM     27  C   UNL     1      -3.298  12.705  22.530  0.00  0.00    +0.000 C 
BRANCH  27  28
ATOM     28  C   UNL     1      -3.036  14.137  22.993  0.00  0.00    +0.000 C 
BRANCH  28  30
ATOM     29  C   UNL     1      -3.572  15.676  24.906  0.00  0.00    +0.000 C 
ATOM     30  C   UNL     1      -3.191  14.261  24.506  0.00  0.00    +0.000 C 
ENDBRANCH  28  30
ENDBRANCH  27  28
ENDBRANCH  26  27
ENDBRANCH  25  26
ENDBRANCH   1  25
TORSDOF 9
ENDMDL
MODEL 7
REMARK VINA RESULT:      -7.1      2.743      4.047
REMARK  Name = 
REMARK  10 active torsions:
REMARK  status: ('A' for Active; 'I' for Inactive)
REMARK    1  A    between atoms: C_1  and  C_2
REMARK    2  A    between atoms: C_2  and  C_3
REMARK    3  A    between atoms: C_3  and  C_4
REMARK    4  A    between atoms: C_4  and  C_5
REMARK    5  A    between atoms: C_5  and  C_6
REMARK    6  A    between atoms: C_6  and  C_7
REMARK    7  A    between atoms: C_15  and  C_16
REMARK    8  A    between atoms: C_19  and  N_20
REMARK    9  A    between atoms: C_19  and  C_21
REMARK   10  A    between atoms: C_21  and  O_22
REMARK                            x       y       z     vdW  Elec       q    Type
REMARK                         _______ _______ _______ _____ _____    ______ ____
ROOT
ATOM      1  C   UNL     1       4.718   5.405  17.263  0.00  0.00    +0.000 A 
ATOM      2  N   UNL     1       4.060   4.822  18.243  0.00  0.00    +0.000 NA
ATOM      3  C   UNL     1       3.137   5.712  18.743  0.00  0.00    +0.000 A 
ATOM      4  C   UNL     1       3.108   6.952  18.134  0.00  0.00    +0.000 A 
ATOM      5  S   UNL     1       4.186   6.983  16.827  0.00  0.00    +0.000 S 
ATOM      6  C   UNL     1       2.288   8.058  18.599  0.00  0.00    +0.000 A 
ATOM      7  C   UNL     1       2.094   9.234  17.874  0.00  0.00    +0.000 A 
ATOM      8  C   UNL     1       1.279  10.242  18.387  0.00  0.00    +0.000 A 
ATOM      9  C   UNL     1       0.627  10.091  19.624  0.00  0.00    +0.000 A 
ATOM     10  C   UNL     1       0.866   8.926  20.365  0.00  0.00    +0.000 A 
ATOM     11  C   UNL     1       1.672   7.903  19.860  0.00  0.00    +0.000 A 
ATOM     12  C   UNL     1       1.940   6.664  20.709  0.00  0.00    +0.000 C 
ATOM     13  C   UNL     1       2.238   5.393  19.887  0.00  0.00    +0.000 C 
ENDROOT
BRANCH   9  14
ATOM     14  C   UNL     1      -0.327  11.188  20.067  0.00  0.00    +0.000 C 
ATOM     15  C   UNL     1      -0.530  11.139  21.602  0.00  0.00    +0.000 C 
ATOM     16  C   UNL     1      -0.216  12.534  22.135  0.00  0.00    +0.000 C 
ATOM     17  C   UNL     1       0.675  13.189  21.073  0.00  0.00    +0.000 C 
ATOM     18  C   UNL     1       0.051  12.654  19.777  0.00  0.00    +0.000 C 
BRANCH  17  19
ATOM     19  N   UNL     1       2.058  12.716  21.250  0.00  0.00    +0.000 NA
ATOM     20  H   UNL     1       2.463  12.566  20.321  0.00  0.00    +0.000 HD
ATOM     21  H   UNL     1       2.050  11.787  21.673  0.00  0.00    +0.000 HD
ENDBRANCH  17  19
BRANCH  17  22
ATOM     22  C   UNL     1       0.645  14.727  21.143  0.00  0.00    +0.000 C 
BRANCH  22  23
ATOM     23  O   UNL     1       0.577  15.175  22.497  0.00  0.00    +0.000 OA
ATOM     24  H   UNL     1      -0.222  14.784  22.892  0.00  0.00    +0.000 HD
ENDBRANCH  22  23
ENDBRANCH  17  22
ENDBRANCH   9  14
BRANCH   1  25
ATOM     25  C   UNL     1       5.919   4.834  16.585  0.00  0.00    +0.000 C 
BRANCH  25  26
ATOM     26  C   UNL     1       7.132   5.731  16.843  0.00  0.00    +0.000 C 
BRANCH  26  27
ATOM     27  C   UNL     1       7.485   5.781  18.324  0.00  0.00    +0.000 C 
BRANCH  27  28
ATOM     28  C   UNL     1       8.211   7.082  18.661  0.00  0.00    +0.000 C 
BRANCH  28  30
ATOM     29  C   UNL     1       8.387   9.533  18.132  0.00  0.00    +0.000 C 
ATOM     30  C   UNL     1       7.822   8.193  17.690  0.00  0.00    +0.000 C 
ENDBRANCH  28  30
ENDBRANCH  27  28
ENDBRANCH  26  27
ENDBRANCH  25  26
ENDBRANCH   1  25
TORSDOF 9
ENDMDL
MODEL 8
REMARK VINA RESULT:      -7.1      3.965     10.137
REMARK  Name = 
REMARK  10 active torsions:
REMARK  status: ('A' for Active; 'I' for Inactive)
REMARK    1  A    between atoms: C_1  and  C_2
REMARK    2  A    between atoms: C_2  and  C_3
REMARK    3  A    between atoms: C_3  and  C_4
REMARK    4  A    between atoms: C_4  and  C_5
REMARK    5  A    between atoms: C_5  and  C_6
REMARK    6  A    between atoms: C_6  and  C_7
REMARK    7  A    between atoms: C_15  and  C_16
REMARK    8  A    between atoms: C_19  and  N_20
REMARK    9  A    between atoms: C_19  and  C_21
REMARK   10  A    between atoms: C_21  and  O_22
REMARK                            x       y       z     vdW  Elec       q    Type
REMARK                         _______ _______ _______ _____ _____    ______ ____
ROOT
ATOM      1  C   UNL     1      -0.351  11.066  21.596  0.00  0.00    +0.000 A 
ATOM      2  N   UNL     1      -0.296  11.289  20.299  0.00  0.00    +0.000 NA
ATOM      3  C   UNL     1       0.331  10.222  19.696  0.00  0.00    +0.000 A 
ATOM      4  C   UNL     1       0.738   9.209  20.541  0.00  0.00    +0.000 A 
ATOM      5  S   UNL     1       0.234   9.535  22.125  0.00  0.00    +0.000 S 
ATOM      6  C   UNL     1       1.519   8.063  20.106  0.00  0.00    +0.000 A 
ATOM      7  C   UNL     1       1.752   6.940  20.900  0.00  0.00    +0.000 A 
ATOM      8  C   UNL     1       2.501   5.877  20.399  0.00  0.00    +0.000 A 
ATOM      9  C   UNL     1       3.018   5.902  19.092  0.00  0.00    +0.000 A 
ATOM     10  C   UNL     1       2.818   7.054  18.320  0.00  0.00    +0.000 A 
ATOM     11  C   UNL     1       2.060   8.124  18.803  0.00  0.00    +0.000 A 
ATOM     12  C   UNL     1       1.893   9.377  17.950  0.00  0.00    +0.000 C 
ATOM     13  C   UNL     1       0.592  10.158  18.231  0.00  0.00    +0.000 C 
ENDROOT
BRANCH   9  14
ATOM     14  C   UNL     1       3.734   4.663  18.582  0.00  0.00    +0.000 C 
ATOM     15  C   UNL     1       3.512   4.500  17.058  0.00  0.00    +0.000 C 
ATOM     16  C   UNL     1       4.893   4.378  16.419  0.00  0.00    +0.000 C 
ATOM     17  C   UNL     1       5.866   5.015  17.420  0.00  0.00    +0.000 C 
ATOM     18  C   UNL     1       5.263   4.571  18.759  0.00  0.00    +0.000 C 
BRANCH  17  19
ATOM     19  N   UNL     1       5.827   6.478  17.260  0.00  0.00    +0.000 NA
ATOM     20  H   UNL     1       6.789   6.810  17.149  0.00  0.00    +0.000 HD
ATOM     21  H   UNL     1       5.513   6.908  18.131  0.00  0.00    +0.000 HD
ENDBRANCH  17  19
BRANCH  17  22
ATOM     22  C   UNL     1       7.311   4.516  17.237  0.00  0.00    +0.000 C 
BRANCH  22  23
ATOM     23  O   UNL     1       8.024   4.552  18.474  0.00  0.00    +0.000 OA
ATOM     24  H   UNL     1       8.935   4.829  18.275  0.00  0.00    +0.000 HD
ENDBRANCH  22  23
ENDBRANCH  17  22
ENDBRANCH   9  14
BRANCH   1  25
ATOM     25  C   UNL     1      -0.794  12.063  22.614  0.00  0.00    +0.000 C 
BRANCH  25  26
ATOM     26  C   UNL     1      -2.227  11.752  23.051  0.00  0.00    +0.000 C 
BRANCH  26  27
ATOM     27  C   UNL     1      -3.241  12.571  22.262  0.00  0.00    +0.000 C 
BRANCH  27  28
ATOM     28  C   UNL     1      -4.136  13.373  23.205  0.00  0.00    +0.000 C 
BRANCH  28  30
ATOM     29  C   UNL     1      -5.798  12.635  21.470  0.00  0.00    +0.000 C 
ATOM     30  C   UNL     1      -5.611  13.140  22.891  0.00  0.00    +0.000 C 
ENDBRANCH  28  30
ENDBRANCH  27  28
ENDBRANCH  26  27
ENDBRANCH  25  26
ENDBRANCH   1  25
TORSDOF 9
ENDMDL
MODEL 9
REMARK VINA RESULT:      -7.1      2.878      4.433
REMARK  Name = 
REMARK  10 active torsions:
REMARK  status: ('A' for Active; 'I' for Inactive)
REMARK    1  A    between atoms: C_1  and  C_2
REMARK    2  A    between atoms: C_2  and  C_3
REMARK    3  A    between atoms: C_3  and  C_4
REMARK    4  A    between atoms: C_4  and  C_5
REMARK    5  A    between atoms: C_5  and  C_6
REMARK    6  A    between atoms: C_6  and  C_7
REMARK    7  A    between atoms: C_15  and  C_16
REMARK    8  A    between atoms: C_19  and  N_20
REMARK    9  A    between atoms: C_19  and  C_21
REMARK   10  A    between atoms: C_21  and  O_22
REMARK                            x       y       z     vdW  Elec       q    Type
REMARK                         _______ _______ _______ _____ _____    ______ ____
ROOT
ATOM      1  C   UNL     1       2.751   6.087  18.616  0.00  0.00    +0.000 A 
ATOM      2  N   UNL     1       2.769   7.146  17.833  0.00  0.00    +0.000 NA
ATOM      3  C   UNL     1       2.204   8.203  18.509  0.00  0.00    +0.000 A 
ATOM      4  C   UNL     1       1.769   7.931  19.791  0.00  0.00    +0.000 A 
ATOM      5  S   UNL     1       2.169   6.341  20.217  0.00  0.00    +0.000 S 
ATOM      6  C   UNL     1       1.041   8.884  20.613  0.00  0.00    +0.000 A 
ATOM      7  C   UNL     1       0.785   8.696  21.971  0.00  0.00    +0.000 A 
ATOM      8  C   UNL     1       0.091   9.667  22.690  0.00  0.00    +0.000 A 
ATOM      9  C   UNL     1      -0.346  10.854  22.076  0.00  0.00    +0.000 A 
ATOM     10  C   UNL     1      -0.125  11.011  20.701  0.00  0.00    +0.000 A 
ATOM     11  C   UNL     1       0.578  10.052  19.968  0.00  0.00    +0.000 A 
ATOM     12  C   UNL     1       0.768  10.238  18.467  0.00  0.00    +0.000 C 
ATOM     13  C   UNL     1       2.032   9.554  17.905  0.00  0.00    +0.000 C 
ENDROOT
BRANCH   9  14
ATOM     14  C   UNL     1      -1.003  11.911  22.948  0.00  0.00    +0.000 C 
ATOM     15  C   UNL     1      -0.678  13.328  22.415  0.00  0.00    +0.000 C 
ATOM     16  C   UNL     1      -2.011  14.046  22.222  0.00  0.00    +0.000 C 
ATOM     17  C   UNL     1      -3.060  12.935  22.088  0.00  0.00    +0.000 C 
ATOM     18  C   UNL     1      -2.538  11.898  23.091  0.00  0.00    +0.000 C 
BRANCH  17  19
ATOM     19  N   UNL     1      -3.039  12.421  20.708  0.00  0.00    +0.000 NA
ATOM     20  H   UNL     1      -3.203  11.410  20.744  0.00  0.00    +0.000 HD
ATOM     21  H   UNL     1      -2.098  12.508  20.325  0.00  0.00    +0.000 HD
ENDBRANCH  17  19
BRANCH  17  22
ATOM     22  C   UNL     1      -4.480  13.418  22.435  0.00  0.00    +0.000 C 
BRANCH  22  23
ATOM     23  O   UNL     1      -5.432  12.366  22.272  0.00  0.00    +0.000 OA
ATOM     24  H   UNL     1      -5.927  12.549  21.455  0.00  0.00    +0.000 HD
ENDBRANCH  22  23
ENDBRANCH  17  22
ENDBRANCH   9  14
BRANCH   1  25
ATOM     25  C   UNL     1       3.109   4.703  18.187  0.00  0.00    +0.000 C 
BRANCH  25  26
ATOM     26  C   UNL     1       4.610   4.625  17.898  0.00  0.00    +0.000 C 
BRANCH  26  27
ATOM     27  C   UNL     1       4.890   4.603  16.401  0.00  0.00    +0.000 C 
BRANCH  27  28
ATOM     28  C   UNL     1       5.813   5.755  16.009  0.00  0.00    +0.000 C 
BRANCH  28  30
ATOM     29  C   UNL     1       7.337   7.103  17.485  0.00  0.00    +0.000 C 
ATOM     30  C   UNL     1       7.087   5.746  16.849  0.00  0.00    +0.000 C 
ENDBRANCH  28  30
ENDBRANCH  27  28
ENDBRANCH  26  27
ENDBRANCH  25  26
ENDBRANCH   1  25
TORSDOF 9
ENDMDL
