MODEL 1
REMARK VINA RESULT:      -7.6      0.000      0.000
REMARK  Name = 
REMARK  8 active torsions:
REMARK  status: ('A' for Active; 'I' for Inactive)
REMARK    1  A    between atoms: C_1  and  C_2
REMARK    2  A    between atoms: C_2  and  C_3
REMARK    3  A    between atoms: C_2  and  N_4
REMARK    4  A    between atoms: C_7  and  C_8
REMARK    5  A    between atoms: N_10  and  C_11
REMARK    6  A    between atoms: N_10  and  C_12
REMARK    7  A    between atoms: C_12  and  C_13
REMARK    8  A    between atoms: C_12  and  C_14
REMARK                            x       y       z     vdW  Elec       q    Type
REMARK                         _______ _______ _______ _____ _____    ______ ____
ROOT
ATOM      1  C   UNL     1       4.433   4.753  17.903  0.00  0.00    +0.000 C 
ATOM      2  O   UNL     1       4.720   3.605  17.544  0.00  0.00    +0.000 OA
ATOM      3  N   UNL     1       3.198   5.013  18.490  0.00  0.00    +0.000 N 
ATOM      4  C   UNL     1       2.731   6.330  18.917  0.00  0.00    +0.000 C 
ENDROOT
BRANCH   1   8
ATOM      5  N   UNL     1       6.833   5.358  15.105  0.00  0.00    +0.000 NA
ATOM      6  C   UNL     1       5.430   5.793  15.126  0.00  0.00    +0.000 C 
ATOM      7  C   UNL     1       5.097   6.643  16.360  0.00  0.00    +0.000 C 
ATOM      8  C   UNL     1       5.419   5.909  17.659  0.00  0.00    +0.000 C 
ATOM      9  C   UNL     1       6.874   5.433  17.612  0.00  0.00    +0.000 C 
ATOM     10  C   UNL     1       7.223   4.661  16.340  0.00  0.00    +0.000 C 
BRANCH   5  12
ATOM     11  C   UNL     1       6.048   3.757  13.270  0.00  0.00    +0.000 C 
ATOM     12  C   UNL     1       7.197   4.552  13.913  0.00  0.00    +0.000 C 
ATOM     13  C   UNL     1       7.889   5.408  12.844  0.00  0.00    +0.000 C 
ENDBRANCH   5  12
ENDBRANCH   1   8
BRANCH   3  14
ATOM     14  C   UNL     1       2.236   3.885  18.566  0.00  0.00    +0.000 C 
ATOM     15  C   UNL     1       2.454   2.794  17.512  0.00  0.00    +0.000 C 
BRANCH  14  16
ATOM     16  C   UNL     1       2.198   3.340  19.973  0.00  0.00    +0.000 A 
ATOM     17  C   UNL     1       1.058   3.162  20.796  0.00  0.00    +0.000 A 
ATOM     18  C   UNL     1       1.550   2.597  21.941  0.00  0.00    +0.000 A 
ATOM     19  O   UNL     1       2.893   2.454  21.834  0.00  0.00    +0.000 OA
ATOM     20  N   UNL     1       3.311   2.926  20.601  0.00  0.00    +0.000 NA
ENDBRANCH  14  16
ENDBRANCH   3  14
TORSDOF 4
ENDMDL
MODEL 2
REMARK VINA RESULT:      -7.4      1.477      2.073
REMARK  Name = 
REMARK  8 active torsions:
REMARK  status: ('A' for Active; 'I' for Inactive)
REMARK    1  A    between atoms: C_1  and  C_2
REMARK    2  A    between atoms: C_2  and  C_3
REMARK    3  A    between atoms: C_2  and  N_4
REMARK    4  A    between atoms: C_7  and  C_8
REMARK    5  A    between atoms: N_10  and  C_11
REMARK    6  A    between atoms: N_10  and  C_12
REMARK    7  A    between atoms: C_12  and  C_13
REMARK    8  A    between atoms: C_12  and  C_14
REMARK                            x       y       z     vdW  Elec       q    Type
REMARK                         _______ _______ _______ _____ _____    ______ ____
ROOT
ATOM      1  C   UNL     1       5.030   5.764  18.765  0.00  0.00    +0.000 C 
ATOM      2  O   UNL     1       5.825   4.845  18.992  0.00  0.00    +0.000 OA
ATOM      3  N   UNL     1       3.747   5.730  19.305  0.00  0.00    +0.000 N 
ATOM      4  C   UNL     1       2.711   6.734  19.076  0.00  0.00    +0.000 C 
ENDROOT
BRANCH   1   8
ATOM      5  N   UNL     1       6.519   5.756  15.340  0.00  0.00    +0.000 NA
ATOM      6  C   UNL     1       5.081   5.732  15.637  0.00  0.00    +0.000 C 
ATOM      7  C   UNL     1       4.650   6.899  16.537  0.00  0.00    +0.000 C 
ATOM      8  C   UNL     1       5.437   6.929  17.845  0.00  0.00    +0.000 C 
ATOM      9  C   UNL     1       6.934   6.920  17.522  0.00  0.00    +0.000 C 
ATOM     10  C   UNL     1       7.344   5.808  16.556  0.00  0.00    +0.000 C 
BRANCH   5  12
ATOM     11  C   UNL     1       5.858   3.738  13.910  0.00  0.00    +0.000 C 
ATOM     12  C   UNL     1       6.969   4.654  14.451  0.00  0.00    +0.000 C 
ATOM     13  C   UNL     1       7.813   5.181  13.283  0.00  0.00    +0.000 C 
ENDBRANCH   5  12
ENDBRANCH   1   8
BRANCH   3  14
ATOM     14  C   UNL     1       3.369   4.512  20.065  0.00  0.00    +0.000 C 
ATOM     15  C   UNL     1       2.175   4.699  21.008  0.00  0.00    +0.000 C 
BRANCH  14  16
ATOM     16  C   UNL     1       3.188   3.353  19.116  0.00  0.00    +0.000 A 
ATOM     17  C   UNL     1       2.442   3.336  17.912  0.00  0.00    +0.000 A 
ATOM     18  C   UNL     1       2.637   2.079  17.408  0.00  0.00    +0.000 A 
ATOM     19  O   UNL     1       3.431   1.373  18.248  0.00  0.00    +0.000 OA
ATOM     20  N   UNL     1       3.776   2.165  19.331  0.00  0.00    +0.000 NA
ENDBRANCH  14  16
ENDBRANCH   3  14
TORSDOF 4
ENDMDL
MODEL 3
REMARK VINA RESULT:      -7.4      2.385      6.581
REMARK  Name = 
REMARK  8 active torsions:
REMARK  status: ('A' for Active; 'I' for Inactive)
REMARK    1  A    between atoms: C_1  and  C_2
REMARK    2  A    between atoms: C_2  and  C_3
REMARK    3  A    between atoms: C_2  and  N_4
REMARK    4  A    between atoms: C_7  and  C_8
REMARK    5  A    between atoms: N_10  and  C_11
REMARK    6  A    between atoms: N_10  and  C_12
REMARK    7  A    between atoms: C_12  and  C_13
REMARK    8  A    between atoms: C_12  and  C_14
REMARK                            x       y       z     vdW  Elec       q    Type
REMARK                         _______ _______ _______ _____ _____    ______ ____
ROOT
ATOM      1  C   UNL     1       4.416   5.850  18.464  0.00  0.00    +0.000 C 
ATOM      2  O   UNL     1       4.890   5.373  19.502  0.00  0.00    +0.000 OA
ATOM      3  N   UNL     1       5.207   5.967  17.324  0.00  0.00    +0.000 N 
ATOM      4  C   UNL     1       4.772   6.548  16.056  0.00  0.00    +0.000 C 
ENDROOT
BRANCH   1   8
ATOM      5  N   UNL     1       1.271   4.305  19.758  0.00  0.00    +0.000 NA
ATOM      6  C   UNL     1       2.171   5.169  20.534  0.00  0.00    +0.000 C 
ATOM      7  C   UNL     1       2.414   6.524  19.854  0.00  0.00    +0.000 C 
ATOM      8  C   UNL     1       2.964   6.359  18.439  0.00  0.00    +0.000 C 
ATOM      9  C   UNL     1       2.035   5.431  17.651  0.00  0.00    +0.000 C 
ATOM     10  C   UNL     1       1.728   4.119  18.372  0.00  0.00    +0.000 C 
BRANCH   5  12
ATOM     11  C   UNL     1       1.213   1.759  19.504  0.00  0.00    +0.000 C 
ATOM     12  C   UNL     1       0.995   2.994  20.397  0.00  0.00    +0.000 C 
ATOM     13  C   UNL     1       1.779   2.826  21.704  0.00  0.00    +0.000 C 
ENDBRANCH   5  12
ENDBRANCH   1   8
BRANCH   3  14
ATOM     14  C   UNL     1       6.637   5.591  17.454  0.00  0.00    +0.000 C 
ATOM     15  C   UNL     1       7.219   4.877  16.228  0.00  0.00    +0.000 C 
BRANCH  14  16
ATOM     16  C   UNL     1       7.447   6.795  17.868  0.00  0.00    +0.000 A 
ATOM     17  C   UNL     1       7.461   8.073  17.257  0.00  0.00    +0.000 A 
ATOM     18  C   UNL     1       8.310   8.813  18.034  0.00  0.00    +0.000 A 
ATOM     19  O   UNL     1       8.791   8.041  19.038  0.00  0.00    +0.000 OA
ATOM     20  N   UNL     1       8.259   6.767  18.937  0.00  0.00    +0.000 NA
ENDBRANCH  14  16
ENDBRANCH   3  14
TORSDOF 4
ENDMDL
MODEL 4
REMARK VINA RESULT:      -7.3      1.772      6.145
REMARK  Name = 
REMARK  8 active torsions:
REMARK  status: ('A' for Active; 'I' for Inactive)
REMARK    1  A    between atoms: C_1  and  C_2
REMARK    2  A    between atoms: C_2  and  C_3
REMARK    3  A    between atoms: C_2  and  N_4
REMARK    4  A    between atoms: C_7  and  C_8
REMARK    5  A    between atoms: N_10  and  C_11
REMARK    6  A    between atoms: N_10  and  C_12
REMARK    7  A    between atoms: C_12  and  C_13
REMARK    8  A    between atoms: C_12  and  C_14
REMARK                            x       y       z     vdW  Elec       q    Type
REMARK                         _______ _______ _______ _____ _____    ______ ____
ROOT
ATOM      1  C   UNL     1       4.031   4.480  17.088  0.00  0.00    +0.000 C 
ATOM      2  O   UNL     1       4.317   3.310  17.362  0.00  0.00    +0.000 OA
ATOM      3  N   UNL     1       4.962   5.297  16.452  0.00  0.00    +0.000 N 
ATOM      4  C   UNL     1       4.754   6.704  16.114  0.00  0.00    +0.000 C 
ENDROOT
BRANCH   1   8
ATOM      5  N   UNL     1       2.051   4.084  20.230  0.00  0.00    +0.000 NA
ATOM      6  C   UNL     1       3.065   5.120  19.994  0.00  0.00    +0.000 C 
ATOM      7  C   UNL     1       2.780   5.942  18.729  0.00  0.00    +0.000 C 
ATOM      8  C   UNL     1       2.662   5.057  17.491  0.00  0.00    +0.000 C 
ATOM      9  C   UNL     1       1.626   3.961  17.761  0.00  0.00    +0.000 C 
ATOM     10  C   UNL     1       1.866   3.203  19.067  0.00  0.00    +0.000 C 
BRANCH   5  12
ATOM     11  C   UNL     1       1.056   2.522  21.996  0.00  0.00    +0.000 C 
ATOM     12  C   UNL     1       2.281   3.283  21.459  0.00  0.00    +0.000 C 
ATOM     13  C   UNL     1       3.453   2.310  21.286  0.00  0.00    +0.000 C 
ENDBRANCH   5  12
ENDBRANCH   1   8
BRANCH   3  14
ATOM     14  C   UNL     1       6.312   4.727  16.220  0.00  0.00    +0.000 C 
ATOM     15  C   UNL     1       6.972   5.171  14.909  0.00  0.00    +0.000 C 
BRANCH  14  16
ATOM     16  C   UNL     1       7.186   4.972  17.426  0.00  0.00    +0.000 A 
ATOM     17  C   UNL     1       7.094   6.042  18.350  0.00  0.00    +0.000 A 
ATOM     18  C   UNL     1       8.070   5.779  19.273  0.00  0.00    +0.000 A 
ATOM     19  O   UNL     1       8.719   4.641  18.932  0.00  0.00    +0.000 OA
ATOM     20  N   UNL     1       8.175   4.130  17.766  0.00  0.00    +0.000 NA
ENDBRANCH  14  16
ENDBRANCH   3  14
TORSDOF 4
ENDMDL
MODEL 5
REMARK VINA RESULT:      -7.2      1.260      1.682
REMARK  Name = 
REMARK  8 active torsions:
REMARK  status: ('A' for Active; 'I' for Inactive)
REMARK    1  A    between atoms: C_1  and  C_2
REMARK    2  A    between atoms: C_2  and  C_3
REMARK    3  A    between atoms: C_2  and  N_4
REMARK    4  A    between atoms: C_7  and  C_8
REMARK    5  A    between atoms: N_10  and  C_11
REMARK    6  A    between atoms: N_10  and  C_12
REMARK    7  A    between atoms: C_12  and  C_13
REMARK    8  A    between atoms: C_12  and  C_14
REMARK                            x       y       z     vdW  Elec       q    Type
REMARK                         _______ _______ _______ _____ _____    ______ ____
ROOT
ATOM      1  C   UNL     1       4.728   5.668  18.267  0.00  0.00    +0.000 C 
ATOM      2  O   UNL     1       4.065   6.653  17.923  0.00  0.00    +0.000 OA
ATOM      3  N   UNL     1       4.089   4.525  18.740  0.00  0.00    +0.000 N 
ATOM      4  C   UNL     1       4.765   3.319  19.212  0.00  0.00    +0.000 C 
ENDROOT
BRANCH   1   8
ATOM      5  N   UNL     1       7.085   5.401  15.382  0.00  0.00    +0.000 NA
ATOM      6  C   UNL     1       6.485   6.649  15.872  0.00  0.00    +0.000 C 
ATOM      7  C   UNL     1       6.754   6.883  17.365  0.00  0.00    +0.000 C 
ATOM      8  C   UNL     1       6.266   5.716  18.220  0.00  0.00    +0.000 C 
ATOM      9  C   UNL     1       6.872   4.417  17.679  0.00  0.00    +0.000 C 
ATOM     10  C   UNL     1       6.676   4.232  16.174  0.00  0.00    +0.000 C 
BRANCH   5  12
ATOM     11  C   UNL     1       8.103   5.312  13.036  0.00  0.00    +0.000 C 
ATOM     12  C   UNL     1       6.864   5.153  13.935  0.00  0.00    +0.000 C 
ATOM     13  C   UNL     1       6.225   3.781  13.688  0.00  0.00    +0.000 C 
ENDBRANCH   5  12
ENDBRANCH   1   8
BRANCH   3  14
ATOM     14  C   UNL     1       2.615   4.593  18.897  0.00  0.00    +0.000 C 
ATOM     15  C   UNL     1       1.825   4.121  17.671  0.00  0.00    +0.000 C 
BRANCH  14  16
ATOM     16  C   UNL     1       2.203   3.888  20.166  0.00  0.00    +0.000 A 
ATOM     17  C   UNL     1       1.429   2.707  20.280  0.00  0.00    +0.000 A 
ATOM     18  C   UNL     1       1.382   2.459  21.625  0.00  0.00    +0.000 A 
ATOM     19  O   UNL     1       2.063   3.425  22.286  0.00  0.00    +0.000 OA
ATOM     20  N   UNL     1       2.577   4.334  21.376  0.00  0.00    +0.000 NA
ENDBRANCH  14  16
ENDBRANCH   3  14
TORSDOF 4
ENDMDL
MODEL 6
REMARK VINA RESULT:      -7.0      1.984      6.227
REMARK  Name = 
REMARK  8 active torsions:
REMARK  status: ('A' for Active; 'I' for Inactive)
REMARK    1  A    between atoms: C_1  and  C_2
REMARK    2  A    between atoms: C_2  and  C_3
REMARK    3  A    between atoms: C_2  and  N_4
REMARK    4  A    between atoms: C_7  and  C_8
REMARK    5  A    between atoms: N_10  and  C_11
REMARK    6  A    between atoms: N_10  and  C_12
REMARK    7  A    between atoms: C_12  and  C_13
REMARK    8  A    between atoms: C_12  and  C_14
REMARK                            x       y       z     vdW  Elec       q    Type
REMARK                         _______ _______ _______ _____ _____    ______ ____
ROOT
ATOM      1  C   UNL     1       4.516   4.124  17.167  0.00  0.00    +0.000 C 
ATOM      2  O   UNL     1       4.357   4.936  18.085  0.00  0.00    +0.000 OA
ATOM      3  N   UNL     1       5.507   4.333  16.211  0.00  0.00    +0.000 N 
ATOM      4  C   UNL     1       5.762   3.467  15.062  0.00  0.00    +0.000 C 
ENDROOT
BRANCH   1   8
ATOM      5  N   UNL     1       1.714   2.969  19.350  0.00  0.00    +0.000 NA
ATOM      6  C   UNL     1       1.581   3.906  18.227  0.00  0.00    +0.000 C 
ATOM      7  C   UNL     1       2.129   3.329  16.914  0.00  0.00    +0.000 C 
ATOM      8  C   UNL     1       3.588   2.901  17.046  0.00  0.00    +0.000 C 
ATOM      9  C   UNL     1       3.720   1.951  18.241  0.00  0.00    +0.000 C 
ATOM     10  C   UNL     1       3.095   2.495  19.525  0.00  0.00    +0.000 C 
BRANCH   5  12
ATOM     11  C   UNL     1       1.631   2.737  21.897  0.00  0.00    +0.000 C 
ATOM     12  C   UNL     1       1.173   3.485  20.633  0.00  0.00    +0.000 C 
ATOM     13  C   UNL     1       1.446   4.985  20.798  0.00  0.00    +0.000 C 
ENDBRANCH   5  12
ENDBRANCH   1   8
BRANCH   3  14
ATOM     14  C   UNL     1       6.272   5.601  16.300  0.00  0.00    +0.000 C 
ATOM     15  C   UNL     1       5.416   6.868  16.194  0.00  0.00    +0.000 C 
BRANCH  14  16
ATOM     16  C   UNL     1       7.144   5.587  17.532  0.00  0.00    +0.000 A 
ATOM     17  C   UNL     1       7.437   6.675  18.390  0.00  0.00    +0.000 A 
ATOM     18  C   UNL     1       8.220   6.133  19.373  0.00  0.00    +0.000 A 
ATOM     19  O   UNL     1       8.405   4.814  19.127  0.00  0.00    +0.000 OA
ATOM     20  N   UNL     1       7.738   4.463  17.965  0.00  0.00    +0.000 NA
ENDBRANCH  14  16
ENDBRANCH   3  14
TORSDOF 4
ENDMDL
MODEL 7
REMARK VINA RESULT:      -7.0      1.387      1.531
REMARK  Name = 
REMARK  8 active torsions:
REMARK  status: ('A' for Active; 'I' for Inactive)
REMARK    1  A    between atoms: C_1  and  C_2
REMARK    2  A    between atoms: C_2  and  C_3
REMARK    3  A    between atoms: C_2  and  N_4
REMARK    4  A    between atoms: C_7  and  C_8
REMARK    5  A    between atoms: N_10  and  C_11
REMARK    6  A    between atoms: N_10  and  C_12
REMARK    7  A    between atoms: C_12  and  C_13
REMARK    8  A    between atoms: C_12  and  C_14
REMARK                            x       y       z     vdW  Elec       q    Type
REMARK                         _______ _______ _______ _____ _____    ______ ____
ROOT
ATOM      1  C   UNL     1       4.467   4.312  17.282  0.00  0.00    +0.000 C 
ATOM      2  O   UNL     1       3.765   4.003  16.313  0.00  0.00    +0.000 OA
ATOM      3  N   UNL     1       4.348   3.616  18.482  0.00  0.00    +0.000 N 
ATOM      4  C   UNL     1       5.092   3.914  19.704  0.00  0.00    +0.000 C 
ENDROOT
BRANCH   1   8
ATOM      5  N   UNL     1       6.923   5.227  14.621  0.00  0.00    +0.000 NA
ATOM      6  C   UNL     1       5.514   5.643  14.652  0.00  0.00    +0.000 C 
ATOM      7  C   UNL     1       5.143   6.357  15.959  0.00  0.00    +0.000 C 
ATOM      8  C   UNL     1       5.444   5.497  17.183  0.00  0.00    +0.000 C 
ATOM      9  C   UNL     1       6.906   5.042  17.123  0.00  0.00    +0.000 C 
ATOM     10  C   UNL     1       7.293   4.409  15.786  0.00  0.00    +0.000 C 
BRANCH   5  12
ATOM     11  C   UNL     1       6.246   3.673  12.703  0.00  0.00    +0.000 C 
ATOM     12  C   UNL     1       7.325   4.552  13.361  0.00  0.00    +0.000 C 
ATOM     13  C   UNL     1       7.867   5.553  12.333  0.00  0.00    +0.000 C 
ENDBRANCH   5  12
ENDBRANCH   1   8
BRANCH   3  14
ATOM     14  C   UNL     1       3.288   2.579  18.558  0.00  0.00    +0.000 C 
ATOM     15  C   UNL     1       3.813   1.142  18.649  0.00  0.00    +0.000 C 
BRANCH  14  16
ATOM     16  C   UNL     1       2.319   2.918  19.665  0.00  0.00    +0.000 A 
ATOM     17  C   UNL     1       2.277   2.367  20.969  0.00  0.00    +0.000 A 
ATOM     18  C   UNL     1       1.259   3.038  21.589  0.00  0.00    +0.000 A 
ATOM     19  O   UNL     1       0.709   3.924  20.725  0.00  0.00    +0.000 OA
ATOM     20  N   UNL     1       1.365   3.850  19.508  0.00  0.00    +0.000 NA
ENDBRANCH  14  16
ENDBRANCH   3  14
TORSDOF 4
ENDMDL
MODEL 8
REMARK VINA RESULT:      -7.0      2.037      6.356
REMARK  Name = 
REMARK  8 active torsions:
REMARK  status: ('A' for Active; 'I' for Inactive)
REMARK    1  A    between atoms: C_1  and  C_2
REMARK    2  A    between atoms: C_2  and  C_3
REMARK    3  A    between atoms: C_2  and  N_4
REMARK    4  A    between atoms: C_7  and  C_8
REMARK    5  A    between atoms: N_10  and  C_11
REMARK    6  A    between atoms: N_10  and  C_12
REMARK    7  A    between atoms: C_12  and  C_13
REMARK    8  A    between atoms: C_12  and  C_14
REMARK                            x       y       z     vdW  Elec       q    Type
REMARK                         _______ _______ _______ _____ _____    ______ ____
ROOT
ATOM      1  C   UNL     1       4.423   4.379  17.087  0.00  0.00    +0.000 C 
ATOM      2  O   UNL     1       3.961   5.309  17.757  0.00  0.00    +0.000 OA
ATOM      3  N   UNL     1       5.492   4.602  16.224  0.00  0.00    +0.000 N 
ATOM      4  C   UNL     1       6.096   3.594  15.355  0.00  0.00    +0.000 C 
ENDROOT
BRANCH   1   8
ATOM      5  N   UNL     1       1.875   2.990  19.439  0.00  0.00    +0.000 NA
ATOM      6  C   UNL     1       1.575   3.687  18.181  0.00  0.00    +0.000 C 
ATOM      7  C   UNL     1       2.277   3.047  16.975  0.00  0.00    +0.000 C 
ATOM      8  C   UNL     1       3.789   2.978  17.167  0.00  0.00    +0.000 C 
ATOM      9  C   UNL     1       4.089   2.279  18.497  0.00  0.00    +0.000 C 
ATOM     10  C   UNL     1       3.321   2.866  19.682  0.00  0.00    +0.000 C 
BRANCH   5  12
ATOM     11  C   UNL     1       1.483   2.866  21.965  0.00  0.00    +0.000 C 
ATOM     12  C   UNL     1       1.195   3.568  20.626  0.00  0.00    +0.000 C 
ATOM     13  C   UNL     1       1.479   5.069  20.763  0.00  0.00    +0.000 C 
ENDBRANCH   5  12
ENDBRANCH   1   8
BRANCH   3  14
ATOM     14  C   UNL     1       5.966   6.002  16.085  0.00  0.00    +0.000 C 
ATOM     15  C   UNL     1       4.849   7.032  15.881  0.00  0.00    +0.000 C 
BRANCH  14  16
ATOM     16  C   UNL     1       6.878   6.350  17.235  0.00  0.00    +0.000 A 
ATOM     17  C   UNL     1       7.310   5.494  18.279  0.00  0.00    +0.000 A 
ATOM     18  C   UNL     1       8.153   6.269  19.027  0.00  0.00    +0.000 A 
ATOM     19  O   UNL     1       8.222   7.511  18.491  0.00  0.00    +0.000 OA
ATOM     20  N   UNL     1       7.416   7.573  17.367  0.00  0.00    +0.000 NA
ENDBRANCH  14  16
ENDBRANCH   3  14
TORSDOF 4
ENDMDL
MODEL 9
REMARK VINA RESULT:      -6.9      1.911      6.444
REMARK  Name = 
REMARK  8 active torsions:
REMARK  status: ('A' for Active; 'I' for Inactive)
REMARK    1  A    between atoms: C_1  and  C_2
REMARK    2  A    between atoms: C_2  and  C_3
REMARK    3  A    between atoms: C_2  and  N_4
REMARK    4  A    between atoms: C_7  and  C_8
REMARK    5  A    between atoms: N_10  and  C_11
REMARK    6  A    between atoms: N_10  and  C_12
REMARK    7  A    between atoms: C_12  and  C_13
REMARK    8  A    between atoms: C_12  and  C_14
REMARK                            x       y       z     vdW  Elec       q    Type
REMARK                         _______ _______ _______ _____ _____    ______ ____
ROOT
ATOM      1  C   UNL     1       3.649   4.733  17.241  0.00  0.00    +0.000 C 
ATOM      2  O   UNL     1       4.020   3.555  17.208  0.00  0.00    +0.000 OA
ATOM      3  N   UNL     1       4.524   5.753  16.879  0.00  0.00    +0.000 N 
ATOM      4  C   UNL     1       4.213   7.180  16.915  0.00  0.00    +0.000 C 
ENDROOT
BRANCH   1   8
ATOM      5  N   UNL     1       1.897   3.905  20.434  0.00  0.00    +0.000 NA
ATOM      6  C   UNL     1       2.739   5.088  20.213  0.00  0.00    +0.000 C 
ATOM      7  C   UNL     1       2.279   5.917  19.006  0.00  0.00    +0.000 C 
ATOM      8  C   UNL     1       2.232   5.084  17.728  0.00  0.00    +0.000 C 
ATOM      9  C   UNL     1       1.378   3.837  17.981  0.00  0.00    +0.000 C 
ATOM     10  C   UNL     1       1.786   3.062  19.234  0.00  0.00    +0.000 C 
BRANCH   5  12
ATOM     11  C   UNL     1       1.179   2.247  22.247  0.00  0.00    +0.000 C 
ATOM     12  C   UNL     1       2.297   3.090  21.609  0.00  0.00    +0.000 C 
ATOM     13  C   UNL     1       3.497   2.189  21.287  0.00  0.00    +0.000 C 
ENDBRANCH   5  12
ENDBRANCH   1   8
BRANCH   3  14
ATOM     14  C   UNL     1       5.919   5.361  16.557  0.00  0.00    +0.000 C 
ATOM     15  C   UNL     1       6.235   5.317  15.057  0.00  0.00    +0.000 C 
BRANCH  14  16
ATOM     16  C   UNL     1       6.884   6.224  17.332  0.00  0.00    +0.000 A 
ATOM     17  C   UNL     1       7.421   5.971  18.619  0.00  0.00    +0.000 A 
ATOM     18  C   UNL     1       8.272   7.018  18.845  0.00  0.00    +0.000 A 
ATOM     19  O   UNL     1       8.247   7.858  17.783  0.00  0.00    +0.000 OA
ATOM     20  N   UNL     1       7.370   7.371  16.829  0.00  0.00    +0.000 NA
ENDBRANCH  14  16
ENDBRANCH   3  14
TORSDOF 4
ENDMDL
