MODEL 1
REMARK VINA RESULT:      -9.7      0.000      0.000
REMARK  Name = 
REMARK  5 active torsions:
REMARK  status: ('A' for Active; 'I' for Inactive)
REMARK    1  A    between atoms: C_4  and  C_5
REMARK    2  A    between atoms: C_5  and  C_6
REMARK    3  A    between atoms: C_5  and  C_19
REMARK    4  A    between atoms: C_9  and  C_10
REMARK    5  A    between atoms: C_10  and  N_11
REMARK                            x       y       z     vdW  Elec       q    Type
REMARK                         _______ _______ _______ _____ _____    ______ ____
ROOT
ATOM      1  C   UNL     1       3.121   5.608  17.892  0.00  0.00    +0.000 C 
ENDROOT
BRANCH   1   2
ATOM      2  C   UNL     1       4.659   5.623  17.491  0.00  0.00    +0.000 C 
ATOM      3  C   UNL     1       5.531   5.866  18.769  0.00  0.00    +0.000 C 
ATOM      4  C   UNL     1       7.032   5.879  18.440  0.00  0.00    +0.000 C 
ATOM      5  C   UNL     1       7.440   4.517  17.862  0.00  0.00    +0.000 C 
ATOM      6  C   UNL     1       6.622   4.226  16.596  0.00  0.00    +0.000 C 
ATOM      7  C   UNL     1       6.926   5.316  15.558  0.00  0.00    +0.000 C 
ATOM      8  C   UNL     1       6.526   6.689  16.115  0.00  0.00    +0.000 C 
ATOM      9  C   UNL     1       7.302   6.982  17.407  0.00  0.00    +0.000 C 
ATOM     10  C   UNL     1       5.021   6.686  16.425  0.00  0.00    +0.000 C 
ATOM     11  C   UNL     1       5.112   4.235  16.929  0.00  0.00    +0.000 C 
ENDBRANCH   1   2
BRANCH   1  15
ATOM     12  C   UNL     1       1.591   1.983  19.792  0.00  0.00    +0.000 A 
ATOM     13  C   UNL     1       0.961   2.518  18.677  0.00  0.00    +0.000 A 
ATOM     14  C   UNL     1       1.464   3.680  18.076  0.00  0.00    +0.000 A 
ATOM     15  C   UNL     1       2.609   4.330  18.583  0.00  0.00    +0.000 A 
ATOM     16  C   UNL     1       3.225   3.766  19.708  0.00  0.00    +0.000 A 
ATOM     17  C   UNL     1       2.727   2.602  20.305  0.00  0.00    +0.000 A 
ENDBRANCH   1  15
BRANCH   1  18
ATOM     18  C   UNL     1       2.544   6.899  18.508  0.00  0.00    +0.000 A 
ATOM     19  C   UNL     1       2.175   7.057  19.855  0.00  0.00    +0.000 A 
ATOM     20  C   UNL     1       1.614   8.268  20.329  0.00  0.00    +0.000 A 
ATOM     21  C   UNL     1       1.435   9.367  19.478  0.00  0.00    +0.000 A 
ATOM     22  C   UNL     1       1.789   9.196  18.131  0.00  0.00    +0.000 A 
ATOM     23  C   UNL     1       2.330   7.997  17.658  0.00  0.00    +0.000 A 
BRANCH  21  24
ATOM     24  C   UNL     1       0.755  10.673  19.868  0.00  0.00    +0.000 C 
BRANCH  24  25
ATOM     25  N   UNL     1      -0.689  10.641  20.156  0.00  0.00    +0.000 NA
ATOM     26  C   UNL     1      -1.156  11.731  21.036  0.00  0.00    +0.000 C 
ATOM     27  C   UNL     1      -1.338  13.126  20.388  0.00  0.00    +0.000 C 
ATOM     28  N   UNL     1      -2.056  13.132  19.111  0.00  0.00    +0.000 NA
ATOM     29  C   UNL     1      -1.604  12.068  18.219  0.00  0.00    +0.000 C 
ATOM     30  C   UNL     1      -1.480  10.679  18.903  0.00  0.00    +0.000 C 
ATOM     31  H   UNL     1      -1.944  14.041  18.659  0.00  0.00    +0.000 HD
ENDBRANCH  24  25
ENDBRANCH  21  24
ENDBRANCH   1  18
TORSDOF 5
ENDMDL
MODEL 2
REMARK VINA RESULT:      -9.7      0.185      1.373
REMARK  Name = 
REMARK  5 active torsions:
REMARK  status: ('A' for Active; 'I' for Inactive)
REMARK    1  A    between atoms: C_4  and  C_5
REMARK    2  A    between atoms: C_5  and  C_6
REMARK    3  A    between atoms: C_5  and  C_19
REMARK    4  A    between atoms: C_9  and  C_10
REMARK    5  A    between atoms: C_10  and  N_11
REMARK                            x       y       z     vdW  Elec       q    Type
REMARK                         _______ _______ _______ _____ _____    ______ ____
ROOT
ATOM      1  C   UNL     1       3.171   5.565  17.918  0.00  0.00    +0.000 C 
ENDROOT
BRANCH   1   2
ATOM      2  C   UNL     1       4.719   5.563  17.560  0.00  0.00    +0.000 C 
ATOM      3  C   UNL     1       5.028   6.736  16.569  0.00  0.00    +0.000 C 
ATOM      4  C   UNL     1       6.519   6.788  16.196  0.00  0.00    +0.000 C 
ATOM      5  C   UNL     1       7.354   7.029  17.461  0.00  0.00    +0.000 C 
ATOM      6  C   UNL     1       7.099   5.901  18.472  0.00  0.00    +0.000 C 
ATOM      7  C   UNL     1       7.532   4.571  17.837  0.00  0.00    +0.000 C 
ATOM      8  C   UNL     1       6.710   4.310  16.568  0.00  0.00    +0.000 C 
ATOM      9  C   UNL     1       6.917   5.449  15.560  0.00  0.00    +0.000 C 
ATOM     10  C   UNL     1       5.221   4.236  16.941  0.00  0.00    +0.000 C 
ATOM     11  C   UNL     1       5.596   5.840  18.827  0.00  0.00    +0.000 C 
ENDBRANCH   1   2
BRANCH   1  15
ATOM     12  C   UNL     1       1.554   1.965  19.796  0.00  0.00    +0.000 A 
ATOM     13  C   UNL     1       0.941   2.518  18.679  0.00  0.00    +0.000 A 
ATOM     14  C   UNL     1       1.472   3.672  18.086  0.00  0.00    +0.000 A 
ATOM     15  C   UNL     1       2.628   4.295  18.601  0.00  0.00    +0.000 A 
ATOM     16  C   UNL     1       3.226   3.714  19.727  0.00  0.00    +0.000 A 
ATOM     17  C   UNL     1       2.700   2.558  20.316  0.00  0.00    +0.000 A 
ENDBRANCH   1  15
BRANCH   1  18
ATOM     18  C   UNL     1       2.588   6.864  18.510  0.00  0.00    +0.000 A 
ATOM     19  C   UNL     1       2.199   7.038  19.849  0.00  0.00    +0.000 A 
ATOM     20  C   UNL     1       1.635   8.256  20.300  0.00  0.00    +0.000 A 
ATOM     21  C   UNL     1       1.472   9.346  19.434  0.00  0.00    +0.000 A 
ATOM     22  C   UNL     1       1.846   9.159  18.095  0.00  0.00    +0.000 A 
ATOM     23  C   UNL     1       2.391   7.952  17.644  0.00  0.00    +0.000 A 
BRANCH  21  24
ATOM     24  C   UNL     1       0.790  10.658  19.799  0.00  0.00    +0.000 C 
BRANCH  24  25
ATOM     25  N   UNL     1      -0.632  10.616  20.178  0.00  0.00    +0.000 NA
ATOM     26  C   UNL     1      -1.115  11.833  20.860  0.00  0.00    +0.000 C 
ATOM     27  C   UNL     1      -1.411  13.065  19.969  0.00  0.00    +0.000 C 
ATOM     28  N   UNL     1      -2.195  12.789  18.763  0.00  0.00    +0.000 NA
ATOM     29  C   UNL     1      -1.729  11.595  18.065  0.00  0.00    +0.000 C 
ATOM     30  C   UNL     1      -1.489  10.372  18.993  0.00  0.00    +0.000 C 
ATOM     31  H   UNL     1      -2.160  13.597  18.139  0.00  0.00    +0.000 HD
ENDBRANCH  24  25
ENDBRANCH  21  24
ENDBRANCH   1  18
TORSDOF 5
ENDMDL
MODEL 3
REMARK VINA RESULT:      -9.7      0.250      1.690
REMARK  Name = 
REMARK  5 active torsions:
REMARK  status: ('A' for Active; 'I' for Inactive)
REMARK    1  A    between atoms: C_4  and  C_5
REMARK    2  A    between atoms: C_5  and  C_6
REMARK    3  A    between atoms: C_5  and  C_19
REMARK    4  A    between atoms: C_9  and  C_10
REMARK    5  A    between atoms: C_10  and  N_11
REMARK                            x       y       z     vdW  Elec       q    Type
REMARK                         _______ _______ _______ _____ _____    ______ ____
ROOT
ATOM      1  C   UNL     1       3.203   5.644  17.927  0.00  0.00    +0.000 C 
ENDROOT
BRANCH   1   2
ATOM      2  C   UNL     1       4.775   5.677  17.694  0.00  0.00    +0.000 C 
ATOM      3  C   UNL     1       5.213   4.401  16.899  0.00  0.00    +0.000 C 
ATOM      4  C   UNL     1       6.728   4.386  16.637  0.00  0.00    +0.000 C 
ATOM      5  C   UNL     1       7.111   5.606  15.787  0.00  0.00    +0.000 C 
ATOM      6  C   UNL     1       6.712   6.894  16.521  0.00  0.00    +0.000 C 
ATOM      7  C   UNL     1       7.480   6.954  17.850  0.00  0.00    +0.000 C 
ATOM      8  C   UNL     1       7.113   5.742  18.718  0.00  0.00    +0.000 C 
ATOM      9  C   UNL     1       7.464   4.441  17.982  0.00  0.00    +0.000 C 
ATOM     10  C   UNL     1       5.602   5.765  19.000  0.00  0.00    +0.000 C 
ATOM     11  C   UNL     1       5.191   6.893  16.802  0.00  0.00    +0.000 C 
ENDBRANCH   1   2
BRANCH   1  15
ATOM     12  C   UNL     1       1.544   2.096  19.865  0.00  0.00    +0.000 A 
ATOM     13  C   UNL     1       0.951   2.623  18.726  0.00  0.00    +0.000 A 
ATOM     14  C   UNL     1       1.496   3.760  18.113  0.00  0.00    +0.000 A 
ATOM     15  C   UNL     1       2.645   4.392  18.631  0.00  0.00    +0.000 A 
ATOM     16  C   UNL     1       3.223   3.837  19.781  0.00  0.00    +0.000 A 
ATOM     17  C   UNL     1       2.684   2.698  20.390  0.00  0.00    +0.000 A 
ENDBRANCH   1  15
BRANCH   1  18
ATOM     18  C   UNL     1       2.535   6.950  18.400  0.00  0.00    +0.000 A 
ATOM     19  C   UNL     1       2.262   8.060  17.581  0.00  0.00    +0.000 A 
ATOM     20  C   UNL     1       1.679   9.239  18.109  0.00  0.00    +0.000 A 
ATOM     21  C   UNL     1       1.325   9.331  19.461  0.00  0.00    +0.000 A 
ATOM     22  C   UNL     1       1.617   8.227  20.275  0.00  0.00    +0.000 A 
ATOM     23  C   UNL     1       2.204   7.067  19.760  0.00  0.00    +0.000 A 
BRANCH  21  24
ATOM     24  C   UNL     1       0.785  10.585  20.140  0.00  0.00    +0.000 C 
BRANCH  24  25
ATOM     25  N   UNL     1      -0.670  10.694  20.331  0.00  0.00    +0.000 NA
ATOM     26  C   UNL     1      -1.087  11.831  21.176  0.00  0.00    +0.000 C 
ATOM     27  C   UNL     1      -1.090  13.232  20.515  0.00  0.00    +0.000 C 
ATOM     28  N   UNL     1      -1.719  13.296  19.193  0.00  0.00    +0.000 NA
ATOM     29  C   UNL     1      -1.313  12.188  18.335  0.00  0.00    +0.000 C 
ATOM     30  C   UNL     1      -1.369  10.799  19.028  0.00  0.00    +0.000 C 
ATOM     31  H   UNL     1      -1.489  14.188  18.748  0.00  0.00    +0.000 HD
ENDBRANCH  24  25
ENDBRANCH  21  24
ENDBRANCH   1  18
TORSDOF 5
ENDMDL
MODEL 4
REMARK VINA RESULT:      -9.7      0.688      1.730
REMARK  Name = 
REMARK  5 active torsions:
REMARK  status: ('A' for Active; 'I' for Inactive)
REMARK    1  A    between atoms: C_4  and  C_5
REMARK    2  A    between atoms: C_5  and  C_6
REMARK    3  A    between atoms: C_5  and  C_19
REMARK    4  A    between atoms: C_9  and  C_10
REMARK    5  A    between atoms: C_10  and  N_11
REMARK                            x       y       z     vdW  Elec       q    Type
REMARK                         _______ _______ _______ _____ _____    ______ ____
ROOT
ATOM      1  C   UNL     1       3.108   5.701  18.023  0.00  0.00    +0.000 C 
ENDROOT
BRANCH   1   2
ATOM      2  C   UNL     1       4.673   5.716  17.748  0.00  0.00    +0.000 C 
ATOM      3  C   UNL     1       5.068   4.459  16.902  0.00  0.00    +0.000 C 
ATOM      4  C   UNL     1       6.575   4.428  16.597  0.00  0.00    +0.000 C 
ATOM      5  C   UNL     1       6.955   5.668  15.775  0.00  0.00    +0.000 C 
ATOM      6  C   UNL     1       6.598   6.938  16.560  0.00  0.00    +0.000 C 
ATOM      7  C   UNL     1       7.403   6.945  17.868  0.00  0.00    +0.000 C 
ATOM      8  C   UNL     1       7.039   5.712  18.707  0.00  0.00    +0.000 C 
ATOM      9  C   UNL     1       7.348   4.429  17.922  0.00  0.00    +0.000 C 
ATOM     10  C   UNL     1       5.538   5.751  19.032  0.00  0.00    +0.000 C 
ATOM     11  C   UNL     1       5.086   6.953  16.882  0.00  0.00    +0.000 C 
ENDBRANCH   1   2
BRANCH   1  15
ATOM     12  C   UNL     1       1.442   2.102  19.858  0.00  0.00    +0.000 A 
ATOM     13  C   UNL     1       0.888   2.627  18.698  0.00  0.00    +0.000 A 
ATOM     14  C   UNL     1       1.434   3.781  18.119  0.00  0.00    +0.000 A 
ATOM     15  C   UNL     1       2.546   4.431  18.692  0.00  0.00    +0.000 A 
ATOM     16  C   UNL     1       3.086   3.878  19.861  0.00  0.00    +0.000 A 
ATOM     17  C   UNL     1       2.545   2.722  20.436  0.00  0.00    +0.000 A 
ENDBRANCH   1  15
BRANCH   1  18
ATOM     18  C   UNL     1       2.478   6.998  18.566  0.00  0.00    +0.000 A 
ATOM     19  C   UNL     1       2.165   7.242  19.915  0.00  0.00    +0.000 A 
ATOM     20  C   UNL     1       1.549   8.450  20.322  0.00  0.00    +0.000 A 
ATOM     21  C   UNL     1       1.258   9.463  19.399  0.00  0.00    +0.000 A 
ATOM     22  C   UNL     1       1.556   9.207  18.053  0.00  0.00    +0.000 A 
ATOM     23  C   UNL     1       2.152   8.009  17.647  0.00  0.00    +0.000 A 
BRANCH  21  24
ATOM     24  C   UNL     1       0.512  10.753  19.723  0.00  0.00    +0.000 C 
BRANCH  24  25
ATOM     25  N   UNL     1      -0.179  11.446  18.623  0.00  0.00    +0.000 NA
ATOM     26  C   UNL     1      -1.650  11.315  18.654  0.00  0.00    +0.000 C 
ATOM     27  C   UNL     1      -2.413  12.205  19.667  0.00  0.00    +0.000 C 
ATOM     28  N   UNL     1      -2.007  13.612  19.689  0.00  0.00    +0.000 NA
ATOM     29  C   UNL     1      -0.555  13.767  19.671  0.00  0.00    +0.000 C 
ATOM     30  C   UNL     1       0.161  12.889  18.609  0.00  0.00    +0.000 C 
ATOM     31  H   UNL     1      -2.398  14.068  20.516  0.00  0.00    +0.000 HD
ENDBRANCH  24  25
ENDBRANCH  21  24
ENDBRANCH   1  18
TORSDOF 5
ENDMDL
MODEL 5
REMARK VINA RESULT:      -9.6      0.686      1.666
REMARK  Name = 
REMARK  5 active torsions:
REMARK  status: ('A' for Active; 'I' for Inactive)
REMARK    1  A    between atoms: C_4  and  C_5
REMARK    2  A    between atoms: C_5  and  C_6
REMARK    3  A    between atoms: C_5  and  C_19
REMARK    4  A    between atoms: C_9  and  C_10
REMARK    5  A    between atoms: C_10  and  N_11
REMARK                            x       y       z     vdW  Elec       q    Type
REMARK                         _______ _______ _______ _____ _____    ______ ____
ROOT
ATOM      1  C   UNL     1       3.020   5.620  18.002  0.00  0.00    +0.000 C 
ENDROOT
BRANCH   1   2
ATOM      2  C   UNL     1       4.568   5.591  17.641  0.00  0.00    +0.000 C 
ATOM      3  C   UNL     1       4.897   6.766  16.658  0.00  0.00    +0.000 C 
ATOM      4  C   UNL     1       6.387   6.791  16.282  0.00  0.00    +0.000 C 
ATOM      5  C   UNL     1       7.230   7.006  17.547  0.00  0.00    +0.000 C 
ATOM      6  C   UNL     1       6.955   5.876  18.549  0.00  0.00    +0.000 C 
ATOM      7  C   UNL     1       7.361   4.543  17.903  0.00  0.00    +0.000 C 
ATOM      8  C   UNL     1       6.531   4.307  16.634  0.00  0.00    +0.000 C 
ATOM      9  C   UNL     1       6.757   5.450  15.634  0.00  0.00    +0.000 C 
ATOM     10  C   UNL     1       5.042   4.259  17.010  0.00  0.00    +0.000 C 
ATOM     11  C   UNL     1       5.452   5.841  18.907  0.00  0.00    +0.000 C 
ENDBRANCH   1   2
BRANCH   1  15
ATOM     12  C   UNL     1       1.387   2.102  20.015  0.00  0.00    +0.000 A 
ATOM     13  C   UNL     1       0.889   2.509  18.784  0.00  0.00    +0.000 A 
ATOM     14  C   UNL     1       1.424   3.638  18.149  0.00  0.00    +0.000 A 
ATOM     15  C   UNL     1       2.469   4.382  18.736  0.00  0.00    +0.000 A 
ATOM     16  C   UNL     1       2.952   3.947  19.977  0.00  0.00    +0.000 A 
ATOM     17  C   UNL     1       2.423   2.817  20.609  0.00  0.00    +0.000 A 
ENDBRANCH   1  15
BRANCH   1  18
ATOM     18  C   UNL     1       2.450   6.946  18.544  0.00  0.00    +0.000 A 
ATOM     19  C   UNL     1       2.165   7.211  19.895  0.00  0.00    +0.000 A 
ATOM     20  C   UNL     1       1.604   8.447  20.301  0.00  0.00    +0.000 A 
ATOM     21  C   UNL     1       1.342   9.465  19.374  0.00  0.00    +0.000 A 
ATOM     22  C   UNL     1       1.613   9.187  18.027  0.00  0.00    +0.000 A 
ATOM     23  C   UNL     1       2.154   7.963  17.621  0.00  0.00    +0.000 A 
BRANCH  21  24
ATOM     24  C   UNL     1       0.654  10.785  19.698  0.00  0.00    +0.000 C 
BRANCH  24  25
ATOM     25  N   UNL     1      -0.053  11.481  18.610  0.00  0.00    +0.000 NA
ATOM     26  C   UNL     1      -1.520  11.324  18.642  0.00  0.00    +0.000 C 
ATOM     27  C   UNL     1      -2.296  12.186  19.670  0.00  0.00    +0.000 C 
ATOM     28  N   UNL     1      -1.915  13.600  19.710  0.00  0.00    +0.000 NA
ATOM     29  C   UNL     1      -0.467  13.781  19.690  0.00  0.00    +0.000 C 
ATOM     30  C   UNL     1       0.262  12.930  18.615  0.00  0.00    +0.000 C 
ATOM     31  H   UNL     1      -2.312  14.037  20.544  0.00  0.00    +0.000 HD
ENDBRANCH  24  25
ENDBRANCH  21  24
ENDBRANCH   1  18
TORSDOF 5
ENDMDL
MODEL 6
REMARK VINA RESULT:      -9.6      0.107      1.637
REMARK  Name = 
REMARK  5 active torsions:
REMARK  status: ('A' for Active; 'I' for Inactive)
REMARK    1  A    between atoms: C_4  and  C_5
REMARK    2  A    between atoms: C_5  and  C_6
REMARK    3  A    between atoms: C_5  and  C_19
REMARK    4  A    between atoms: C_9  and  C_10
REMARK    5  A    between atoms: C_10  and  N_11
REMARK                            x       y       z     vdW  Elec       q    Type
REMARK                         _______ _______ _______ _____ _____    ______ ____
ROOT
ATOM      1  C   UNL     1       3.079   5.654  17.960  0.00  0.00    +0.000 C 
ENDROOT
BRANCH   1   2
ATOM      2  C   UNL     1       4.630   5.650  17.612  0.00  0.00    +0.000 C 
ATOM      3  C   UNL     1       5.018   4.276  16.970  0.00  0.00    +0.000 C 
ATOM      4  C   UNL     1       6.510   4.220  16.604  0.00  0.00    +0.000 C 
ATOM      5  C   UNL     1       6.823   5.310  15.569  0.00  0.00    +0.000 C 
ATOM      6  C   UNL     1       6.469   6.688  16.147  0.00  0.00    +0.000 C 
ATOM      7  C   UNL     1       7.331   6.928  17.396  0.00  0.00    +0.000 C 
ATOM      8  C   UNL     1       7.035   5.848  18.446  0.00  0.00    +0.000 C 
ATOM      9  C   UNL     1       7.341   4.456  17.872  0.00  0.00    +0.000 C 
ATOM     10  C   UNL     1       5.549   5.915  18.830  0.00  0.00    +0.000 C 
ATOM     11  C   UNL     1       4.973   6.731  16.534  0.00  0.00    +0.000 C 
ENDBRANCH   1   2
BRANCH   1  15
ATOM     12  C   UNL     1       1.573   2.020  19.863  0.00  0.00    +0.000 A 
ATOM     13  C   UNL     1       2.624   2.731  20.426  0.00  0.00    +0.000 A 
ATOM     14  C   UNL     1       3.096   3.897  19.806  0.00  0.00    +0.000 A 
ATOM     15  C   UNL     1       2.523   4.372  18.608  0.00  0.00    +0.000 A 
ATOM     16  C   UNL     1       1.462   3.635  18.064  0.00  0.00    +0.000 A 
ATOM     17  C   UNL     1       0.987   2.475  18.685  0.00  0.00    +0.000 A 
ENDBRANCH   1  15
BRANCH   1  18
ATOM     18  C   UNL     1       2.502   6.943  18.580  0.00  0.00    +0.000 A 
ATOM     19  C   UNL     1       2.153   7.103  19.932  0.00  0.00    +0.000 A 
ATOM     20  C   UNL     1       1.591   8.312  20.410  0.00  0.00    +0.000 A 
ATOM     21  C   UNL     1       1.390   9.406  19.557  0.00  0.00    +0.000 A 
ATOM     22  C   UNL     1       1.724   9.233  18.206  0.00  0.00    +0.000 A 
ATOM     23  C   UNL     1       2.267   8.036  17.730  0.00  0.00    +0.000 A 
BRANCH  21  24
ATOM     24  C   UNL     1       0.706  10.709  19.954  0.00  0.00    +0.000 C 
BRANCH  24  25
ATOM     25  N   UNL     1      -0.742  10.676  20.219  0.00  0.00    +0.000 NA
ATOM     26  C   UNL     1      -1.220  11.752  21.109  0.00  0.00    +0.000 C 
ATOM     27  C   UNL     1      -1.388  13.159  20.482  0.00  0.00    +0.000 C 
ATOM     28  N   UNL     1      -2.087  13.187  19.195  0.00  0.00    +0.000 NA
ATOM     29  C   UNL     1      -1.624  12.138  18.292  0.00  0.00    +0.000 C 
ATOM     30  C   UNL     1      -1.513  10.737  18.955  0.00  0.00    +0.000 C 
ATOM     31  H   UNL     1      -1.965  14.105  18.760  0.00  0.00    +0.000 HD
ENDBRANCH  24  25
ENDBRANCH  21  24
ENDBRANCH   1  18
TORSDOF 5
ENDMDL
MODEL 7
REMARK VINA RESULT:      -9.6      1.148      4.488
REMARK  Name = 
REMARK  5 active torsions:
REMARK  status: ('A' for Active; 'I' for Inactive)
REMARK    1  A    between atoms: C_4  and  C_5
REMARK    2  A    between atoms: C_5  and  C_6
REMARK    3  A    between atoms: C_5  and  C_19
REMARK    4  A    between atoms: C_9  and  C_10
REMARK    5  A    between atoms: C_10  and  N_11
REMARK                            x       y       z     vdW  Elec       q    Type
REMARK                         _______ _______ _______ _____ _____    ______ ____
ROOT
ATOM      1  C   UNL     1       3.696   6.078  19.081  0.00  0.00    +0.000 C 
ENDROOT
BRANCH   1   2
ATOM      2  C   UNL     1       2.990   4.722  19.515  0.00  0.00    +0.000 C 
ATOM      3  C   UNL     1       1.895   4.342  18.461  0.00  0.00    +0.000 C 
ATOM      4  C   UNL     1       1.185   3.029  18.827  0.00  0.00    +0.000 C 
ATOM      5  C   UNL     1       2.208   1.885  18.855  0.00  0.00    +0.000 C 
ATOM      6  C   UNL     1       3.307   2.198  19.880  0.00  0.00    +0.000 C 
ATOM      7  C   UNL     1       2.658   2.316  21.268  0.00  0.00    +0.000 C 
ATOM      8  C   UNL     1       1.629   3.455  21.264  0.00  0.00    +0.000 C 
ATOM      9  C   UNL     1       0.543   3.183  20.213  0.00  0.00    +0.000 C 
ATOM     10  C   UNL     1       2.340   4.773  20.919  0.00  0.00    +0.000 C 
ATOM     11  C   UNL     1       4.003   3.530  19.519  0.00  0.00    +0.000 C 
ENDBRANCH   1   2
BRANCH   1  15
ATOM     12  C   UNL     1       6.884   5.779  16.107  0.00  0.00    +0.000 A 
ATOM     13  C   UNL     1       7.169   6.137  17.418  0.00  0.00    +0.000 A 
ATOM     14  C   UNL     1       6.136   6.226  18.362  0.00  0.00    +0.000 A 
ATOM     15  C   UNL     1       4.797   5.961  18.010  0.00  0.00    +0.000 A 
ATOM     16  C   UNL     1       4.539   5.601  16.680  0.00  0.00    +0.000 A 
ATOM     17  C   UNL     1       5.570   5.505  15.739  0.00  0.00    +0.000 A 
ENDBRANCH   1  15
BRANCH   1  18
ATOM     18  C   UNL     1       2.789   7.309  18.881  0.00  0.00    +0.000 A 
ATOM     19  C   UNL     1       2.712   8.074  17.703  0.00  0.00    +0.000 A 
ATOM     20  C   UNL     1       1.879   9.216  17.619  0.00  0.00    +0.000 A 
ATOM     21  C   UNL     1       1.076   9.609  18.698  0.00  0.00    +0.000 A 
ATOM     22  C   UNL     1       1.171   8.853  19.875  0.00  0.00    +0.000 A 
ATOM     23  C   UNL     1       2.003   7.733  19.965  0.00  0.00    +0.000 A 
BRANCH  21  24
ATOM     24  C   UNL     1       0.223  10.872  18.738  0.00  0.00    +0.000 C 
BRANCH  24  25
ATOM     25  N   UNL     1       0.328  11.739  19.923  0.00  0.00    +0.000 NA
ATOM     26  C   UNL     1       0.811  13.104  19.635  0.00  0.00    +0.000 C 
ATOM     27  C   UNL     1      -0.212  14.096  19.026  0.00  0.00    +0.000 C 
ATOM     28  N   UNL     1      -1.520  14.125  19.685  0.00  0.00    +0.000 NA
ATOM     29  C   UNL     1      -2.023  12.786  19.971  0.00  0.00    +0.000 C 
ATOM     30  C   UNL     1      -0.975  11.841  20.621  0.00  0.00    +0.000 C 
ATOM     31  H   UNL     1      -2.186  14.634  19.101  0.00  0.00    +0.000 HD
ENDBRANCH  24  25
ENDBRANCH  21  24
ENDBRANCH   1  18
TORSDOF 5
ENDMDL
MODEL 8
REMARK VINA RESULT:      -9.6      1.231      4.497
REMARK  Name = 
REMARK  5 active torsions:
REMARK  status: ('A' for Active; 'I' for Inactive)
REMARK    1  A    between atoms: C_4  and  C_5
REMARK    2  A    between atoms: C_5  and  C_6
REMARK    3  A    between atoms: C_5  and  C_19
REMARK    4  A    between atoms: C_9  and  C_10
REMARK    5  A    between atoms: C_10  and  N_11
REMARK                            x       y       z     vdW  Elec       q    Type
REMARK                         _______ _______ _______ _____ _____    ______ ____
ROOT
ATOM      1  C   UNL     1       3.670   6.080  19.040  0.00  0.00    +0.000 C 
ENDROOT
BRANCH   1   2
ATOM      2  C   UNL     1       2.947   4.723  19.443  0.00  0.00    +0.000 C 
ATOM      3  C   UNL     1       4.002   3.567  19.505  0.00  0.00    +0.000 C 
ATOM      4  C   UNL     1       3.356   2.229  19.901  0.00  0.00    +0.000 C 
ATOM      5  C   UNL     1       2.736   2.355  21.299  0.00  0.00    +0.000 C 
ATOM      6  C   UNL     1       1.683   3.472  21.299  0.00  0.00    +0.000 C 
ATOM      7  C   UNL     1       0.579   3.100  20.297  0.00  0.00    +0.000 C 
ATOM      8  C   UNL     1       1.177   2.968  18.890  0.00  0.00    +0.000 C 
ATOM      9  C   UNL     1       2.265   1.884  18.878  0.00  0.00    +0.000 C 
ATOM     10  C   UNL     1       1.804   4.311  18.483  0.00  0.00    +0.000 C 
ATOM     11  C   UNL     1       2.332   4.811  20.879  0.00  0.00    +0.000 C 
ENDBRANCH   1   2
BRANCH   1  15
ATOM     12  C   UNL     1       6.858   5.815  16.064  0.00  0.00    +0.000 A 
ATOM     13  C   UNL     1       7.138   6.192  17.370  0.00  0.00    +0.000 A 
ATOM     14  C   UNL     1       6.106   6.271  18.315  0.00  0.00    +0.000 A 
ATOM     15  C   UNL     1       4.772   5.973  17.969  0.00  0.00    +0.000 A 
ATOM     16  C   UNL     1       4.519   5.593  16.644  0.00  0.00    +0.000 A 
ATOM     17  C   UNL     1       5.550   5.509  15.701  0.00  0.00    +0.000 A 
ENDBRANCH   1  15
BRANCH   1  18
ATOM     18  C   UNL     1       2.779   7.326  18.867  0.00  0.00    +0.000 A 
ATOM     19  C   UNL     1       2.723   8.126  17.712  0.00  0.00    +0.000 A 
ATOM     20  C   UNL     1       1.903   9.279  17.653  0.00  0.00    +0.000 A 
ATOM     21  C   UNL     1       1.091   9.648  18.734  0.00  0.00    +0.000 A 
ATOM     22  C   UNL     1       1.165   8.856  19.889  0.00  0.00    +0.000 A 
ATOM     23  C   UNL     1       1.983   7.725  19.954  0.00  0.00    +0.000 A 
BRANCH  21  24
ATOM     24  C   UNL     1       0.251  10.918  18.802  0.00  0.00    +0.000 C 
BRANCH  24  25
ATOM     25  N   UNL     1       0.691  11.989  19.712  0.00  0.00    +0.000 NA
ATOM     26  C   UNL     1       1.015  13.262  19.039  0.00  0.00    +0.000 C 
ATOM     27  C   UNL     1      -0.177  14.150  18.604  0.00  0.00    +0.000 C 
ATOM     28  N   UNL     1      -1.217  14.339  19.620  0.00  0.00    +0.000 NA
ATOM     29  C   UNL     1      -1.563  13.090  20.292  0.00  0.00    +0.000 C 
ATOM     30  C   UNL     1      -0.335  12.256  20.749  0.00  0.00    +0.000 C 
ATOM     31  H   UNL     1      -2.048  14.747  19.187  0.00  0.00    +0.000 HD
ENDBRANCH  24  25
ENDBRANCH  21  24
ENDBRANCH   1  18
TORSDOF 5
ENDMDL
MODEL 9
REMARK VINA RESULT:      -9.6      1.216      4.482
REMARK  Name = 
REMARK  5 active torsions:
REMARK  status: ('A' for Active; 'I' for Inactive)
REMARK    1  A    between atoms: C_4  and  C_5
REMARK    2  A    between atoms: C_5  and  C_6
REMARK    3  A    between atoms: C_5  and  C_19
REMARK    4  A    between atoms: C_9  and  C_10
REMARK    5  A    between atoms: C_10  and  N_11
REMARK                            x       y       z     vdW  Elec       q    Type
REMARK                         _______ _______ _______ _____ _____    ______ ____
ROOT
ATOM      1  C   UNL     1       3.747   6.029  19.022  0.00  0.00    +0.000 C 
ENDROOT
BRANCH   1   2
ATOM      2  C   UNL     1       3.043   4.661  19.421  0.00  0.00    +0.000 C 
ATOM      3  C   UNL     1       2.368   4.810  20.827  0.00  0.00    +0.000 C 
ATOM      4  C   UNL     1       1.662   3.515  21.260  0.00  0.00    +0.000 C 
ATOM      5  C   UNL     1       0.552   3.178  20.255  0.00  0.00    +0.000 C 
ATOM      6  C   UNL     1       1.156   3.010  18.853  0.00  0.00    +0.000 C 
ATOM      7  C   UNL     1       2.160   1.848  18.892  0.00  0.00    +0.000 C 
ATOM      8  C   UNL     1       3.281   2.162  19.893  0.00  0.00    +0.000 C 
ATOM      9  C   UNL     1       2.692   2.378  21.294  0.00  0.00    +0.000 C 
ATOM     10  C   UNL     1       4.002   3.445  19.451  0.00  0.00    +0.000 C 
ATOM     11  C   UNL     1       1.884   4.308  18.432  0.00  0.00    +0.000 C 
ENDBRANCH   1   2
BRANCH   1  15
ATOM     12  C   UNL     1       6.915   5.820  16.020  0.00  0.00    +0.000 A 
ATOM     13  C   UNL     1       7.202   6.188  17.328  0.00  0.00    +0.000 A 
ATOM     14  C   UNL     1       6.175   6.248  18.281  0.00  0.00    +0.000 A 
ATOM     15  C   UNL     1       4.841   5.942  17.941  0.00  0.00    +0.000 A 
ATOM     16  C   UNL     1       4.583   5.572  16.615  0.00  0.00    +0.000 A 
ATOM     17  C   UNL     1       5.607   5.506  15.664  0.00  0.00    +0.000 A 
ENDBRANCH   1  15
BRANCH   1  18
ATOM     18  C   UNL     1       2.839   7.264  18.863  0.00  0.00    +0.000 A 
ATOM     19  C   UNL     1       2.765   8.071  17.713  0.00  0.00    +0.000 A 
ATOM     20  C   UNL     1       1.930   9.214  17.667  0.00  0.00    +0.000 A 
ATOM     21  C   UNL     1       1.121   9.566  18.756  0.00  0.00    +0.000 A 
ATOM     22  C   UNL     1       1.213   8.768  19.905  0.00  0.00    +0.000 A 
ATOM     23  C   UNL     1       2.046   7.647  19.958  0.00  0.00    +0.000 A 
BRANCH  21  24
ATOM     24  C   UNL     1       0.266  10.825  18.838  0.00  0.00    +0.000 C 
BRANCH  24  25
ATOM     25  N   UNL     1       0.734  11.923  19.700  0.00  0.00    +0.000 NA
ATOM     26  C   UNL     1       1.021  13.180  18.981  0.00  0.00    +0.000 C 
ATOM     27  C   UNL     1      -0.196  14.047  18.572  0.00  0.00    +0.000 C 
ATOM     28  N   UNL     1      -1.194  14.256  19.624  0.00  0.00    +0.000 NA
ATOM     29  C   UNL     1      -1.503  13.024  20.344  0.00  0.00    +0.000 C 
ATOM     30  C   UNL     1      -0.250  12.211  20.771  0.00  0.00    +0.000 C 
ATOM     31  H   UNL     1      -2.046  14.647  19.215  0.00  0.00    +0.000 HD
ENDBRANCH  24  25
ENDBRANCH  21  24
ENDBRANCH   1  18
TORSDOF 5
ENDMDL
