MODEL 1
REMARK VINA RESULT:      -8.1      0.000      0.000
REMARK  Name = 
REMARK  8 active torsions:
REMARK  status: ('A' for Active; 'I' for Inactive)
REMARK    1  A    between atoms: C_1  and  C_2
REMARK    2  A    between atoms: C_2  and  N_3
REMARK    3  A    between atoms: C_2  and  C_4
REMARK    4  A    between atoms: N_6  and  C_7
REMARK    5  A    between atoms: C_10  and  C_11
REMARK    6  A    between atoms: C_11  and  O_13
REMARK    7  A    between atoms: C_21  and  C_22
REMARK    8  A    between atoms: C_21  and  C_23
REMARK                            x       y       z     vdW  Elec       q    Type
REMARK                         _______ _______ _______ _____ _____    ______ ____
ROOT
ATOM      1  C   UNL     1       4.651   6.328  17.253  0.00  0.00    +0.000 A 
ATOM      2  N   UNL     1       4.081   7.399  17.862  0.00  0.00    +0.000 NA
ATOM      3  N   UNL     1       2.910   7.027  18.371  0.00  0.00    +0.000 N 
ATOM      4  C   UNL     1       2.730   5.709  18.117  0.00  0.00    +0.000 A 
ATOM      5  C   UNL     1       3.799   5.234  17.399  0.00  0.00    +0.000 A 
ATOM      6  C   UNL     1       3.880   3.802  17.016  0.00  0.00    +0.000 C 
ATOM      7  O   UNL     1       4.876   3.313  16.513  0.00  0.00    +0.000 OA
ATOM      8  C   UNL     1       2.700   2.922  17.365  0.00  0.00    +0.000 C 
ATOM      9  C   UNL     1       2.109   3.333  18.741  0.00  0.00    +0.000 C 
ATOM     10  C   UNL     1       0.887   2.462  19.079  0.00  0.00    +0.000 C 
ATOM     11  C   UNL     1       3.161   3.160  19.868  0.00  0.00    +0.000 C 
ATOM     12  C   UNL     1       1.644   4.810  18.648  0.00  0.00    +0.000 C 
ENDROOT
BRANCH   3  13
ATOM     13  C   UNL     1       2.048   7.874  19.168  0.00  0.00    +0.000 A 
ATOM     14  C   UNL     1       1.799   7.600  20.527  0.00  0.00    +0.000 A 
ATOM     15  C   UNL     1       1.065   8.477  21.318  0.00  0.00    +0.000 A 
ATOM     16  C   UNL     1       0.546   9.665  20.784  0.00  0.00    +0.000 A 
ATOM     17  C   UNL     1       0.743   9.921  19.410  0.00  0.00    +0.000 A 
ATOM     18  C   UNL     1       1.477   9.029  18.611  0.00  0.00    +0.000 A 
BRANCH  16  19
ATOM     19  C   UNL     1      -0.174  10.612  21.690  0.00  0.00    +0.000 C 
ATOM     20  O   UNL     1      -0.918  11.455  21.209  0.00  0.00    +0.000 OA
BRANCH  19  21
ATOM     21  O   UNL     1      -0.071  10.554  23.036  0.00  0.00    +0.000 OA
ATOM     22  H   UNL     1       0.379  11.215  23.573  0.00  0.00    +0.000 HD
ENDBRANCH  19  21
ENDBRANCH  16  19
ENDBRANCH   3  13
BRANCH   1  24
ATOM     23  C   UNL     1       7.076   5.697  17.478  0.00  0.00    +0.000 C 
ATOM     24  C   UNL     1       6.015   6.392  16.608  0.00  0.00    +0.000 C 
BRANCH  24  25
ATOM     25  N   UNL     1       5.986   5.850  15.248  0.00  0.00    +0.000 NA
ATOM     26  H   UNL     1       6.681   6.329  14.637  0.00  0.00    +0.000 HD
ATOM     27  H   UNL     1       5.037   6.007  14.836  0.00  0.00    +0.000 HD
ENDBRANCH  24  25
ENDBRANCH   1  24
TORSDOF 5
ENDMDL
MODEL 2
REMARK VINA RESULT:      -8.1      1.032      1.073
REMARK  Name = 
REMARK  8 active torsions:
REMARK  status: ('A' for Active; 'I' for Inactive)
REMARK    1  A    between atoms: C_1  and  C_2
REMARK    2  A    between atoms: C_2  and  N_3
REMARK    3  A    between atoms: C_2  and  C_4
REMARK    4  A    between atoms: N_6  and  C_7
REMARK    5  A    between atoms: C_10  and  C_11
REMARK    6  A    between atoms: C_11  and  O_13
REMARK    7  A    between atoms: C_21  and  C_22
REMARK    8  A    between atoms: C_21  and  C_23
REMARK                            x       y       z     vdW  Elec       q    Type
REMARK                         _______ _______ _______ _____ _____    ______ ____
ROOT
ATOM      1  C   UNL     1       5.024   5.609  17.519  0.00  0.00    +0.000 A 
ATOM      2  N   UNL     1       4.502   6.796  17.923  0.00  0.00    +0.000 NA
ATOM      3  N   UNL     1       3.216   6.621  18.211  0.00  0.00    +0.000 N 
ATOM      4  C   UNL     1       2.907   5.316  18.021  0.00  0.00    +0.000 A 
ATOM      5  C   UNL     1       4.016   4.647  17.568  0.00  0.00    +0.000 A 
ATOM      6  C   UNL     1       3.969   3.186  17.312  0.00  0.00    +0.000 C 
ATOM      7  O   UNL     1       4.965   2.532  17.056  0.00  0.00    +0.000 OA
ATOM      8  C   UNL     1       2.634   2.494  17.478  0.00  0.00    +0.000 C 
ATOM      9  C   UNL     1       1.856   3.105  18.674  0.00  0.00    +0.000 C 
ATOM     10  C   UNL     1       0.483   2.427  18.821  0.00  0.00    +0.000 C 
ATOM     11  C   UNL     1       2.640   2.915  19.999  0.00  0.00    +0.000 C 
ATOM     12  C   UNL     1       1.626   4.612  18.385  0.00  0.00    +0.000 C 
ENDROOT
BRANCH   3  13
ATOM     13  C   UNL     1       2.344   7.640  18.756  0.00  0.00    +0.000 A 
ATOM     14  C   UNL     1       1.969   7.639  20.114  0.00  0.00    +0.000 A 
ATOM     15  C   UNL     1       1.226   8.680  20.660  0.00  0.00    +0.000 A 
ATOM     16  C   UNL     1       0.825   9.767  19.871  0.00  0.00    +0.000 A 
ATOM     17  C   UNL     1       1.149   9.750  18.497  0.00  0.00    +0.000 A 
ATOM     18  C   UNL     1       1.890   8.692  17.947  0.00  0.00    +0.000 A 
BRANCH  16  19
ATOM     19  C   UNL     1       0.091  10.899  20.516  0.00  0.00    +0.000 C 
ATOM     20  O   UNL     1      -0.930  11.327  19.998  0.00  0.00    +0.000 OA
BRANCH  19  21
ATOM     21  O   UNL     1       0.488  11.453  21.683  0.00  0.00    +0.000 OA
ATOM     22  H   UNL     1      -0.077  11.994  22.245  0.00  0.00    +0.000 HD
ENDBRANCH  19  21
ENDBRANCH  16  19
ENDBRANCH   3  13
BRANCH   1  24
ATOM     23  C   UNL     1       7.237   6.779  17.269  0.00  0.00    +0.000 C 
ATOM     24  C   UNL     1       6.481   5.444  17.159  0.00  0.00    +0.000 C 
BRANCH  24  25
ATOM     25  N   UNL     1       7.111   4.394  17.962  0.00  0.00    +0.000 NA
ATOM     26  H   UNL     1       6.802   3.447  17.654  0.00  0.00    +0.000 HD
ATOM     27  H   UNL     1       6.831   4.512  18.963  0.00  0.00    +0.000 HD
ENDBRANCH  24  25
ENDBRANCH   1  24
TORSDOF 5
ENDMDL
MODEL 3
REMARK VINA RESULT:      -8.0      1.098      1.680
REMARK  Name = 
REMARK  8 active torsions:
REMARK  status: ('A' for Active; 'I' for Inactive)
REMARK    1  A    between atoms: C_1  and  C_2
REMARK    2  A    between atoms: C_2  and  N_3
REMARK    3  A    between atoms: C_2  and  C_4
REMARK    4  A    between atoms: N_6  and  C_7
REMARK    5  A    between atoms: C_10  and  C_11
REMARK    6  A    between atoms: C_11  and  O_13
REMARK    7  A    between atoms: C_21  and  C_22
REMARK    8  A    between atoms: C_21  and  C_23
REMARK                            x       y       z     vdW  Elec       q    Type
REMARK                         _______ _______ _______ _____ _____    ______ ____
ROOT
ATOM      1  C   UNL     1       5.069   5.556  17.506  0.00  0.00    +0.000 A 
ATOM      2  N   UNL     1       4.574   6.770  17.859  0.00  0.00    +0.000 NA
ATOM      3  N   UNL     1       3.282   6.640  18.141  0.00  0.00    +0.000 N 
ATOM      4  C   UNL     1       2.940   5.337  17.997  0.00  0.00    +0.000 A 
ATOM      5  C   UNL     1       4.035   4.622  17.581  0.00  0.00    +0.000 A 
ATOM      6  C   UNL     1       3.953   3.154  17.380  0.00  0.00    +0.000 C 
ATOM      7  O   UNL     1       4.933   2.465  17.159  0.00  0.00    +0.000 OA
ATOM      8  C   UNL     1       2.598   2.504  17.559  0.00  0.00    +0.000 C 
ATOM      9  C   UNL     1       1.825   3.181  18.723  0.00  0.00    +0.000 C 
ATOM     10  C   UNL     1       0.434   2.544  18.881  0.00  0.00    +0.000 C 
ATOM     11  C   UNL     1       2.592   3.021  20.063  0.00  0.00    +0.000 C 
ATOM     12  C   UNL     1       1.638   4.681  18.375  0.00  0.00    +0.000 C 
ENDROOT
BRANCH   3  13
ATOM     13  C   UNL     1       2.432   7.701  18.638  0.00  0.00    +0.000 A 
ATOM     14  C   UNL     1       1.923   8.698  17.783  0.00  0.00    +0.000 A 
ATOM     15  C   UNL     1       1.016   9.648  18.240  0.00  0.00    +0.000 A 
ATOM     16  C   UNL     1       0.580   9.643  19.573  0.00  0.00    +0.000 A 
ATOM     17  C   UNL     1       1.127   8.682  20.450  0.00  0.00    +0.000 A 
ATOM     18  C   UNL     1       2.050   7.730  19.988  0.00  0.00    +0.000 A 
BRANCH  16  19
ATOM     19  C   UNL     1      -0.451  10.638  20.001  0.00  0.00    +0.000 C 
ATOM     20  O   UNL     1      -0.345  11.182  21.091  0.00  0.00    +0.000 OA
BRANCH  19  21
ATOM     21  O   UNL     1      -1.488  10.998  19.212  0.00  0.00    +0.000 OA
ATOM     22  H   UNL     1      -2.174  11.622  19.473  0.00  0.00    +0.000 HD
ENDBRANCH  19  21
ENDBRANCH  16  19
ENDBRANCH   3  13
BRANCH   1  24
ATOM     23  C   UNL     1       7.305   6.664  17.191  0.00  0.00    +0.000 C 
ATOM     24  C   UNL     1       6.524   5.339  17.167  0.00  0.00    +0.000 C 
BRANCH  24  25
ATOM     25  N   UNL     1       7.130   4.335  18.043  0.00  0.00    +0.000 NA
ATOM     26  H   UNL     1       8.162   4.288  17.906  0.00  0.00    +0.000 HD
ATOM     27  H   UNL     1       6.734   3.394  17.812  0.00  0.00    +0.000 HD
ENDBRANCH  24  25
ENDBRANCH   1  24
TORSDOF 5
ENDMDL
MODEL 4
REMARK VINA RESULT:      -7.9      0.689      1.245
REMARK  Name = 
REMARK  8 active torsions:
REMARK  status: ('A' for Active; 'I' for Inactive)
REMARK    1  A    between atoms: C_1  and  C_2
REMARK    2  A    between atoms: C_2  and  N_3
REMARK    3  A    between atoms: C_2  and  C_4
REMARK    4  A    between atoms: N_6  and  C_7
REMARK    5  A    between atoms: C_10  and  C_11
REMARK    6  A    between atoms: C_11  and  O_13
REMARK    7  A    between atoms: C_21  and  C_22
REMARK    8  A    between atoms: C_21  and  C_23
REMARK                            x       y       z     vdW  Elec       q    Type
REMARK                         _______ _______ _______ _____ _____    ______ ____
ROOT
ATOM      1  C   UNL     1       4.993   6.151  17.104  0.00  0.00    +0.000 A 
ATOM      2  N   UNL     1       4.426   7.304  17.546  0.00  0.00    +0.000 NA
ATOM      3  N   UNL     1       3.195   7.037  17.973  0.00  0.00    +0.000 N 
ATOM      4  C   UNL     1       2.970   5.709  17.834  0.00  0.00    +0.000 A 
ATOM      5  C   UNL     1       4.073   5.116  17.274  0.00  0.00    +0.000 A 
ATOM      6  C   UNL     1       4.113   3.651  17.042  0.00  0.00    +0.000 C 
ATOM      7  O   UNL     1       5.124   3.069  16.690  0.00  0.00    +0.000 OA
ATOM      8  C   UNL     1       2.861   2.863  17.360  0.00  0.00    +0.000 C 
ATOM      9  C   UNL     1       2.168   3.439  18.624  0.00  0.00    +0.000 C 
ATOM     10  C   UNL     1       0.875   2.662  18.926  0.00  0.00    +0.000 C 
ATOM     11  C   UNL     1       3.101   3.337  19.860  0.00  0.00    +0.000 C 
ATOM     12  C   UNL     1       1.793   4.918  18.342  0.00  0.00    +0.000 C 
ENDROOT
BRANCH   3  13
ATOM     13  C   UNL     1       2.309   7.999  18.595  0.00  0.00    +0.000 A 
ATOM     14  C   UNL     1       1.697   9.025  17.850  0.00  0.00    +0.000 A 
ATOM     15  C   UNL     1       0.758   9.875  18.426  0.00  0.00    +0.000 A 
ATOM     16  C   UNL     1       0.394   9.737  19.773  0.00  0.00    +0.000 A 
ATOM     17  C   UNL     1       1.044   8.746  20.541  0.00  0.00    +0.000 A 
ATOM     18  C   UNL     1       1.998   7.896  19.960  0.00  0.00    +0.000 A 
BRANCH  16  19
ATOM     19  C   UNL     1      -0.672  10.625  20.330  0.00  0.00    +0.000 C 
ATOM     20  O   UNL     1      -1.499  11.117  19.576  0.00  0.00    +0.000 OA
BRANCH  19  21
ATOM     21  O   UNL     1      -0.789  10.881  21.652  0.00  0.00    +0.000 OA
ATOM     22  H   UNL     1      -1.571  11.268  22.060  0.00  0.00    +0.000 HD
ENDBRANCH  19  21
ENDBRANCH  16  19
ENDBRANCH   3  13
BRANCH   1  24
ATOM     23  C   UNL     1       7.342   5.408  17.610  0.00  0.00    +0.000 C 
ATOM     24  C   UNL     1       6.412   6.090  16.592  0.00  0.00    +0.000 C 
BRANCH  24  25
ATOM     25  N   UNL     1       6.475   5.444  15.279  0.00  0.00    +0.000 NA
ATOM     26  H   UNL     1       7.007   4.548  15.325  0.00  0.00    +0.000 HD
ATOM     27  H   UNL     1       6.970   6.075  14.609  0.00  0.00    +0.000 HD
ENDBRANCH  24  25
ENDBRANCH   1  24
TORSDOF 5
ENDMDL
MODEL 5
REMARK VINA RESULT:      -7.7      2.199      4.129
REMARK  Name = 
REMARK  8 active torsions:
REMARK  status: ('A' for Active; 'I' for Inactive)
REMARK    1  A    between atoms: C_1  and  C_2
REMARK    2  A    between atoms: C_2  and  N_3
REMARK    3  A    between atoms: C_2  and  C_4
REMARK    4  A    between atoms: N_6  and  C_7
REMARK    5  A    between atoms: C_10  and  C_11
REMARK    6  A    between atoms: C_11  and  O_13
REMARK    7  A    between atoms: C_21  and  C_22
REMARK    8  A    between atoms: C_21  and  C_23
REMARK                            x       y       z     vdW  Elec       q    Type
REMARK                         _______ _______ _______ _____ _____    ______ ____
ROOT
ATOM      1  C   UNL     1       2.381   4.397  20.395  0.00  0.00    +0.000 A 
ATOM      2  N   UNL     1       1.673   5.556  20.404  0.00  0.00    +0.000 NA
ATOM      3  N   UNL     1       2.385   6.495  19.790  0.00  0.00    +0.000 N 
ATOM      4  C   UNL     1       3.544   5.943  19.358  0.00  0.00    +0.000 A 
ATOM      5  C   UNL     1       3.588   4.624  19.734  0.00  0.00    +0.000 A 
ATOM      6  C   UNL     1       4.736   3.764  19.356  0.00  0.00    +0.000 C 
ATOM      7  O   UNL     1       4.743   2.559  19.539  0.00  0.00    +0.000 OA
ATOM      8  C   UNL     1       5.887   4.422  18.628  0.00  0.00    +0.000 C 
ATOM      9  C   UNL     1       5.356   5.499  17.643  0.00  0.00    +0.000 C 
ATOM     10  C   UNL     1       6.529   6.195  16.930  0.00  0.00    +0.000 C 
ATOM     11  C   UNL     1       4.438   4.861  16.568  0.00  0.00    +0.000 C 
ATOM     12  C   UNL     1       4.582   6.566  18.461  0.00  0.00    +0.000 C 
ENDROOT
BRANCH   3  13
ATOM     13  C   UNL     1       1.925   7.842  19.527  0.00  0.00    +0.000 A 
ATOM     14  C   UNL     1       2.003   8.409  18.239  0.00  0.00    +0.000 A 
ATOM     15  C   UNL     1       1.456   9.658  17.965  0.00  0.00    +0.000 A 
ATOM     16  C   UNL     1       0.811  10.396  18.967  0.00  0.00    +0.000 A 
ATOM     17  C   UNL     1       0.777   9.861  20.273  0.00  0.00    +0.000 A 
ATOM     18  C   UNL     1       1.338   8.603  20.549  0.00  0.00    +0.000 A 
BRANCH  16  19
ATOM     19  C   UNL     1       0.174  11.701  18.609  0.00  0.00    +0.000 C 
ATOM     20  O   UNL     1       0.644  12.740  19.051  0.00  0.00    +0.000 OA
BRANCH  19  21
ATOM     21  O   UNL     1      -0.887  11.790  17.777  0.00  0.00    +0.000 OA
ATOM     22  H   UNL     1      -1.638  11.186  17.792  0.00  0.00    +0.000 HD
ENDBRANCH  19  21
ENDBRANCH  16  19
ENDBRANCH   3  13
BRANCH   1  24
ATOM     23  C   UNL     1       1.408   2.139  19.862  0.00  0.00    +0.000 C 
ATOM     24  C   UNL     1       1.839   3.111  20.973  0.00  0.00    +0.000 C 
BRANCH  24  25
ATOM     25  N   UNL     1       2.800   2.496  21.892  0.00  0.00    +0.000 NA
ATOM     26  H   UNL     1       3.085   1.549  21.561  0.00  0.00    +0.000 HD
ATOM     27  H   UNL     1       2.354   2.385  22.831  0.00  0.00    +0.000 HD
ENDBRANCH  24  25
ENDBRANCH   1  24
TORSDOF 5
ENDMDL
MODEL 6
REMARK VINA RESULT:      -7.7      1.389      1.869
REMARK  Name = 
REMARK  8 active torsions:
REMARK  status: ('A' for Active; 'I' for Inactive)
REMARK    1  A    between atoms: C_1  and  C_2
REMARK    2  A    between atoms: C_2  and  N_3
REMARK    3  A    between atoms: C_2  and  C_4
REMARK    4  A    between atoms: N_6  and  C_7
REMARK    5  A    between atoms: C_10  and  C_11
REMARK    6  A    between atoms: C_11  and  O_13
REMARK    7  A    between atoms: C_21  and  C_22
REMARK    8  A    between atoms: C_21  and  C_23
REMARK                            x       y       z     vdW  Elec       q    Type
REMARK                         _______ _______ _______ _____ _____    ______ ____
ROOT
ATOM      1  C   UNL     1       4.067   4.824  17.055  0.00  0.00    +0.000 A 
ATOM      2  N   UNL     1       3.763   6.124  17.303  0.00  0.00    +0.000 NA
ATOM      3  N   UNL     1       2.801   6.171  18.219  0.00  0.00    +0.000 N 
ATOM      4  C   UNL     1       2.496   4.903  18.587  0.00  0.00    +0.000 A 
ATOM      5  C   UNL     1       3.261   4.023  17.864  0.00  0.00    +0.000 A 
ATOM      6  C   UNL     1       3.157   2.560  18.094  0.00  0.00    +0.000 C 
ATOM      7  O   UNL     1       3.922   1.760  17.584  0.00  0.00    +0.000 OA
ATOM      8  C   UNL     1       2.115   2.085  19.082  0.00  0.00    +0.000 C 
ATOM      9  C   UNL     1       2.009   3.075  20.273  0.00  0.00    +0.000 C 
ATOM     10  C   UNL     1       0.923   2.611  21.259  0.00  0.00    +0.000 C 
ATOM     11  C   UNL     1       3.357   3.168  21.036  0.00  0.00    +0.000 C 
ATOM     12  C   UNL     1       1.600   4.464  19.715  0.00  0.00    +0.000 C 
ENDROOT
BRANCH   3  13
ATOM     13  C   UNL     1       2.272   7.385  18.802  0.00  0.00    +0.000 A 
ATOM     14  C   UNL     1       1.958   8.507  18.010  0.00  0.00    +0.000 A 
ATOM     15  C   UNL     1       1.343   9.629  18.556  0.00  0.00    +0.000 A 
ATOM     16  C   UNL     1       1.019   9.679  19.919  0.00  0.00    +0.000 A 
ATOM     17  C   UNL     1       1.381   8.582  20.732  0.00  0.00    +0.000 A 
ATOM     18  C   UNL     1       2.010   7.455  20.179  0.00  0.00    +0.000 A 
BRANCH  16  19
ATOM     19  C   UNL     1       0.294  10.875  20.448  0.00  0.00    +0.000 C 
ATOM     20  O   UNL     1      -0.847  11.100  20.072  0.00  0.00    +0.000 OA
BRANCH  19  21
ATOM     21  O   UNL     1       0.835  11.708  21.364  0.00  0.00    +0.000 OA
ATOM     22  H   UNL     1       0.331  12.354  21.871  0.00  0.00    +0.000 HD
ENDBRANCH  19  21
ENDBRANCH  16  19
ENDBRANCH   3  13
BRANCH   1  24
ATOM     23  C   UNL     1       5.575   5.588  15.193  0.00  0.00    +0.000 C 
ATOM     24  C   UNL     1       5.156   4.414  16.094  0.00  0.00    +0.000 C 
BRANCH  24  25
ATOM     25  N   UNL     1       6.300   3.837  16.802  0.00  0.00    +0.000 NA
ATOM     26  H   UNL     1       6.852   4.574  17.290  0.00  0.00    +0.000 HD
ATOM     27  H   UNL     1       6.932   3.370  16.111  0.00  0.00    +0.000 HD
ENDBRANCH  24  25
ENDBRANCH   1  24
TORSDOF 5
ENDMDL
MODEL 7
REMARK VINA RESULT:      -7.6      2.139      4.068
REMARK  Name = 
REMARK  8 active torsions:
REMARK  status: ('A' for Active; 'I' for Inactive)
REMARK    1  A    between atoms: C_1  and  C_2
REMARK    2  A    between atoms: C_2  and  N_3
REMARK    3  A    between atoms: C_2  and  C_4
REMARK    4  A    between atoms: N_6  and  C_7
REMARK    5  A    between atoms: C_10  and  C_11
REMARK    6  A    between atoms: C_11  and  O_13
REMARK    7  A    between atoms: C_21  and  C_22
REMARK    8  A    between atoms: C_21  and  C_23
REMARK                            x       y       z     vdW  Elec       q    Type
REMARK                         _______ _______ _______ _____ _____    ______ ____
ROOT
ATOM      1  C   UNL     1       2.371   4.408  20.369  0.00  0.00    +0.000 A 
ATOM      2  N   UNL     1       1.647   5.556  20.348  0.00  0.00    +0.000 NA
ATOM      3  N   UNL     1       2.356   6.497  19.732  0.00  0.00    +0.000 N 
ATOM      4  C   UNL     1       3.531   5.955  19.329  0.00  0.00    +0.000 A 
ATOM      5  C   UNL     1       3.586   4.643  19.726  0.00  0.00    +0.000 A 
ATOM      6  C   UNL     1       4.754   3.793  19.382  0.00  0.00    +0.000 C 
ATOM      7  O   UNL     1       4.774   2.592  19.584  0.00  0.00    +0.000 OA
ATOM      8  C   UNL     1       5.908   4.458  18.665  0.00  0.00    +0.000 C 
ATOM      9  C   UNL     1       5.380   5.512  17.655  0.00  0.00    +0.000 C 
ATOM     10  C   UNL     1       6.555   6.214  16.952  0.00  0.00    +0.000 C 
ATOM     11  C   UNL     1       4.490   4.844  16.573  0.00  0.00    +0.000 C 
ATOM     12  C   UNL     1       4.576   6.580  18.442  0.00  0.00    +0.000 C 
ENDROOT
BRANCH   3  13
ATOM     13  C   UNL     1       1.882   7.833  19.441  0.00  0.00    +0.000 A 
ATOM     14  C   UNL     1       1.291   8.638  20.434  0.00  0.00    +0.000 A 
ATOM     15  C   UNL     1       0.942   9.960  20.180  0.00  0.00    +0.000 A 
ATOM     16  C   UNL     1       1.167  10.534  18.921  0.00  0.00    +0.000 A 
ATOM     17  C   UNL     1       1.707   9.719  17.903  0.00  0.00    +0.000 A 
ATOM     18  C   UNL     1       2.050   8.381  18.160  0.00  0.00    +0.000 A 
BRANCH  16  19
ATOM     19  C   UNL     1       0.843  11.979  18.716  0.00  0.00    +0.000 C 
ATOM     20  O   UNL     1      -0.078  12.484  19.342  0.00  0.00    +0.000 OA
BRANCH  19  21
ATOM     21  O   UNL     1       1.556  12.775  17.888  0.00  0.00    +0.000 OA
ATOM     22  H   UNL     1       1.900  13.641  18.133  0.00  0.00    +0.000 HD
ENDBRANCH  19  21
ENDBRANCH  16  19
ENDBRANCH   3  13
BRANCH   1  24
ATOM     23  C   UNL     1       1.441   2.128  19.853  0.00  0.00    +0.000 C 
ATOM     24  C   UNL     1       1.838   3.123  20.957  0.00  0.00    +0.000 C 
BRANCH  24  25
ATOM     25  N   UNL     1       2.790   2.536  21.902  0.00  0.00    +0.000 NA
ATOM     26  H   UNL     1       2.805   1.496  21.825  0.00  0.00    +0.000 HD
ATOM     27  H   UNL     1       2.500   2.779  22.877  0.00  0.00    +0.000 HD
ENDBRANCH  24  25
ENDBRANCH   1  24
TORSDOF 5
ENDMDL
MODEL 8
REMARK VINA RESULT:      -7.6      1.923      2.350
REMARK  Name = 
REMARK  8 active torsions:
REMARK  status: ('A' for Active; 'I' for Inactive)
REMARK    1  A    between atoms: C_1  and  C_2
REMARK    2  A    between atoms: C_2  and  N_3
REMARK    3  A    between atoms: C_2  and  C_4
REMARK    4  A    between atoms: N_6  and  C_7
REMARK    5  A    between atoms: C_10  and  C_11
REMARK    6  A    between atoms: C_11  and  O_13
REMARK    7  A    between atoms: C_21  and  C_22
REMARK    8  A    between atoms: C_21  and  C_23
REMARK                            x       y       z     vdW  Elec       q    Type
REMARK                         _______ _______ _______ _____ _____    ______ ____
ROOT
ATOM      1  C   UNL     1       5.328   5.056  19.011  0.00  0.00    +0.000 A 
ATOM      2  N   UNL     1       4.848   6.320  18.887  0.00  0.00    +0.000 NA
ATOM      3  N   UNL     1       3.519   6.275  18.906  0.00  0.00    +0.000 N 
ATOM      4  C   UNL     1       3.134   4.987  19.067  0.00  0.00    +0.000 A 
ATOM      5  C   UNL     1       4.245   4.183  19.121  0.00  0.00    +0.000 A 
ATOM      6  C   UNL     1       4.115   2.720  19.332  0.00  0.00    +0.000 C 
ATOM      7  O   UNL     1       5.075   1.998  19.535  0.00  0.00    +0.000 OA
ATOM      8  C   UNL     1       2.715   2.149  19.389  0.00  0.00    +0.000 C 
ATOM      9  C   UNL     1       1.760   3.134  20.114  0.00  0.00    +0.000 C 
ATOM     10  C   UNL     1       0.329   2.570  20.139  0.00  0.00    +0.000 C 
ATOM     11  C   UNL     1       2.218   3.372  21.578  0.00  0.00    +0.000 C 
ATOM     12  C   UNL     1       1.743   4.468  19.322  0.00  0.00    +0.000 C 
ENDROOT
BRANCH   3  13
ATOM     13  C   UNL     1       2.652   7.435  18.883  0.00  0.00    +0.000 A 
ATOM     14  C   UNL     1       1.906   7.818  20.014  0.00  0.00    +0.000 A 
ATOM     15  C   UNL     1       1.164   8.995  20.026  0.00  0.00    +0.000 A 
ATOM     16  C   UNL     1       1.135   9.837  18.906  0.00  0.00    +0.000 A 
ATOM     17  C   UNL     1       1.835   9.433  17.748  0.00  0.00    +0.000 A 
ATOM     18  C   UNL     1       2.575   8.240  17.736  0.00  0.00    +0.000 A 
BRANCH  16  19
ATOM     19  C   UNL     1       0.384  11.127  18.989  0.00  0.00    +0.000 C 
ATOM     20  O   UNL     1       0.533  11.848  19.966  0.00  0.00    +0.000 OA
BRANCH  19  21
ATOM     21  O   UNL     1      -0.434  11.560  18.004  0.00  0.00    +0.000 OA
ATOM     22  H   UNL     1      -0.138  12.061  17.236  0.00  0.00    +0.000 HD
ENDBRANCH  19  21
ENDBRANCH  16  19
ENDBRANCH   3  13
BRANCH   1  24
ATOM     23  C   UNL     1       7.453   4.847  17.681  0.00  0.00    +0.000 C 
ATOM     24  C   UNL     1       6.806   4.752  19.073  0.00  0.00    +0.000 C 
BRANCH  24  25
ATOM     25  N   UNL     1       7.484   5.608  20.049  0.00  0.00    +0.000 NA
ATOM     26  H   UNL     1       8.113   6.292  19.577  0.00  0.00    +0.000 HD
ATOM     27  H   UNL     1       8.072   5.014  20.677  0.00  0.00    +0.000 HD
ENDBRANCH  24  25
ENDBRANCH   1  24
TORSDOF 5
ENDMDL
MODEL 9
REMARK VINA RESULT:      -7.6      2.036      2.541
REMARK  Name = 
REMARK  8 active torsions:
REMARK  status: ('A' for Active; 'I' for Inactive)
REMARK    1  A    between atoms: C_1  and  C_2
REMARK    2  A    between atoms: C_2  and  N_3
REMARK    3  A    between atoms: C_2  and  C_4
REMARK    4  A    between atoms: N_6  and  C_7
REMARK    5  A    between atoms: C_10  and  C_11
REMARK    6  A    between atoms: C_11  and  O_13
REMARK    7  A    between atoms: C_21  and  C_22
REMARK    8  A    between atoms: C_21  and  C_23
REMARK                            x       y       z     vdW  Elec       q    Type
REMARK                         _______ _______ _______ _____ _____    ______ ____
ROOT
ATOM      1  C   UNL     1       5.367   5.055  19.040  0.00  0.00    +0.000 A 
ATOM      2  N   UNL     1       4.901   6.324  18.916  0.00  0.00    +0.000 NA
ATOM      3  N   UNL     1       3.572   6.294  18.924  0.00  0.00    +0.000 N 
ATOM      4  C   UNL     1       3.172   5.009  19.079  0.00  0.00    +0.000 A 
ATOM      5  C   UNL     1       4.274   4.194  19.140  0.00  0.00    +0.000 A 
ATOM      6  C   UNL     1       4.126   2.731  19.346  0.00  0.00    +0.000 C 
ATOM      7  O   UNL     1       5.077   1.999  19.556  0.00  0.00    +0.000 OA
ATOM      8  C   UNL     1       2.720   2.175  19.391  0.00  0.00    +0.000 C 
ATOM      9  C   UNL     1       1.770   3.169  20.111  0.00  0.00    +0.000 C 
ATOM     10  C   UNL     1       0.333   2.619  20.124  0.00  0.00    +0.000 C 
ATOM     11  C   UNL     1       2.219   3.398  21.579  0.00  0.00    +0.000 C 
ATOM     12  C   UNL     1       1.774   4.504  19.322  0.00  0.00    +0.000 C 
ENDROOT
BRANCH   3  13
ATOM     13  C   UNL     1       2.717   7.462  18.897  0.00  0.00    +0.000 A 
ATOM     14  C   UNL     1       2.531   8.211  17.719  0.00  0.00    +0.000 A 
ATOM     15  C   UNL     1       1.622   9.263  17.667  0.00  0.00    +0.000 A 
ATOM     16  C   UNL     1       0.862   9.612  18.791  0.00  0.00    +0.000 A 
ATOM     17  C   UNL     1       1.082   8.903  19.992  0.00  0.00    +0.000 A 
ATOM     18  C   UNL     1       2.007   7.848  20.044  0.00  0.00    +0.000 A 
BRANCH  16  19
ATOM     19  C   UNL     1      -0.155  10.701  18.668  0.00  0.00    +0.000 C 
ATOM     20  O   UNL     1      -1.323  10.467  18.945  0.00  0.00    +0.000 OA
BRANCH  19  21
ATOM     21  O   UNL     1       0.167  11.960  18.298  0.00  0.00    +0.000 OA
ATOM     22  H   UNL     1       0.217  12.259  17.383  0.00  0.00    +0.000 HD
ENDBRANCH  19  21
ENDBRANCH  16  19
ENDBRANCH   3  13
BRANCH   1  24
ATOM     23  C   UNL     1       7.488   4.771  17.719  0.00  0.00    +0.000 C 
ATOM     24  C   UNL     1       6.840   4.735  19.113  0.00  0.00    +0.000 C 
BRANCH  24  25
ATOM     25  N   UNL     1       7.529   5.618  20.056  0.00  0.00    +0.000 NA
ATOM     26  H   UNL     1       7.739   5.124  20.950  0.00  0.00    +0.000 HD
ATOM     27  H   UNL     1       6.912   6.432  20.279  0.00  0.00    +0.000 HD
ENDBRANCH  24  25
ENDBRANCH   1  24
TORSDOF 5
ENDMDL
