MODEL 1
REMARK VINA RESULT:      -7.8      0.000      0.000
REMARK  Name = 
REMARK  10 active torsions:
REMARK  status: ('A' for Active; 'I' for Inactive)
REMARK    1  A    between atoms: C_1  and  N_2
REMARK    2  A    between atoms: C_4  and  C_5
REMARK    3  A    between atoms: C_5  and  O_6
REMARK    4  A    between atoms: C_5  and  C_7
REMARK    5  A    between atoms: C_11  and  C_12
REMARK    6  A    between atoms: C_12  and  O_14
REMARK    7  A    between atoms: C_15  and  C_16
REMARK    8  A    between atoms: C_16  and  C_17
REMARK    9  A    between atoms: C_16  and  C_18
REMARK   10  A    between atoms: C_16  and  C_19
REMARK                            x       y       z     vdW  Elec       q    Type
REMARK                         _______ _______ _______ _____ _____    ______ ____
ROOT
ATOM      1  C   UNL     1       4.436   5.498  17.320  0.00  0.00    +0.000 C 
ATOM      2  C   UNL     1       5.090   4.135  17.528  0.00  0.00    +0.000 C 
ATOM      3  O   UNL     1       5.529   3.234  16.850  0.00  0.00    +0.000 OA
ATOM      4  N   UNL     1       5.016   4.208  18.892  0.00  0.00    +0.000 N 
ATOM      5  C   UNL     1       4.121   3.359  19.527  0.00  0.00    +0.000 C 
ATOM      6  C   UNL     1       2.969   3.992  19.802  0.00  0.00    +0.000 C 
ATOM      7  O   UNL     1       2.999   5.370  19.440  0.00  0.00    +0.000 OA
ATOM      8  C   UNL     1       4.321   5.513  18.869  0.00  0.00    +0.000 C 
ENDROOT
BRANCH   6   9
ATOM      9  C   UNL     1       1.608   3.537  20.344  0.00  0.00    +0.000 C 
ATOM     10  C   UNL     1       0.681   4.751  20.515  0.00  0.00    +0.000 C 
ATOM     11  C   UNL     1       0.948   2.572  19.319  0.00  0.00    +0.000 C 
ATOM     12  C   UNL     1       1.665   2.743  21.664  0.00  0.00    +0.000 C 
ENDBRANCH   6   9
BRANCH   5  13
ATOM     13  C   UNL     1       4.545   1.946  19.788  0.00  0.00    +0.000 C 
ATOM     14  O   UNL     1       5.167   1.586  20.774  0.00  0.00    +0.000 OA
BRANCH  13  15
ATOM     15  O   UNL     1       4.244   1.085  18.786  0.00  0.00    +0.000 OA
ATOM     16  H   UNL     1       4.919   1.020  18.075  0.00  0.00    +0.000 HD
ENDBRANCH  13  15
ENDBRANCH   5  13
BRANCH   1  17
ATOM     17  C   UNL     1       5.312   6.466  16.549  0.00  0.00    +0.000 C 
BRANCH  17  21
ATOM     18  C   UNL     1       6.700   3.751  12.580  0.00  0.00    +0.000 C 
ATOM     19  N   UNL     1       6.625   4.650  13.701  0.00  0.00    +0.000 N 
ATOM     20  C   UNL     1       5.514   5.131  14.323  0.00  0.00    +0.000 A 
ATOM     21  C   UNL     1       6.018   5.819  15.407  0.00  0.00    +0.000 A 
ATOM     22  N   UNL     1       7.385   5.770  15.376  0.00  0.00    +0.000 NA
ATOM     23  N   UNL     1       7.745   5.043  14.329  0.00  0.00    +0.000 NA
ENDBRANCH  17  21
BRANCH  17  24
ATOM     24  O   UNL     1       6.217   7.079  17.473  0.00  0.00    +0.000 OA
ATOM     25  H   UNL     1       7.120   6.930  17.135  0.00  0.00    +0.000 HD
ENDBRANCH  17  24
ENDBRANCH   1  17
TORSDOF 6
ENDMDL
MODEL 2
REMARK VINA RESULT:      -7.5      2.004      2.887
REMARK  Name = 
REMARK  10 active torsions:
REMARK  status: ('A' for Active; 'I' for Inactive)
REMARK    1  A    between atoms: C_1  and  N_2
REMARK    2  A    between atoms: C_4  and  C_5
REMARK    3  A    between atoms: C_5  and  O_6
REMARK    4  A    between atoms: C_5  and  C_7
REMARK    5  A    between atoms: C_11  and  C_12
REMARK    6  A    between atoms: C_12  and  O_14
REMARK    7  A    between atoms: C_15  and  C_16
REMARK    8  A    between atoms: C_16  and  C_17
REMARK    9  A    between atoms: C_16  and  C_18
REMARK   10  A    between atoms: C_16  and  C_19
REMARK                            x       y       z     vdW  Elec       q    Type
REMARK                         _______ _______ _______ _____ _____    ______ ____
ROOT
ATOM      1  C   UNL     1       4.980   5.580  17.273  0.00  0.00    +0.000 C 
ATOM      2  C   UNL     1       5.297   4.089  17.357  0.00  0.00    +0.000 C 
ATOM      3  O   UNL     1       5.441   3.155  16.601  0.00  0.00    +0.000 OA
ATOM      4  N   UNL     1       5.366   4.090  18.724  0.00  0.00    +0.000 N 
ATOM      5  C   UNL     1       4.351   3.440  19.411  0.00  0.00    +0.000 C 
ATOM      6  C   UNL     1       3.418   4.312  19.828  0.00  0.00    +0.000 C 
ATOM      7  O   UNL     1       3.751   5.663  19.522  0.00  0.00    +0.000 OA
ATOM      8  C   UNL     1       5.011   5.522  18.825  0.00  0.00    +0.000 C 
ENDROOT
BRANCH   6   9
ATOM      9  C   UNL     1       2.041   4.161  20.488  0.00  0.00    +0.000 C 
ATOM     10  C   UNL     1       1.443   5.549  20.770  0.00  0.00    +0.000 C 
ATOM     11  C   UNL     1       1.087   3.418  19.511  0.00  0.00    +0.000 C 
ATOM     12  C   UNL     1       2.026   3.321  21.781  0.00  0.00    +0.000 C 
ENDBRANCH   6   9
BRANCH   5  13
ATOM     13  C   UNL     1       4.438   1.953  19.569  0.00  0.00    +0.000 C 
ATOM     14  O   UNL     1       5.011   1.392  20.489  0.00  0.00    +0.000 OA
BRANCH  13  15
ATOM     15  O   UNL     1       3.882   1.256  18.550  0.00  0.00    +0.000 OA
ATOM     16  H   UNL     1       3.141   1.709  18.089  0.00  0.00    +0.000 HD
ENDBRANCH  13  15
ENDBRANCH   5  13
BRANCH   1  17
ATOM     17  C   UNL     1       5.994   6.358  16.456  0.00  0.00    +0.000 C 
BRANCH  17  21
ATOM     18  C   UNL     1       8.850   9.932  18.485  0.00  0.00    +0.000 C 
ATOM     19  N   UNL     1       8.131   8.723  18.178  0.00  0.00    +0.000 N 
ATOM     20  C   UNL     1       7.097   8.555  17.309  0.00  0.00    +0.000 A 
ATOM     21  C   UNL     1       6.895   7.191  17.300  0.00  0.00    +0.000 A 
ATOM     22  N   UNL     1       7.763   6.602  18.179  0.00  0.00    +0.000 NA
ATOM     23  N   UNL     1       8.521   7.552  18.705  0.00  0.00    +0.000 NA
ENDBRANCH  17  21
BRANCH  17  24
ATOM     24  O   UNL     1       5.281   7.134  15.487  0.00  0.00    +0.000 OA
ATOM     25  H   UNL     1       5.929   7.428  14.819  0.00  0.00    +0.000 HD
ENDBRANCH  17  24
ENDBRANCH   1  17
TORSDOF 6
ENDMDL
MODEL 3
REMARK VINA RESULT:      -7.5      2.043      3.105
REMARK  Name = 
REMARK  10 active torsions:
REMARK  status: ('A' for Active; 'I' for Inactive)
REMARK    1  A    between atoms: C_1  and  N_2
REMARK    2  A    between atoms: C_4  and  C_5
REMARK    3  A    between atoms: C_5  and  O_6
REMARK    4  A    between atoms: C_5  and  C_7
REMARK    5  A    between atoms: C_11  and  C_12
REMARK    6  A    between atoms: C_12  and  O_14
REMARK    7  A    between atoms: C_15  and  C_16
REMARK    8  A    between atoms: C_16  and  C_17
REMARK    9  A    between atoms: C_16  and  C_18
REMARK   10  A    between atoms: C_16  and  C_19
REMARK                            x       y       z     vdW  Elec       q    Type
REMARK                         _______ _______ _______ _____ _____    ______ ____
ROOT
ATOM      1  C   UNL     1       4.994   5.628  17.232  0.00  0.00    +0.000 C 
ATOM      2  C   UNL     1       5.203   4.116  17.215  0.00  0.00    +0.000 C 
ATOM      3  O   UNL     1       5.266   3.225  16.399  0.00  0.00    +0.000 OA
ATOM      4  N   UNL     1       5.292   4.023  18.577  0.00  0.00    +0.000 N 
ATOM      5  C   UNL     1       4.242   3.405  19.242  0.00  0.00    +0.000 C 
ATOM      6  C   UNL     1       3.382   4.313  19.732  0.00  0.00    +0.000 C 
ATOM      7  O   UNL     1       3.809   5.653  19.506  0.00  0.00    +0.000 OA
ATOM      8  C   UNL     1       5.044   5.468  18.776  0.00  0.00    +0.000 C 
ENDROOT
BRANCH   6   9
ATOM      9  C   UNL     1       2.007   4.220  20.408  0.00  0.00    +0.000 C 
ATOM     10  C   UNL     1       1.015   3.506  19.476  0.00  0.00    +0.000 C 
ATOM     11  C   UNL     1       2.136   3.376  21.707  0.00  0.00    +0.000 C 
ATOM     12  C   UNL     1       1.411   5.567  20.861  0.00  0.00    +0.000 C 
ENDBRANCH   6   9
BRANCH   5  13
ATOM     13  C   UNL     1       4.223   1.909  19.304  0.00  0.00    +0.000 C 
ATOM     14  O   UNL     1       3.435   1.206  18.694  0.00  0.00    +0.000 OA
BRANCH  13  15
ATOM     15  O   UNL     1       5.123   1.380  20.167  0.00  0.00    +0.000 OA
ATOM     16  H   UNL     1       4.914   0.473  20.485  0.00  0.00    +0.000 HD
ENDBRANCH  13  15
ENDBRANCH   5  13
BRANCH   1  17
ATOM     17  C   UNL     1       6.050   6.382  16.447  0.00  0.00    +0.000 C 
BRANCH  17  21
ATOM     18  C   UNL     1       8.893   9.912  18.568  0.00  0.00    +0.000 C 
ATOM     19  N   UNL     1       8.170   8.713  18.235  0.00  0.00    +0.000 N 
ATOM     20  C   UNL     1       7.154   8.562  17.342  0.00  0.00    +0.000 A 
ATOM     21  C   UNL     1       6.940   7.200  17.317  0.00  0.00    +0.000 A 
ATOM     22  N   UNL     1       7.784   6.595  18.210  0.00  0.00    +0.000 NA
ATOM     23  N   UNL     1       8.538   7.534  18.760  0.00  0.00    +0.000 NA
ENDBRANCH  17  21
BRANCH  17  24
ATOM     24  O   UNL     1       5.385   7.170  15.453  0.00  0.00    +0.000 OA
ATOM     25  H   UNL     1       5.026   6.552  14.788  0.00  0.00    +0.000 HD
ENDBRANCH  17  24
ENDBRANCH   1  17
TORSDOF 6
ENDMDL
MODEL 4
REMARK VINA RESULT:      -7.5      1.707      2.713
REMARK  Name = 
REMARK  10 active torsions:
REMARK  status: ('A' for Active; 'I' for Inactive)
REMARK    1  A    between atoms: C_1  and  N_2
REMARK    2  A    between atoms: C_4  and  C_5
REMARK    3  A    between atoms: C_5  and  O_6
REMARK    4  A    between atoms: C_5  and  C_7
REMARK    5  A    between atoms: C_11  and  C_12
REMARK    6  A    between atoms: C_12  and  O_14
REMARK    7  A    between atoms: C_15  and  C_16
REMARK    8  A    between atoms: C_16  and  C_17
REMARK    9  A    between atoms: C_16  and  C_18
REMARK   10  A    between atoms: C_16  and  C_19
REMARK                            x       y       z     vdW  Elec       q    Type
REMARK                         _______ _______ _______ _____ _____    ______ ____
ROOT
ATOM      1  C   UNL     1       5.964   4.785  18.064  0.00  0.00    +0.000 C 
ATOM      2  C   UNL     1       4.789   5.466  17.369  0.00  0.00    +0.000 C 
ATOM      3  O   UNL     1       4.494   6.571  16.974  0.00  0.00    +0.000 OA
ATOM      4  N   UNL     1       4.038   4.323  17.324  0.00  0.00    +0.000 N 
ATOM      5  C   UNL     1       2.920   4.265  18.144  0.00  0.00    +0.000 C 
ATOM      6  C   UNL     1       3.190   3.600  19.279  0.00  0.00    +0.000 C 
ATOM      7  O   UNL     1       4.514   3.073  19.307  0.00  0.00    +0.000 OA
ATOM      8  C   UNL     1       5.055   3.526  18.043  0.00  0.00    +0.000 C 
ENDROOT
BRANCH   6   9
ATOM      9  C   UNL     1       2.412   3.354  20.579  0.00  0.00    +0.000 C 
ATOM     10  C   UNL     1       2.182   4.686  21.309  0.00  0.00    +0.000 C 
ATOM     11  C   UNL     1       1.022   2.750  20.233  0.00  0.00    +0.000 C 
ATOM     12  C   UNL     1       3.060   2.342  21.545  0.00  0.00    +0.000 C 
ENDBRANCH   6   9
BRANCH   5  13
ATOM     13  C   UNL     1       1.658   4.920  17.672  0.00  0.00    +0.000 C 
ATOM     14  O   UNL     1       0.764   4.341  17.077  0.00  0.00    +0.000 OA
BRANCH  13  15
ATOM     15  O   UNL     1       1.611   6.254  17.897  0.00  0.00    +0.000 OA
ATOM     16  H   UNL     1       0.834   6.716  17.509  0.00  0.00    +0.000 HD
ENDBRANCH  13  15
ENDBRANCH   5  13
BRANCH   1  17
ATOM     17  C   UNL     1       7.257   4.881  17.277  0.00  0.00    +0.000 C 
BRANCH  17  21
ATOM     18  C   UNL     1       6.301   3.445  12.580  0.00  0.00    +0.000 C 
ATOM     19  N   UNL     1       6.640   4.163  13.780  0.00  0.00    +0.000 N 
ATOM     20  C   UNL     1       6.378   3.818  15.070  0.00  0.00    +0.000 A 
ATOM     21  C   UNL     1       7.045   4.774  15.806  0.00  0.00    +0.000 A 
ATOM     22  N   UNL     1       7.634   5.669  14.954  0.00  0.00    +0.000 NA
ATOM     23  N   UNL     1       7.385   5.278  13.714  0.00  0.00    +0.000 NA
ENDBRANCH  17  21
BRANCH  17  24
ATOM     24  O   UNL     1       8.154   3.881  17.773  0.00  0.00    +0.000 OA
ATOM     25  H   UNL     1       7.831   3.018  17.451  0.00  0.00    +0.000 HD
ENDBRANCH  17  24
ENDBRANCH   1  17
TORSDOF 6
ENDMDL
MODEL 5
REMARK VINA RESULT:      -7.4      1.842      2.718
REMARK  Name = 
REMARK  10 active torsions:
REMARK  status: ('A' for Active; 'I' for Inactive)
REMARK    1  A    between atoms: C_1  and  N_2
REMARK    2  A    between atoms: C_4  and  C_5
REMARK    3  A    between atoms: C_5  and  O_6
REMARK    4  A    between atoms: C_5  and  C_7
REMARK    5  A    between atoms: C_11  and  C_12
REMARK    6  A    between atoms: C_12  and  O_14
REMARK    7  A    between atoms: C_15  and  C_16
REMARK    8  A    between atoms: C_16  and  C_17
REMARK    9  A    between atoms: C_16  and  C_18
REMARK   10  A    between atoms: C_16  and  C_19
REMARK                            x       y       z     vdW  Elec       q    Type
REMARK                         _______ _______ _______ _____ _____    ______ ____
ROOT
ATOM      1  C   UNL     1       5.920   4.374  17.737  0.00  0.00    +0.000 C 
ATOM      2  C   UNL     1       5.487   5.416  18.764  0.00  0.00    +0.000 C 
ATOM      3  O   UNL     1       5.952   5.971  19.734  0.00  0.00    +0.000 OA
ATOM      4  N   UNL     1       4.239   5.561  18.223  0.00  0.00    +0.000 N 
ATOM      5  C   UNL     1       3.167   5.070  18.956  0.00  0.00    +0.000 C 
ATOM      6  C   UNL     1       2.807   3.851  18.523  0.00  0.00    +0.000 C 
ATOM      7  O   UNL     1       3.563   3.422  17.394  0.00  0.00    +0.000 OA
ATOM      8  C   UNL     1       4.474   4.528  17.191  0.00  0.00    +0.000 C 
ENDROOT
BRANCH   6   9
ATOM      9  C   UNL     1       1.819   2.792  19.029  0.00  0.00    +0.000 C 
ATOM     10  C   UNL     1       0.379   3.231  18.718  0.00  0.00    +0.000 C 
ATOM     11  C   UNL     1       2.083   1.452  18.285  0.00  0.00    +0.000 C 
ATOM     12  C   UNL     1       1.940   2.450  20.527  0.00  0.00    +0.000 C 
ENDBRANCH   6   9
BRANCH   5  13
ATOM     13  C   UNL     1       2.612   5.919  20.058  0.00  0.00    +0.000 C 
ATOM     14  O   UNL     1       2.229   7.068  19.914  0.00  0.00    +0.000 OA
BRANCH  13  15
ATOM     15  O   UNL     1       2.634   5.327  21.276  0.00  0.00    +0.000 OA
ATOM     16  H   UNL     1       1.982   4.601  21.399  0.00  0.00    +0.000 HD
ENDBRANCH  13  15
ENDBRANCH   5  13
BRANCH   1  17
ATOM     17  C   UNL     1       7.147   4.789  16.949  0.00  0.00    +0.000 C 
BRANCH  17  21
ATOM     18  C   UNL     1       6.168   3.361  12.254  0.00  0.00    +0.000 C 
ATOM     19  N   UNL     1       6.536   4.070  13.451  0.00  0.00    +0.000 N 
ATOM     20  C   UNL     1       6.232   3.759  14.741  0.00  0.00    +0.000 A 
ATOM     21  C   UNL     1       6.950   4.679  15.476  0.00  0.00    +0.000 A 
ATOM     22  N   UNL     1       7.610   5.521  14.623  0.00  0.00    +0.000 NA
ATOM     23  N   UNL     1       7.353   5.132  13.384  0.00  0.00    +0.000 NA
ENDBRANCH  17  21
BRANCH  17  24
ATOM     24  O   UNL     1       8.256   4.011  17.411  0.00  0.00    +0.000 OA
ATOM     25  H   UNL     1       7.906   3.362  18.051  0.00  0.00    +0.000 HD
ENDBRANCH  17  24
ENDBRANCH   1  17
TORSDOF 6
ENDMDL
MODEL 6
REMARK VINA RESULT:      -7.3      2.553      3.667
REMARK  Name = 
REMARK  10 active torsions:
REMARK  status: ('A' for Active; 'I' for Inactive)
REMARK    1  A    between atoms: C_1  and  N_2
REMARK    2  A    between atoms: C_4  and  C_5
REMARK    3  A    between atoms: C_5  and  O_6
REMARK    4  A    between atoms: C_5  and  C_7
REMARK    5  A    between atoms: C_11  and  C_12
REMARK    6  A    between atoms: C_12  and  O_14
REMARK    7  A    between atoms: C_15  and  C_16
REMARK    8  A    between atoms: C_16  and  C_17
REMARK    9  A    between atoms: C_16  and  C_18
REMARK   10  A    between atoms: C_16  and  C_19
REMARK                            x       y       z     vdW  Elec       q    Type
REMARK                         _______ _______ _______ _____ _____    ______ ____
ROOT
ATOM      1  C   UNL     1       5.896   5.102  18.570  0.00  0.00    +0.000 C 
ATOM      2  C   UNL     1       5.060   4.616  17.390  0.00  0.00    +0.000 C 
ATOM      3  O   UNL     1       4.769   4.991  16.277  0.00  0.00    +0.000 OA
ATOM      4  N   UNL     1       4.649   3.480  18.034  0.00  0.00    +0.000 N 
ATOM      5  C   UNL     1       3.315   3.410  18.411  0.00  0.00    +0.000 C 
ATOM      6  C   UNL     1       3.162   3.751  19.701  0.00  0.00    +0.000 C 
ATOM      7  O   UNL     1       4.401   4.019  20.351  0.00  0.00    +0.000 OA
ATOM      8  C   UNL     1       5.360   3.830  19.283  0.00  0.00    +0.000 C 
ENDROOT
BRANCH   6   9
ATOM      9  C   UNL     1       1.941   3.991  20.600  0.00  0.00    +0.000 C 
ATOM     10  C   UNL     1       2.184   3.372  21.985  0.00  0.00    +0.000 C 
ATOM     11  C   UNL     1       1.740   5.521  20.787  0.00  0.00    +0.000 C 
ATOM     12  C   UNL     1       0.604   3.476  20.033  0.00  0.00    +0.000 C 
ENDBRANCH   6   9
BRANCH   5  13
ATOM     13  C   UNL     1       2.307   2.997  17.383  0.00  0.00    +0.000 C 
ATOM     14  O   UNL     1       1.698   3.774  16.667  0.00  0.00    +0.000 OA
BRANCH  13  15
ATOM     15  O   UNL     1       2.060   1.665  17.356  0.00  0.00    +0.000 OA
ATOM     16  H   UNL     1       1.792   1.308  16.480  0.00  0.00    +0.000 HD
ENDBRANCH  13  15
ENDBRANCH   5  13
BRANCH   1  17
ATOM     17  C   UNL     1       7.359   5.297  18.222  0.00  0.00    +0.000 C 
BRANCH  17  21
ATOM     18  C   UNL     1       8.851  10.044  18.752  0.00  0.00    +0.000 C 
ATOM     19  N   UNL     1       8.360   8.779  18.274  0.00  0.00    +0.000 N 
ATOM     20  C   UNL     1       8.505   7.550  18.842  0.00  0.00    +0.000 A 
ATOM     21  C   UNL     1       7.724   6.731  18.053  0.00  0.00    +0.000 A 
ATOM     22  N   UNL     1       7.185   7.469  17.034  0.00  0.00    +0.000 NA
ATOM     23  N   UNL     1       7.577   8.724  17.186  0.00  0.00    +0.000 NA
ENDBRANCH  17  21
BRANCH  17  24
ATOM     24  O   UNL     1       7.645   4.520  17.054  0.00  0.00    +0.000 OA
ATOM     25  H   UNL     1       8.291   3.836  17.313  0.00  0.00    +0.000 HD
ENDBRANCH  17  24
ENDBRANCH   1  17
TORSDOF 6
ENDMDL
MODEL 7
REMARK VINA RESULT:      -7.1      3.660      6.020
REMARK  Name = 
REMARK  10 active torsions:
REMARK  status: ('A' for Active; 'I' for Inactive)
REMARK    1  A    between atoms: C_1  and  N_2
REMARK    2  A    between atoms: C_4  and  C_5
REMARK    3  A    between atoms: C_5  and  O_6
REMARK    4  A    between atoms: C_5  and  C_7
REMARK    5  A    between atoms: C_11  and  C_12
REMARK    6  A    between atoms: C_12  and  O_14
REMARK    7  A    between atoms: C_15  and  C_16
REMARK    8  A    between atoms: C_16  and  C_17
REMARK    9  A    between atoms: C_16  and  C_18
REMARK   10  A    between atoms: C_16  and  C_19
REMARK                            x       y       z     vdW  Elec       q    Type
REMARK                         _______ _______ _______ _____ _____    ______ ____
ROOT
ATOM      1  C   UNL     1       2.750   6.670  19.468  0.00  0.00    +0.000 C 
ATOM      2  C   UNL     1       2.761   5.219  19.938  0.00  0.00    +0.000 C 
ATOM      3  O   UNL     1       2.828   4.611  20.983  0.00  0.00    +0.000 OA
ATOM      4  N   UNL     1       2.683   4.713  18.669  0.00  0.00    +0.000 N 
ATOM      5  C   UNL     1       3.809   4.074  18.169  0.00  0.00    +0.000 C 
ATOM      6  C   UNL     1       4.529   4.903  17.396  0.00  0.00    +0.000 C 
ATOM      7  O   UNL     1       3.915   6.179  17.236  0.00  0.00    +0.000 OA
ATOM      8  C   UNL     1       2.720   6.052  18.043  0.00  0.00    +0.000 C 
ENDROOT
BRANCH   6   9
ATOM      9  C   UNL     1       5.901   4.801  16.716  0.00  0.00    +0.000 C 
ATOM     10  C   UNL     1       5.869   3.706  15.639  0.00  0.00    +0.000 C 
ATOM     11  C   UNL     1       6.225   6.152  16.017  0.00  0.00    +0.000 C 
ATOM     12  C   UNL     1       7.084   4.550  17.672  0.00  0.00    +0.000 C 
ENDBRANCH   6   9
BRANCH   5  13
ATOM     13  C   UNL     1       4.043   2.644  18.550  0.00  0.00    +0.000 C 
ATOM     14  O   UNL     1       3.483   1.694  18.029  0.00  0.00    +0.000 OA
BRANCH  13  15
ATOM     15  O   UNL     1       4.890   2.483  19.594  0.00  0.00    +0.000 OA
ATOM     16  H   UNL     1       4.630   1.788  20.240  0.00  0.00    +0.000 HD
ENDBRANCH  13  15
ENDBRANCH   5  13
BRANCH   1  17
ATOM     17  C   UNL     1       1.599   7.473  20.043  0.00  0.00    +0.000 C 
BRANCH  17  21
ATOM     18  C   UNL     1       0.432  12.185  18.829  0.00  0.00    +0.000 C 
ATOM     19  N   UNL     1       1.024  10.880  18.951  0.00  0.00    +0.000 N 
ATOM     20  C   UNL     1       0.843   9.961  19.939  0.00  0.00    +0.000 A 
ATOM     21  C   UNL     1       1.523   8.852  19.483  0.00  0.00    +0.000 A 
ATOM     22  N   UNL     1       2.116   9.148  18.285  0.00  0.00    +0.000 NA
ATOM     23  N   UNL     1       1.796  10.392  17.966  0.00  0.00    +0.000 NA
ENDBRANCH  17  21
BRANCH  17  24
ATOM     24  O   UNL     1       1.725   7.470  21.469  0.00  0.00    +0.000 OA
ATOM     25  H   UNL     1       1.208   6.712  21.802  0.00  0.00    +0.000 HD
ENDBRANCH  17  24
ENDBRANCH   1  17
TORSDOF 6
ENDMDL
MODEL 8
REMARK VINA RESULT:      -7.1      1.822      2.758
REMARK  Name = 
REMARK  10 active torsions:
REMARK  status: ('A' for Active; 'I' for Inactive)
REMARK    1  A    between atoms: C_1  and  N_2
REMARK    2  A    between atoms: C_4  and  C_5
REMARK    3  A    between atoms: C_5  and  O_6
REMARK    4  A    between atoms: C_5  and  C_7
REMARK    5  A    between atoms: C_11  and  C_12
REMARK    6  A    between atoms: C_12  and  O_14
REMARK    7  A    between atoms: C_15  and  C_16
REMARK    8  A    between atoms: C_16  and  C_17
REMARK    9  A    between atoms: C_16  and  C_18
REMARK   10  A    between atoms: C_16  and  C_19
REMARK                            x       y       z     vdW  Elec       q    Type
REMARK                         _______ _______ _______ _____ _____    ______ ____
ROOT
ATOM      1  C   UNL     1       5.936   4.337  17.741  0.00  0.00    +0.000 C 
ATOM      2  C   UNL     1       5.543   5.317  18.842  0.00  0.00    +0.000 C 
ATOM      3  O   UNL     1       6.042   5.812  19.828  0.00  0.00    +0.000 OA
ATOM      4  N   UNL     1       4.278   5.500  18.352  0.00  0.00    +0.000 N 
ATOM      5  C   UNL     1       3.229   4.970  19.090  0.00  0.00    +0.000 C 
ATOM      6  C   UNL     1       2.848   3.779  18.598  0.00  0.00    +0.000 C 
ATOM      7  O   UNL     1       3.564   3.416  17.420  0.00  0.00    +0.000 OA
ATOM      8  C   UNL     1       4.473   4.529  17.254  0.00  0.00    +0.000 C 
ENDROOT
BRANCH   6   9
ATOM      9  C   UNL     1       1.870   2.696  19.072  0.00  0.00    +0.000 C 
ATOM     10  C   UNL     1       2.195   2.298  20.520  0.00  0.00    +0.000 C 
ATOM     11  C   UNL     1       0.425   3.267  19.044  0.00  0.00    +0.000 C 
ATOM     12  C   UNL     1       1.820   1.433  18.190  0.00  0.00    +0.000 C 
ENDBRANCH   6   9
BRANCH   5  13
ATOM     13  C   UNL     1       2.714   5.753  20.258  0.00  0.00    +0.000 C 
ATOM     14  O   UNL     1       2.308   5.255  21.295  0.00  0.00    +0.000 OA
BRANCH  13  15
ATOM     15  O   UNL     1       2.663   7.090  20.047  0.00  0.00    +0.000 OA
ATOM     16  H   UNL     1       2.541   7.637  20.855  0.00  0.00    +0.000 HD
ENDBRANCH  13  15
ENDBRANCH   5  13
BRANCH   1  17
ATOM     17  C   UNL     1       7.139   4.794  16.939  0.00  0.00    +0.000 C 
BRANCH  17  21
ATOM     18  C   UNL     1       6.120   3.343  12.260  0.00  0.00    +0.000 C 
ATOM     19  N   UNL     1       6.497   4.058  13.450  0.00  0.00    +0.000 N 
ATOM     20  C   UNL     1       6.206   3.753  14.744  0.00  0.00    +0.000 A 
ATOM     21  C   UNL     1       6.929   4.676  15.469  0.00  0.00    +0.000 A 
ATOM     22  N   UNL     1       7.580   5.516  14.606  0.00  0.00    +0.000 NA
ATOM     23  N   UNL     1       7.313   5.121  13.371  0.00  0.00    +0.000 NA
ENDBRANCH  17  21
BRANCH  17  24
ATOM     24  O   UNL     1       8.279   4.054  17.389  0.00  0.00    +0.000 OA
ATOM     25  H   UNL     1       8.015   3.115  17.432  0.00  0.00    +0.000 HD
ENDBRANCH  17  24
ENDBRANCH   1  17
TORSDOF 6
ENDMDL
MODEL 9
REMARK VINA RESULT:      -7.0      1.668      3.122
REMARK  Name = 
REMARK  10 active torsions:
REMARK  status: ('A' for Active; 'I' for Inactive)
REMARK    1  A    between atoms: C_1  and  N_2
REMARK    2  A    between atoms: C_4  and  C_5
REMARK    3  A    between atoms: C_5  and  O_6
REMARK    4  A    between atoms: C_5  and  C_7
REMARK    5  A    between atoms: C_11  and  C_12
REMARK    6  A    between atoms: C_12  and  O_14
REMARK    7  A    between atoms: C_15  and  C_16
REMARK    8  A    between atoms: C_16  and  C_17
REMARK    9  A    between atoms: C_16  and  C_18
REMARK   10  A    between atoms: C_16  and  C_19
REMARK                            x       y       z     vdW  Elec       q    Type
REMARK                         _______ _______ _______ _____ _____    ______ ____
ROOT
ATOM      1  C   UNL     1       6.159   4.929  17.791  0.00  0.00    +0.000 C 
ATOM      2  C   UNL     1       5.337   6.207  17.644  0.00  0.00    +0.000 C 
ATOM      3  O   UNL     1       5.489   7.398  17.797  0.00  0.00    +0.000 OA
ATOM      4  N   UNL     1       4.208   5.542  17.251  0.00  0.00    +0.000 N 
ATOM      5  C   UNL     1       3.145   5.513  18.142  0.00  0.00    +0.000 C 
ATOM      6  C   UNL     1       3.132   4.364  18.838  0.00  0.00    +0.000 C 
ATOM      7  O   UNL     1       4.155   3.461  18.428  0.00  0.00    +0.000 OA
ATOM      8  C   UNL     1       4.838   4.212  17.398  0.00  0.00    +0.000 C 
ENDROOT
BRANCH   6   9
ATOM      9  C   UNL     1       2.308   3.849  20.026  0.00  0.00    +0.000 C 
ATOM     10  C   UNL     1       0.926   3.384  19.539  0.00  0.00    +0.000 C 
ATOM     11  C   UNL     1       3.031   2.625  20.655  0.00  0.00    +0.000 C 
ATOM     12  C   UNL     1       2.135   4.853  21.183  0.00  0.00    +0.000 C 
ENDBRANCH   6   9
BRANCH   5  13
ATOM     13  C   UNL     1       2.231   6.699  18.198  0.00  0.00    +0.000 C 
ATOM     14  O   UNL     1       1.303   6.888  17.430  0.00  0.00    +0.000 OA
BRANCH  13  15
ATOM     15  O   UNL     1       2.565   7.609  19.144  0.00  0.00    +0.000 OA
ATOM     16  H   UNL     1       3.372   7.394  19.664  0.00  0.00    +0.000 HD
ENDBRANCH  13  15
ENDBRANCH   5  13
BRANCH   1  17
ATOM     17  C   UNL     1       7.397   4.914  16.916  0.00  0.00    +0.000 C 
BRANCH  17  21
ATOM     18  C   UNL     1       6.004   3.301  12.389  0.00  0.00    +0.000 C 
ATOM     19  N   UNL     1       6.486   4.053  13.517  0.00  0.00    +0.000 N 
ATOM     20  C   UNL     1       6.279   3.812  14.840  0.00  0.00    +0.000 A 
ATOM     21  C   UNL     1       7.079   4.742  15.471  0.00  0.00    +0.000 A 
ATOM     22  N   UNL     1       7.690   5.523  14.528  0.00  0.00    +0.000 NA
ATOM     23  N   UNL     1       7.324   5.086  13.334  0.00  0.00    +0.000 NA
ENDBRANCH  17  21
BRANCH  17  24
ATOM     24  O   UNL     1       8.275   3.896  17.407  0.00  0.00    +0.000 OA
ATOM     25  H   UNL     1       7.865   3.524  18.211  0.00  0.00    +0.000 HD
ENDBRANCH  17  24
ENDBRANCH   1  17
TORSDOF 6
ENDMDL
