MODEL 1
REMARK VINA RESULT:      -7.7      0.000      0.000
REMARK  Name = 
REMARK  12 active torsions:
REMARK  status: ('A' for Active; 'I' for Inactive)
REMARK    1  A    between atoms: C_1  and  O_2
REMARK    2  A    between atoms: O_2  and  C_3
REMARK    3  A    between atoms: C_6  and  C_7
REMARK    4  A    between atoms: C_7  and  N_8
REMARK    5  A    between atoms: C_9  and  C_11
REMARK    6  A    between atoms: C_11  and  N_12
REMARK    7  A    between atoms: C_11  and  C_16
REMARK    8  A    between atoms: C_13  and  C_14
REMARK    9  A    between atoms: N_18  and  C_19
REMARK   10  A    between atoms: C_22  and  C_23
REMARK   11  A    between atoms: C_23  and  C_24
REMARK   12  A    between atoms: C_23  and  C_25
REMARK                            x       y       z     vdW  Elec       q    Type
REMARK                         _______ _______ _______ _____ _____    ______ ____
ROOT
ATOM      1  C   UNL     1       3.114   3.785  18.882  0.00  0.00    +0.000 C 
ENDROOT
BRANCH   1   2
ATOM      2  N   UNL     1       2.858   3.351  20.261  0.00  0.00    +0.000 N 
ATOM      3  C   UNL     1       1.654   2.832  20.651  0.00  0.00    +0.000 C 
ATOM      4  C   UNL     1       1.579   2.413  22.094  0.00  0.00    +0.000 C 
ATOM      5  O   UNL     1       0.679   2.809  19.906  0.00  0.00    +0.000 OA
ATOM      6  H   UNL     1       3.636   3.376  20.909  0.00  0.00    +0.000 HD
ENDBRANCH   1   2
BRANCH   1   8
ATOM      7  N   UNL     1       5.086   4.440  17.517  0.00  0.00    +0.000 N 
ATOM      8  C   UNL     1       4.656   3.835  18.684  0.00  0.00    +0.000 C 
ATOM      9  O   UNL     1       5.434   3.521  19.585  0.00  0.00    +0.000 OA
ATOM     10  H   UNL     1       4.440   4.357  16.732  0.00  0.00    +0.000 HD
BRANCH   7  11
ATOM     11  C   UNL     1       6.478   4.513  17.135  0.00  0.00    +0.000 C 
BRANCH  11  15
ATOM     12  C   UNL     1       8.280   8.213  18.492  0.00  0.00    +0.000 A 
ATOM     13  C   UNL     1       8.495   7.020  19.179  0.00  0.00    +0.000 A 
ATOM     14  C   UNL     1       7.917   5.826  18.736  0.00  0.00    +0.000 A 
ATOM     15  C   UNL     1       7.098   5.808  17.600  0.00  0.00    +0.000 A 
ATOM     16  C   UNL     1       6.868   7.017  16.925  0.00  0.00    +0.000 A 
ATOM     17  C   UNL     1       7.453   8.213  17.369  0.00  0.00    +0.000 A 
BRANCH  12  19
ATOM     18  C   UNL     1       9.278  10.328  18.119  0.00  0.00    +0.000 C 
ATOM     19  O   UNL     1       8.881   9.315  19.036  0.00  0.00    +0.000 OA
ENDBRANCH  12  19
ENDBRANCH  11  15
ENDBRANCH   7  11
ENDBRANCH   1   8
BRANCH   1  20
ATOM     20  C   UNL     1       2.426   5.126  18.555  0.00  0.00    +0.000 C 
ATOM     21  O   UNL     1       1.531   5.156  17.706  0.00  0.00    +0.000 OA
ATOM     22  N   UNL     1       2.851   6.234  19.271  0.00  0.00    +0.000 N 
ATOM     23  H   UNL     1       3.637   6.107  19.905  0.00  0.00    +0.000 HD
BRANCH  22  24
ATOM     24  C   UNL     1       2.289   7.528  19.167  0.00  0.00    +0.000 A 
ATOM     25  C   UNL     1       2.409   8.318  18.021  0.00  0.00    +0.000 A 
ATOM     26  C   UNL     1       1.821   9.580  17.941  0.00  0.00    +0.000 A 
ATOM     27  C   UNL     1       1.084  10.094  19.007  0.00  0.00    +0.000 A 
ATOM     28  C   UNL     1       0.981   9.320  20.173  0.00  0.00    +0.000 A 
ATOM     29  C   UNL     1       1.569   8.045  20.251  0.00  0.00    +0.000 A 
BRANCH  27  30
ATOM     30  C   UNL     1       0.384  11.431  18.833  0.00  0.00    +0.000 C 
ATOM     31  C   UNL     1      -0.532  11.724  20.022  0.00  0.00    +0.000 C 
ATOM     32  C   UNL     1       1.353  12.579  18.574  0.00  0.00    +0.000 C 
ENDBRANCH  27  30
ENDBRANCH  22  24
ENDBRANCH   1  20
TORSDOF 8
ENDMDL
MODEL 2
REMARK VINA RESULT:      -7.6      0.429      1.327
REMARK  Name = 
REMARK  12 active torsions:
REMARK  status: ('A' for Active; 'I' for Inactive)
REMARK    1  A    between atoms: C_1  and  O_2
REMARK    2  A    between atoms: O_2  and  C_3
REMARK    3  A    between atoms: C_6  and  C_7
REMARK    4  A    between atoms: C_7  and  N_8
REMARK    5  A    between atoms: C_9  and  C_11
REMARK    6  A    between atoms: C_11  and  N_12
REMARK    7  A    between atoms: C_11  and  C_16
REMARK    8  A    between atoms: C_13  and  C_14
REMARK    9  A    between atoms: N_18  and  C_19
REMARK   10  A    between atoms: C_22  and  C_23
REMARK   11  A    between atoms: C_23  and  C_24
REMARK   12  A    between atoms: C_23  and  C_25
REMARK                            x       y       z     vdW  Elec       q    Type
REMARK                         _______ _______ _______ _____ _____    ______ ____
ROOT
ATOM      1  C   UNL     1       3.087   3.771  18.929  0.00  0.00    +0.000 C 
ENDROOT
BRANCH   1   2
ATOM      2  N   UNL     1       2.738   3.330  20.285  0.00  0.00    +0.000 N 
ATOM      3  C   UNL     1       1.513   2.800  20.588  0.00  0.00    +0.000 C 
ATOM      4  C   UNL     1       1.339   2.376  22.020  0.00  0.00    +0.000 C 
ATOM      5  O   UNL     1       0.594   2.771  19.774  0.00  0.00    +0.000 OA
ATOM      6  H   UNL     1       3.467   3.360  20.988  0.00  0.00    +0.000 HD
ENDBRANCH   1   2
BRANCH   1   8
ATOM      7  N   UNL     1       5.156   4.470  17.741  0.00  0.00    +0.000 N 
ATOM      8  C   UNL     1       4.640   3.789  18.828  0.00  0.00    +0.000 C 
ATOM      9  O   UNL     1       5.353   3.382  19.745  0.00  0.00    +0.000 OA
ATOM     10  H   UNL     1       4.558   4.469  16.915  0.00  0.00    +0.000 HD
BRANCH   7  11
ATOM     11  C   UNL     1       6.570   4.530  17.449  0.00  0.00    +0.000 C 
BRANCH  11  15
ATOM     12  C   UNL     1       8.115   8.515  18.170  0.00  0.00    +0.000 A 
ATOM     13  C   UNL     1       7.256   8.264  17.101  0.00  0.00    +0.000 A 
ATOM     14  C   UNL     1       6.756   6.979  16.873  0.00  0.00    +0.000 A 
ATOM     15  C   UNL     1       7.117   5.914  17.709  0.00  0.00    +0.000 A 
ATOM     16  C   UNL     1       7.998   6.169  18.770  0.00  0.00    +0.000 A 
ATOM     17  C   UNL     1       8.496   7.460  18.999  0.00  0.00    +0.000 A 
BRANCH  12  19
ATOM     18  C   UNL     1       9.252  10.136  19.470  0.00  0.00    +0.000 C 
ATOM     19  O   UNL     1       8.554   9.806  18.274  0.00  0.00    +0.000 OA
ENDBRANCH  12  19
ENDBRANCH  11  15
ENDBRANCH   7  11
ENDBRANCH   1   8
BRANCH   1  20
ATOM     20  C   UNL     1       2.450   5.129  18.574  0.00  0.00    +0.000 C 
ATOM     21  O   UNL     1       1.669   5.201  17.622  0.00  0.00    +0.000 OA
ATOM     22  N   UNL     1       2.784   6.204  19.383  0.00  0.00    +0.000 N 
ATOM     23  H   UNL     1       3.483   6.046  20.106  0.00  0.00    +0.000 HD
BRANCH  22  24
ATOM     24  C   UNL     1       2.243   7.506  19.263  0.00  0.00    +0.000 A 
ATOM     25  C   UNL     1       1.509   8.119  20.282  0.00  0.00    +0.000 A 
ATOM     26  C   UNL     1       1.011   9.414  20.143  0.00  0.00    +0.000 A 
ATOM     27  C   UNL     1       1.236  10.145  18.977  0.00  0.00    +0.000 A 
ATOM     28  C   UNL     1       1.948   9.527  17.937  0.00  0.00    +0.000 A 
ATOM     29  C   UNL     1       2.455   8.224  18.081  0.00  0.00    +0.000 A 
BRANCH  27  30
ATOM     30  C   UNL     1       0.755  11.584  18.914  0.00  0.00    +0.000 C 
ATOM     31  C   UNL     1       0.291  12.065  20.289  0.00  0.00    +0.000 C 
ATOM     32  C   UNL     1       1.788  12.528  18.308  0.00  0.00    +0.000 C 
ENDBRANCH  27  30
ENDBRANCH  22  24
ENDBRANCH   1  20
TORSDOF 8
ENDMDL
MODEL 3
REMARK VINA RESULT:      -7.4      2.698      7.342
REMARK  Name = 
REMARK  12 active torsions:
REMARK  status: ('A' for Active; 'I' for Inactive)
REMARK    1  A    between atoms: C_1  and  O_2
REMARK    2  A    between atoms: O_2  and  C_3
REMARK    3  A    between atoms: C_6  and  C_7
REMARK    4  A    between atoms: C_7  and  N_8
REMARK    5  A    between atoms: C_9  and  C_11
REMARK    6  A    between atoms: C_11  and  N_12
REMARK    7  A    between atoms: C_11  and  C_16
REMARK    8  A    between atoms: C_13  and  C_14
REMARK    9  A    between atoms: N_18  and  C_19
REMARK   10  A    between atoms: C_22  and  C_23
REMARK   11  A    between atoms: C_23  and  C_24
REMARK   12  A    between atoms: C_23  and  C_25
REMARK                            x       y       z     vdW  Elec       q    Type
REMARK                         _______ _______ _______ _____ _____    ______ ____
ROOT
ATOM      1  C   UNL     1       7.516   6.540  17.733  0.00  0.00    +0.000 C 
ENDROOT
BRANCH   1   2
ATOM      2  N   UNL     1       7.212   6.195  16.338  0.00  0.00    +0.000 N 
ATOM      3  C   UNL     1       7.342   4.921  15.857  0.00  0.00    +0.000 C 
ATOM      4  C   UNL     1       6.959   4.744  14.413  0.00  0.00    +0.000 C 
ATOM      5  O   UNL     1       7.833   4.016  16.525  0.00  0.00    +0.000 OA
ATOM      6  H   UNL     1       6.823   6.924  15.751  0.00  0.00    +0.000 HD
ENDBRANCH   1   2
BRANCH   1   8
ATOM      7  N   UNL     1       5.109   6.036  18.094  0.00  0.00    +0.000 N 
ATOM      8  C   UNL     1       6.384   5.947  18.620  0.00  0.00    +0.000 C 
ATOM      9  O   UNL     1       6.632   5.287  19.629  0.00  0.00    +0.000 OA
ATOM     10  H   UNL     1       4.956   6.839  17.483  0.00  0.00    +0.000 HD
BRANCH   7  11
ATOM     11  C   UNL     1       3.930   5.602  18.809  0.00  0.00    +0.000 C 
BRANCH  11  15
ATOM     12  C   UNL     1       1.250   8.936  19.503  0.00  0.00    +0.000 A 
ATOM     13  C   UNL     1       1.890   8.778  18.275  0.00  0.00    +0.000 A 
ATOM     14  C   UNL     1       2.750   7.699  18.052  0.00  0.00    +0.000 A 
ATOM     15  C   UNL     1       2.996   6.762  19.063  0.00  0.00    +0.000 A 
ATOM     16  C   UNL     1       2.365   6.939  20.304  0.00  0.00    +0.000 A 
ATOM     17  C   UNL     1       1.499   8.020  20.524  0.00  0.00    +0.000 A 
BRANCH  12  19
ATOM     18  C   UNL     1       0.057  10.646  18.379  0.00  0.00    +0.000 C 
ATOM     19  O   UNL     1       0.452  10.042  19.606  0.00  0.00    +0.000 OA
ENDBRANCH  12  19
ENDBRANCH  11  15
ENDBRANCH   7  11
ENDBRANCH   1   8
BRANCH   1  20
ATOM     20  C   UNL     1       7.699   8.058  17.932  0.00  0.00    +0.000 C 
ATOM     21  O   UNL     1       6.862   8.834  17.465  0.00  0.00    +0.000 OA
ATOM     22  N   UNL     1       8.806   8.460  18.663  0.00  0.00    +0.000 N 
ATOM     23  H   UNL     1       9.463   7.739  18.952  0.00  0.00    +0.000 HD
BRANCH  22  24
ATOM     24  C   UNL     1       9.099   9.799  19.016  0.00  0.00    +0.000 A 
ATOM     25  C   UNL     1       9.080  10.257  20.336  0.00  0.00    +0.000 A 
ATOM     26  C   UNL     1       9.400  11.577  20.653  0.00  0.00    +0.000 A 
ATOM     27  C   UNL     1       9.756  12.485  19.657  0.00  0.00    +0.000 A 
ATOM     28  C   UNL     1       9.751  12.042  18.325  0.00  0.00    +0.000 A 
ATOM     29  C   UNL     1       9.434  10.709  18.007  0.00  0.00    +0.000 A 
BRANCH  27  30
ATOM     30  C   UNL     1      10.188  13.884  20.065  0.00  0.00    +0.000 C 
ATOM     31  C   UNL     1       9.885  14.138  21.542  0.00  0.00    +0.000 C 
ATOM     32  C   UNL     1      11.648  14.174  19.733  0.00  0.00    +0.000 C 
ENDBRANCH  27  30
ENDBRANCH  22  24
ENDBRANCH   1  20
TORSDOF 8
ENDMDL
MODEL 4
REMARK VINA RESULT:      -7.4      2.637      4.029
REMARK  Name = 
REMARK  12 active torsions:
REMARK  status: ('A' for Active; 'I' for Inactive)
REMARK    1  A    between atoms: C_1  and  O_2
REMARK    2  A    between atoms: O_2  and  C_3
REMARK    3  A    between atoms: C_6  and  C_7
REMARK    4  A    between atoms: C_7  and  N_8
REMARK    5  A    between atoms: C_9  and  C_11
REMARK    6  A    between atoms: C_11  and  N_12
REMARK    7  A    between atoms: C_11  and  C_16
REMARK    8  A    between atoms: C_13  and  C_14
REMARK    9  A    between atoms: N_18  and  C_19
REMARK   10  A    between atoms: C_22  and  C_23
REMARK   11  A    between atoms: C_23  and  C_24
REMARK   12  A    between atoms: C_23  and  C_25
REMARK                            x       y       z     vdW  Elec       q    Type
REMARK                         _______ _______ _______ _____ _____    ______ ____
ROOT
ATOM      1  C   UNL     1       3.030   5.558  19.257  0.00  0.00    +0.000 C 
ENDROOT
BRANCH   1   2
ATOM      2  N   UNL     1       2.824   4.754  20.468  0.00  0.00    +0.000 N 
ATOM      3  C   UNL     1       1.928   3.721  20.514  0.00  0.00    +0.000 C 
ATOM      4  C   UNL     1       1.868   2.989  21.826  0.00  0.00    +0.000 C 
ATOM      5  O   UNL     1       1.160   3.479  19.587  0.00  0.00    +0.000 OA
ATOM      6  H   UNL     1       3.427   4.940  21.260  0.00  0.00    +0.000 HD
ENDBRANCH   1   2
BRANCH   1   8
ATOM      7  N   UNL     1       4.898   6.053  17.693  0.00  0.00    +0.000 N 
ATOM      8  C   UNL     1       4.547   5.510  18.916  0.00  0.00    +0.000 C 
ATOM      9  O   UNL     1       5.389   5.179  19.751  0.00  0.00    +0.000 OA
ATOM     10  H   UNL     1       4.177   5.984  16.974  0.00  0.00    +0.000 HD
BRANCH   7  11
ATOM     11  C   UNL     1       6.250   6.031  17.181  0.00  0.00    +0.000 C 
BRANCH  11  15
ATOM     12  C   UNL     1       6.389   3.994  13.359  0.00  0.00    +0.000 A 
ATOM     13  C   UNL     1       5.327   3.790  14.238  0.00  0.00    +0.000 A 
ATOM     14  C   UNL     1       5.283   4.452  15.469  0.00  0.00    +0.000 A 
ATOM     15  C   UNL     1       6.310   5.325  15.848  0.00  0.00    +0.000 A 
ATOM     16  C   UNL     1       7.387   5.509  14.966  0.00  0.00    +0.000 A 
ATOM     17  C   UNL     1       7.428   4.847  13.730  0.00  0.00    +0.000 A 
BRANCH  12  19
ATOM     18  C   UNL     1       5.026   2.971  11.713  0.00  0.00    +0.000 C 
ATOM     19  O   UNL     1       6.330   3.273  12.198  0.00  0.00    +0.000 OA
ENDBRANCH  12  19
ENDBRANCH  11  15
ENDBRANCH   7  11
ENDBRANCH   1   8
BRANCH   1  20
ATOM     20  C   UNL     1       2.498   6.997  19.413  0.00  0.00    +0.000 C 
ATOM     21  O   UNL     1       2.686   7.813  18.507  0.00  0.00    +0.000 OA
ATOM     22  N   UNL     1       1.804   7.280  20.578  0.00  0.00    +0.000 N 
ATOM     23  H   UNL     1       1.757   6.548  21.284  0.00  0.00    +0.000 HD
BRANCH  22  24
ATOM     24  C   UNL     1       1.176   8.515  20.866  0.00  0.00    +0.000 A 
ATOM     25  C   UNL     1       0.733   9.391  19.871  0.00  0.00    +0.000 A 
ATOM     26  C   UNL     1       0.094  10.589  20.188  0.00  0.00    +0.000 A 
ATOM     27  C   UNL     1      -0.130  10.951  21.515  0.00  0.00    +0.000 A 
ATOM     28  C   UNL     1       0.336  10.091  22.523  0.00  0.00    +0.000 A 
ATOM     29  C   UNL     1       0.975   8.880  22.202  0.00  0.00    +0.000 A 
BRANCH  27  30
ATOM     30  C   UNL     1      -0.915  12.219  21.804  0.00  0.00    +0.000 C 
ATOM     31  C   UNL     1      -1.898  12.520  20.673  0.00  0.00    +0.000 C 
ATOM     32  C   UNL     1      -1.611  12.189  23.160  0.00  0.00    +0.000 C 
ENDBRANCH  27  30
ENDBRANCH  22  24
ENDBRANCH   1  20
TORSDOF 8
ENDMDL
MODEL 5
REMARK VINA RESULT:      -7.4      2.722      7.217
REMARK  Name = 
REMARK  12 active torsions:
REMARK  status: ('A' for Active; 'I' for Inactive)
REMARK    1  A    between atoms: C_1  and  O_2
REMARK    2  A    between atoms: O_2  and  C_3
REMARK    3  A    between atoms: C_6  and  C_7
REMARK    4  A    between atoms: C_7  and  N_8
REMARK    5  A    between atoms: C_9  and  C_11
REMARK    6  A    between atoms: C_11  and  N_12
REMARK    7  A    between atoms: C_11  and  C_16
REMARK    8  A    between atoms: C_13  and  C_14
REMARK    9  A    between atoms: N_18  and  C_19
REMARK   10  A    between atoms: C_22  and  C_23
REMARK   11  A    between atoms: C_23  and  C_24
REMARK   12  A    between atoms: C_23  and  C_25
REMARK                            x       y       z     vdW  Elec       q    Type
REMARK                         _______ _______ _______ _____ _____    ______ ____
ROOT
ATOM      1  C   UNL     1       7.381   6.641  17.570  0.00  0.00    +0.000 C 
ENDROOT
BRANCH   1   2
ATOM      2  N   UNL     1       7.162   6.251  16.171  0.00  0.00    +0.000 N 
ATOM      3  C   UNL     1       7.352   4.969  15.732  0.00  0.00    +0.000 C 
ATOM      4  C   UNL     1       7.054   4.744  14.276  0.00  0.00    +0.000 C 
ATOM      5  O   UNL     1       7.831   4.096  16.451  0.00  0.00    +0.000 OA
ATOM      6  H   UNL     1       6.787   6.953  15.544  0.00  0.00    +0.000 HD
ENDBRANCH   1   2
BRANCH   1   8
ATOM      7  N   UNL     1       4.931   6.314  17.830  0.00  0.00    +0.000 N 
ATOM      8  C   UNL     1       6.175   6.111  18.398  0.00  0.00    +0.000 C 
ATOM      9  O   UNL     1       6.334   5.405  19.394  0.00  0.00    +0.000 OA
ATOM     10  H   UNL     1       4.862   7.143  17.240  0.00  0.00    +0.000 HD
BRANCH   7  11
ATOM     11  C   UNL     1       3.696   5.951  18.489  0.00  0.00    +0.000 C 
BRANCH  11  15
ATOM     12  C   UNL     1       1.192   9.440  19.069  0.00  0.00    +0.000 A 
ATOM     13  C   UNL     1       1.857   9.231  17.863  0.00  0.00    +0.000 A 
ATOM     14  C   UNL     1       2.661   8.102  17.677  0.00  0.00    +0.000 A 
ATOM     15  C   UNL     1       2.823   7.165  18.704  0.00  0.00    +0.000 A 
ATOM     16  C   UNL     1       2.167   7.392  19.923  0.00  0.00    +0.000 A 
ATOM     17  C   UNL     1       1.358   8.523  20.106  0.00  0.00    +0.000 A 
BRANCH  12  19
ATOM     18  C   UNL     1      -0.590  10.610  20.102  0.00  0.00    +0.000 C 
ATOM     19  O   UNL     1       0.455  10.591  19.136  0.00  0.00    +0.000 OA
ENDBRANCH  12  19
ENDBRANCH  11  15
ENDBRANCH   7  11
ENDBRANCH   1   8
BRANCH   1  20
ATOM     20  C   UNL     1       7.593   8.159  17.727  0.00  0.00    +0.000 C 
ATOM     21  O   UNL     1       6.798   8.939  17.197  0.00  0.00    +0.000 OA
ATOM     22  N   UNL     1       8.676   8.560  18.493  0.00  0.00    +0.000 N 
ATOM     23  H   UNL     1       9.301   7.834  18.835  0.00  0.00    +0.000 HD
BRANCH  22  24
ATOM     24  C   UNL     1       8.987   9.903  18.814  0.00  0.00    +0.000 A 
ATOM     25  C   UNL     1       8.922  10.941  17.880  0.00  0.00    +0.000 A 
ATOM     26  C   UNL     1       9.211  12.258  18.235  0.00  0.00    +0.000 A 
ATOM     27  C   UNL     1       9.569  12.585  19.542  0.00  0.00    +0.000 A 
ATOM     28  C   UNL     1       9.664  11.545  20.480  0.00  0.00    +0.000 A 
ATOM     29  C   UNL     1       9.368  10.218  20.124  0.00  0.00    +0.000 A 
BRANCH  27  30
ATOM     30  C   UNL     1       9.778  14.047  19.898  0.00  0.00    +0.000 C 
ATOM     31  C   UNL     1       8.714  14.925  19.239  0.00  0.00    +0.000 C 
ATOM     32  C   UNL     1       9.852  14.286  21.402  0.00  0.00    +0.000 C 
ENDBRANCH  27  30
ENDBRANCH  22  24
ENDBRANCH   1  20
TORSDOF 8
ENDMDL
MODEL 6
REMARK VINA RESULT:      -7.2      2.694      4.069
REMARK  Name = 
REMARK  12 active torsions:
REMARK  status: ('A' for Active; 'I' for Inactive)
REMARK    1  A    between atoms: C_1  and  O_2
REMARK    2  A    between atoms: O_2  and  C_3
REMARK    3  A    between atoms: C_6  and  C_7
REMARK    4  A    between atoms: C_7  and  N_8
REMARK    5  A    between atoms: C_9  and  C_11
REMARK    6  A    between atoms: C_11  and  N_12
REMARK    7  A    between atoms: C_11  and  C_16
REMARK    8  A    between atoms: C_13  and  C_14
REMARK    9  A    between atoms: N_18  and  C_19
REMARK   10  A    between atoms: C_22  and  C_23
REMARK   11  A    between atoms: C_23  and  C_24
REMARK   12  A    between atoms: C_23  and  C_25
REMARK                            x       y       z     vdW  Elec       q    Type
REMARK                         _______ _______ _______ _____ _____    ______ ____
ROOT
ATOM      1  C   UNL     1       2.710   5.804  19.463  0.00  0.00    +0.000 C 
ENDROOT
BRANCH   1   2
ATOM      2  N   UNL     1       2.513   4.948  20.639  0.00  0.00    +0.000 N 
ATOM      3  C   UNL     1       1.852   3.752  20.570  0.00  0.00    +0.000 C 
ATOM      4  C   UNL     1       1.768   2.995  21.866  0.00  0.00    +0.000 C 
ATOM      5  O   UNL     1       1.281   3.379  19.549  0.00  0.00    +0.000 OA
ATOM      6  H   UNL     1       2.953   5.237  21.505  0.00  0.00    +0.000 HD
ENDBRANCH   1   2
BRANCH   1   8
ATOM      7  N   UNL     1       4.568   6.369  17.911  0.00  0.00    +0.000 N 
ATOM      8  C   UNL     1       4.226   5.776  19.112  0.00  0.00    +0.000 C 
ATOM      9  O   UNL     1       5.073   5.414  19.929  0.00  0.00    +0.000 OA
ATOM     10  H   UNL     1       3.843   6.327  17.194  0.00  0.00    +0.000 HD
BRANCH   7  11
ATOM     11  C   UNL     1       5.917   6.374  17.391  0.00  0.00    +0.000 C 
BRANCH  11  15
ATOM     12  C   UNL     1       6.233   3.981  13.792  0.00  0.00    +0.000 A 
ATOM     13  C   UNL     1       7.183   4.958  14.085  0.00  0.00    +0.000 A 
ATOM     14  C   UNL     1       7.081   5.726  15.250  0.00  0.00    +0.000 A 
ATOM     15  C   UNL     1       6.015   5.536  16.138  0.00  0.00    +0.000 A 
ATOM     16  C   UNL     1       5.051   4.565  15.825  0.00  0.00    +0.000 A 
ATOM     17  C   UNL     1       5.158   3.794  14.659  0.00  0.00    +0.000 A 
BRANCH  12  19
ATOM     18  C   UNL     1       5.281   3.144  11.791  0.00  0.00    +0.000 C 
ATOM     19  O   UNL     1       6.430   3.314  12.614  0.00  0.00    +0.000 OA
ENDBRANCH  12  19
ENDBRANCH  11  15
ENDBRANCH   7  11
ENDBRANCH   1   8
BRANCH   1  20
ATOM     20  C   UNL     1       2.174   7.232  19.683  0.00  0.00    +0.000 C 
ATOM     21  O   UNL     1       2.374   8.093  18.822  0.00  0.00    +0.000 OA
ATOM     22  N   UNL     1       1.462   7.456  20.851  0.00  0.00    +0.000 N 
ATOM     23  H   UNL     1       1.407   6.691  21.519  0.00  0.00    +0.000 HD
BRANCH  22  24
ATOM     24  C   UNL     1       0.829   8.675  21.191  0.00  0.00    +0.000 A 
ATOM     25  C   UNL     1       0.865   9.804  20.368  0.00  0.00    +0.000 A 
ATOM     26  C   UNL     1       0.208  10.983  20.720  0.00  0.00    +0.000 A 
ATOM     27  C   UNL     1      -0.515  11.071  21.908  0.00  0.00    +0.000 A 
ATOM     28  C   UNL     1      -0.534   9.951  22.755  0.00  0.00    +0.000 A 
ATOM     29  C   UNL     1       0.123   8.761  22.397  0.00  0.00    +0.000 A 
BRANCH  27  30
ATOM     30  C   UNL     1      -1.291  12.344  22.199  0.00  0.00    +0.000 C 
ATOM     31  C   UNL     1      -2.250  12.142  23.372  0.00  0.00    +0.000 C 
ATOM     32  C   UNL     1      -0.387  13.554  22.414  0.00  0.00    +0.000 C 
ENDBRANCH  27  30
ENDBRANCH  22  24
ENDBRANCH   1  20
TORSDOF 8
ENDMDL
MODEL 7
REMARK VINA RESULT:      -7.2      2.513      4.007
REMARK  Name = 
REMARK  12 active torsions:
REMARK  status: ('A' for Active; 'I' for Inactive)
REMARK    1  A    between atoms: C_1  and  O_2
REMARK    2  A    between atoms: O_2  and  C_3
REMARK    3  A    between atoms: C_6  and  C_7
REMARK    4  A    between atoms: C_7  and  N_8
REMARK    5  A    between atoms: C_9  and  C_11
REMARK    6  A    between atoms: C_11  and  N_12
REMARK    7  A    between atoms: C_11  and  C_16
REMARK    8  A    between atoms: C_13  and  C_14
REMARK    9  A    between atoms: N_18  and  C_19
REMARK   10  A    between atoms: C_22  and  C_23
REMARK   11  A    between atoms: C_23  and  C_24
REMARK   12  A    between atoms: C_23  and  C_25
REMARK                            x       y       z     vdW  Elec       q    Type
REMARK                         _______ _______ _______ _____ _____    ______ ____
ROOT
ATOM      1  C   UNL     1       2.553   6.361  19.047  0.00  0.00    +0.000 C 
ENDROOT
BRANCH   1   2
ATOM      2  N   UNL     1       2.675   5.527  20.249  0.00  0.00    +0.000 N 
ATOM      3  C   UNL     1       1.924   4.399  20.434  0.00  0.00    +0.000 C 
ATOM      4  C   UNL     1       2.200   3.653  21.710  0.00  0.00    +0.000 C 
ATOM      5  O   UNL     1       1.021   4.081  19.666  0.00  0.00    +0.000 OA
ATOM      6  H   UNL     1       3.397   5.773  20.916  0.00  0.00    +0.000 HD
ENDBRANCH   1   2
BRANCH   1   8
ATOM      7  N   UNL     1       4.799   5.369  18.661  0.00  0.00    +0.000 N 
ATOM      8  C   UNL     1       3.957   6.429  18.379  0.00  0.00    +0.000 C 
ATOM      9  O   UNL     1       4.226   7.271  17.523  0.00  0.00    +0.000 OA
ATOM     10  H   UNL     1       4.652   4.939  19.574  0.00  0.00    +0.000 HD
BRANCH   7  11
ATOM     11  C   UNL     1       6.163   5.300  18.186  0.00  0.00    +0.000 C 
BRANCH  11  15
ATOM     12  C   UNL     1       6.332   4.005  14.054  0.00  0.00    +0.000 A 
ATOM     13  C   UNL     1       7.236   4.946  14.545  0.00  0.00    +0.000 A 
ATOM     14  C   UNL     1       7.182   5.358  15.880  0.00  0.00    +0.000 A 
ATOM     15  C   UNL     1       6.211   4.843  16.747  0.00  0.00    +0.000 A 
ATOM     16  C   UNL     1       5.291   3.912  16.241  0.00  0.00    +0.000 A 
ATOM     17  C   UNL     1       5.349   3.497  14.902  0.00  0.00    +0.000 A 
BRANCH  12  19
ATOM     18  C   UNL     1       5.297   3.254  12.060  0.00  0.00    +0.000 C 
ATOM     19  O   UNL     1       6.472   3.700  12.728  0.00  0.00    +0.000 OA
ENDBRANCH  12  19
ENDBRANCH  11  15
ENDBRANCH   7  11
ENDBRANCH   1   8
BRANCH   1  20
ATOM     20  C   UNL     1       1.971   7.754  19.358  0.00  0.00    +0.000 C 
ATOM     21  O   UNL     1       1.762   8.074  20.530  0.00  0.00    +0.000 OA
ATOM     22  N   UNL     1       1.737   8.587  18.275  0.00  0.00    +0.000 N 
ATOM     23  H   UNL     1       1.890   8.200  17.346  0.00  0.00    +0.000 HD
BRANCH  22  24
ATOM     24  C   UNL     1       1.282   9.923  18.366  0.00  0.00    +0.000 A 
ATOM     25  C   UNL     1      -0.063  10.256  18.553  0.00  0.00    +0.000 A 
ATOM     26  C   UNL     1      -0.476  11.583  18.664  0.00  0.00    +0.000 A 
ATOM     27  C   UNL     1       0.445  12.626  18.598  0.00  0.00    +0.000 A 
ATOM     28  C   UNL     1       1.795  12.305  18.383  0.00  0.00    +0.000 A 
ATOM     29  C   UNL     1       2.212  10.966  18.276  0.00  0.00    +0.000 A 
BRANCH  27  30
ATOM     30  C   UNL     1      -0.044  14.047  18.822  0.00  0.00    +0.000 C 
ATOM     31  C   UNL     1      -0.980  14.118  20.029  0.00  0.00    +0.000 C 
ATOM     32  C   UNL     1       1.095  15.055  18.934  0.00  0.00    +0.000 C 
ENDBRANCH  27  30
ENDBRANCH  22  24
ENDBRANCH   1  20
TORSDOF 8
ENDMDL
MODEL 8
REMARK VINA RESULT:      -7.2      2.500      3.928
REMARK  Name = 
REMARK  12 active torsions:
REMARK  status: ('A' for Active; 'I' for Inactive)
REMARK    1  A    between atoms: C_1  and  O_2
REMARK    2  A    between atoms: O_2  and  C_3
REMARK    3  A    between atoms: C_6  and  C_7
REMARK    4  A    between atoms: C_7  and  N_8
REMARK    5  A    between atoms: C_9  and  C_11
REMARK    6  A    between atoms: C_11  and  N_12
REMARK    7  A    between atoms: C_11  and  C_16
REMARK    8  A    between atoms: C_13  and  C_14
REMARK    9  A    between atoms: N_18  and  C_19
REMARK   10  A    between atoms: C_22  and  C_23
REMARK   11  A    between atoms: C_23  and  C_24
REMARK   12  A    between atoms: C_23  and  C_25
REMARK                            x       y       z     vdW  Elec       q    Type
REMARK                         _______ _______ _______ _____ _____    ______ ____
ROOT
ATOM      1  C   UNL     1       2.976   4.933  19.107  0.00  0.00    +0.000 C 
ENDROOT
BRANCH   1   2
ATOM      2  N   UNL     1       2.700   4.198  20.347  0.00  0.00    +0.000 N 
ATOM      3  C   UNL     1       1.754   3.212  20.417  0.00  0.00    +0.000 C 
ATOM      4  C   UNL     1       1.625   2.547  21.759  0.00  0.00    +0.000 C 
ATOM      5  O   UNL     1       0.999   2.964  19.482  0.00  0.00    +0.000 OA
ATOM      6  H   UNL     1       3.292   4.393  21.147  0.00  0.00    +0.000 HD
ENDBRANCH   1   2
BRANCH   1   8
ATOM      7  N   UNL     1       4.979   5.584  17.787  0.00  0.00    +0.000 N 
ATOM      8  C   UNL     1       4.491   4.772  18.794  0.00  0.00    +0.000 C 
ATOM      9  O   UNL     1       5.233   4.102  19.513  0.00  0.00    +0.000 OA
ATOM     10  H   UNL     1       4.298   5.824  17.066  0.00  0.00    +0.000 HD
BRANCH   7  11
ATOM     11  C   UNL     1       6.344   5.520  17.315  0.00  0.00    +0.000 C 
BRANCH  11  15
ATOM     12  C   UNL     1       6.467   4.094  13.225  0.00  0.00    +0.000 A 
ATOM     13  C   UNL     1       5.389   3.790  14.055  0.00  0.00    +0.000 A 
ATOM     14  C   UNL     1       5.350   4.255  15.373  0.00  0.00    +0.000 A 
ATOM     15  C   UNL     1       6.399   5.026  15.889  0.00  0.00    +0.000 A 
ATOM     16  C   UNL     1       7.491   5.310  15.054  0.00  0.00    +0.000 A 
ATOM     17  C   UNL     1       7.526   4.846  13.731  0.00  0.00    +0.000 A 
BRANCH  12  19
ATOM     18  C   UNL     1       5.396   2.576  11.755  0.00  0.00    +0.000 C 
ATOM     19  O   UNL     1       6.400   3.562  11.966  0.00  0.00    +0.000 OA
ENDBRANCH  12  19
ENDBRANCH  11  15
ENDBRANCH   7  11
ENDBRANCH   1   8
BRANCH   1  20
ATOM     20  C   UNL     1       2.537   6.408  19.192  0.00  0.00    +0.000 C 
ATOM     21  O   UNL     1       2.658   7.133  18.202  0.00  0.00    +0.000 OA
ATOM     22  N   UNL     1       1.998   6.828  20.397  0.00  0.00    +0.000 N 
ATOM     23  H   UNL     1       1.998   6.162  21.167  0.00  0.00    +0.000 HD
BRANCH  22  24
ATOM     24  C   UNL     1       1.470   8.118  20.642  0.00  0.00    +0.000 A 
ATOM     25  C   UNL     1       1.146   8.576  21.922  0.00  0.00    +0.000 A 
ATOM     26  C   UNL     1       0.651   9.863  22.132  0.00  0.00    +0.000 A 
ATOM     27  C   UNL     1       0.468  10.741  21.065  0.00  0.00    +0.000 A 
ATOM     28  C   UNL     1       0.764  10.281  19.772  0.00  0.00    +0.000 A 
ATOM     29  C   UNL     1       1.268   8.986  19.561  0.00  0.00    +0.000 A 
BRANCH  27  30
ATOM     30  C   UNL     1       0.018  12.162  21.358  0.00  0.00    +0.000 C 
ATOM     31  C   UNL     1      -0.539  12.827  20.099  0.00  0.00    +0.000 C 
ATOM     32  C   UNL     1      -0.966  12.245  22.520  0.00  0.00    +0.000 C 
ENDBRANCH  27  30
ENDBRANCH  22  24
ENDBRANCH   1  20
TORSDOF 8
ENDMDL
MODEL 9
REMARK VINA RESULT:      -7.1      2.743      4.257
REMARK  Name = 
REMARK  12 active torsions:
REMARK  status: ('A' for Active; 'I' for Inactive)
REMARK    1  A    between atoms: C_1  and  O_2
REMARK    2  A    between atoms: O_2  and  C_3
REMARK    3  A    between atoms: C_6  and  C_7
REMARK    4  A    between atoms: C_7  and  N_8
REMARK    5  A    between atoms: C_9  and  C_11
REMARK    6  A    between atoms: C_11  and  N_12
REMARK    7  A    between atoms: C_11  and  C_16
REMARK    8  A    between atoms: C_13  and  C_14
REMARK    9  A    between atoms: N_18  and  C_19
REMARK   10  A    between atoms: C_22  and  C_23
REMARK   11  A    between atoms: C_23  and  C_24
REMARK   12  A    between atoms: C_23  and  C_25
REMARK                            x       y       z     vdW  Elec       q    Type
REMARK                         _______ _______ _______ _____ _____    ______ ____
ROOT
ATOM      1  C   UNL     1       2.443   6.421  19.215  0.00  0.00    +0.000 C 
ENDROOT
BRANCH   1   2
ATOM      2  N   UNL     1       2.615   5.542  20.378  0.00  0.00    +0.000 N 
ATOM      3  C   UNL     1       1.900   4.385  20.531  0.00  0.00    +0.000 C 
ATOM      4  C   UNL     1       2.226   3.594  21.768  0.00  0.00    +0.000 C 
ATOM      5  O   UNL     1       0.991   4.072  19.768  0.00  0.00    +0.000 OA
ATOM      6  H   UNL     1       3.344   5.781  21.040  0.00  0.00    +0.000 HD
ENDBRANCH   1   2
BRANCH   1   8
ATOM      7  N   UNL     1       4.718   5.540  18.738  0.00  0.00    +0.000 N 
ATOM      8  C   UNL     1       3.836   6.587  18.544  0.00  0.00    +0.000 C 
ATOM      9  O   UNL     1       4.068   7.500  17.750  0.00  0.00    +0.000 OA
ATOM     10  H   UNL     1       4.595   5.038  19.618  0.00  0.00    +0.000 HD
BRANCH   7  11
ATOM     11  C   UNL     1       6.078   5.554  18.249  0.00  0.00    +0.000 C 
BRANCH  11  15
ATOM     12  C   UNL     1       6.306   4.110  14.169  0.00  0.00    +0.000 A 
ATOM     13  C   UNL     1       7.310   4.919  14.698  0.00  0.00    +0.000 A 
ATOM     14  C   UNL     1       7.236   5.379  16.016  0.00  0.00    +0.000 A 
ATOM     15  C   UNL     1       6.145   5.047  16.828  0.00  0.00    +0.000 A 
ATOM     16  C   UNL     1       5.127   4.250  16.282  0.00  0.00    +0.000 A 
ATOM     17  C   UNL     1       5.205   3.786  14.961  0.00  0.00    +0.000 A 
BRANCH  12  19
ATOM     18  C   UNL     1       5.334   3.220  12.201  0.00  0.00    +0.000 C 
ATOM     19  O   UNL     1       6.480   3.743  12.863  0.00  0.00    +0.000 OA
ENDBRANCH  12  19
ENDBRANCH  11  15
ENDBRANCH   7  11
ENDBRANCH   1   8
BRANCH   1  20
ATOM     20  C   UNL     1       1.795   7.768  19.591  0.00  0.00    +0.000 C 
ATOM     21  O   UNL     1       1.569   8.598  18.708  0.00  0.00    +0.000 OA
ATOM     22  N   UNL     1       1.479   7.954  20.928  0.00  0.00    +0.000 N 
ATOM     23  H   UNL     1       1.764   7.228  21.581  0.00  0.00    +0.000 HD
BRANCH  22  24
ATOM     24  C   UNL     1       0.813   9.088  21.451  0.00  0.00    +0.000 A 
ATOM     25  C   UNL     1       1.009  10.379  20.955  0.00  0.00    +0.000 A 
ATOM     26  C   UNL     1       0.318  11.473  21.476  0.00  0.00    +0.000 A 
ATOM     27  C   UNL     1      -0.602  11.309  22.510  0.00  0.00    +0.000 A 
ATOM     28  C   UNL     1      -0.786  10.020  23.034  0.00  0.00    +0.000 A 
ATOM     29  C   UNL     1      -0.093   8.917  22.505  0.00  0.00    +0.000 A 
BRANCH  27  30
ATOM     30  C   UNL     1      -1.400  12.516  22.976  0.00  0.00    +0.000 C 
ATOM     31  C   UNL     1      -1.421  13.602  21.900  0.00  0.00    +0.000 C 
ATOM     32  C   UNL     1      -2.807  12.154  23.438  0.00  0.00    +0.000 C 
ENDBRANCH  27  30
ENDBRANCH  22  24
ENDBRANCH   1  20
TORSDOF 8
ENDMDL
