MODEL 1
REMARK VINA RESULT:      -7.3      0.000      0.000
REMARK  Name = 
REMARK  7 active torsions:
REMARK  status: ('A' for Active; 'I' for Inactive)
REMARK    1  A    between atoms: C_2  and  O_3
REMARK    2  A    between atoms: C_2  and  C_4
REMARK    3  A    between atoms: C_4  and  C_5
REMARK    4  A    between atoms: C_5  and  C_6
REMARK    5  A    between atoms: C_9  and  C_10
REMARK    6  A    between atoms: C_11  and  C_12
REMARK    7  A    between atoms: C_12  and  O_13
REMARK                            x       y       z     vdW  Elec       q    Type
REMARK                         _______ _______ _______ _____ _____    ______ ____
ROOT
ATOM      1  C   UNL     1       6.654   5.882  17.400  0.00  0.00    +0.000 A 
ATOM      2  C   UNL     1       7.660   5.732  18.367  0.00  0.00    +0.000 A 
ATOM      3  C   UNL     1       8.358   6.843  18.842  0.00  0.00    +0.000 A 
ATOM      4  C   UNL     1       8.058   8.115  18.349  0.00  0.00    +0.000 A 
ATOM      5  C   UNL     1       7.072   8.275  17.379  0.00  0.00    +0.000 A 
ATOM      6  C   UNL     1       6.375   7.165  16.902  0.00  0.00    +0.000 A 
ENDROOT
BRANCH   4   7
ATOM      7  C   UNL     1       8.769   9.251  18.823  0.00  0.00    +0.000 C 
ATOM      8  C   UNL     1       9.335  10.225  19.242  0.00  0.00    +0.000 C 
BRANCH   8   9
ATOM      9  C   UNL     1       9.965  11.453  19.757  0.00  0.00    +0.000 C 
ATOM     10  C   UNL     1       9.180  12.694  19.302  0.00  0.00    +0.000 C 
ATOM     11  C   UNL     1       9.346  12.984  17.812  0.00  0.00    +0.000 C 
ATOM     12  C   UNL     1      10.820  13.107  17.439  0.00  0.00    +0.000 C 
ATOM     13  C   UNL     1      11.603  11.859  17.835  0.00  0.00    +0.000 C 
ATOM     14  C   UNL     1      11.435  11.536  19.321  0.00  0.00    +0.000 C 
BRANCH   9  15
ATOM     15  O   UNL     1       9.938  11.405  21.184  0.00  0.00    +0.000 OA
ATOM     16  H   UNL     1       9.132  11.867  21.468  0.00  0.00    +0.000 HD
ENDBRANCH   9  15
ENDBRANCH   8   9
ENDBRANCH   4   7
BRANCH   1  17
ATOM     17  C   UNL     1       5.866   4.682  16.909  0.00  0.00    +0.000 C 
BRANCH  17  18
ATOM     18  C   UNL     1       5.468   4.832  15.430  0.00  0.00    +0.000 C 
BRANCH  18  20
ATOM     19  O   UNL     1       7.588   5.146  14.336  0.00  0.00    +0.000 OA
ATOM     20  C   UNL     1       6.581   4.490  14.473  0.00  0.00    +0.000 C 
BRANCH  20  21
ATOM     21  O   UNL     1       6.375   3.365  13.745  0.00  0.00    +0.000 OA
ATOM     22  H   UNL     1       6.996   3.170  13.019  0.00  0.00    +0.000 HD
ENDBRANCH  20  21
ENDBRANCH  18  20
ENDBRANCH  17  18
ENDBRANCH   1  17
TORSDOF 7
ENDMDL
MODEL 2
REMARK VINA RESULT:      -7.2      3.322      8.934
REMARK  Name = 
REMARK  7 active torsions:
REMARK  status: ('A' for Active; 'I' for Inactive)
REMARK    1  A    between atoms: C_2  and  O_3
REMARK    2  A    between atoms: C_2  and  C_4
REMARK    3  A    between atoms: C_4  and  C_5
REMARK    4  A    between atoms: C_5  and  C_6
REMARK    5  A    between atoms: C_9  and  C_10
REMARK    6  A    between atoms: C_11  and  C_12
REMARK    7  A    between atoms: C_12  and  O_13
REMARK                            x       y       z     vdW  Elec       q    Type
REMARK                         _______ _______ _______ _____ _____    ______ ____
ROOT
ATOM      1  C   UNL     1       7.511   7.640  17.762  0.00  0.00    +0.000 A 
ATOM      2  C   UNL     1       6.293   7.502  17.078  0.00  0.00    +0.000 A 
ATOM      3  C   UNL     1       5.486   6.384  17.289  0.00  0.00    +0.000 A 
ATOM      4  C   UNL     1       5.893   5.391  18.184  0.00  0.00    +0.000 A 
ATOM      5  C   UNL     1       7.106   5.510  18.857  0.00  0.00    +0.000 A 
ATOM      6  C   UNL     1       7.915   6.627  18.645  0.00  0.00    +0.000 A 
ENDROOT
BRANCH   4   7
ATOM      7  C   UNL     1       5.078   4.245  18.399  0.00  0.00    +0.000 C 
ATOM      8  C   UNL     1       4.373   3.296  18.614  0.00  0.00    +0.000 C 
BRANCH   8   9
ATOM      9  C   UNL     1       3.505   2.154  18.948  0.00  0.00    +0.000 C 
ATOM     10  C   UNL     1       2.242   2.162  18.070  0.00  0.00    +0.000 C 
ATOM     11  C   UNL     1       1.270   3.279  18.444  0.00  0.00    +0.000 C 
ATOM     12  C   UNL     1       0.903   3.214  19.924  0.00  0.00    +0.000 C 
ATOM     13  C   UNL     1       2.145   3.260  20.810  0.00  0.00    +0.000 C 
ATOM     14  C   UNL     1       3.144   2.162  20.440  0.00  0.00    +0.000 C 
BRANCH   9  15
ATOM     15  O   UNL     1       4.227   0.951  18.683  0.00  0.00    +0.000 OA
ATOM     16  H   UNL     1       4.470   0.571  19.543  0.00  0.00    +0.000 HD
ENDBRANCH   9  15
ENDBRANCH   8   9
ENDBRANCH   4   7
BRANCH   1  17
ATOM     17  C   UNL     1       8.374   8.873  17.564  0.00  0.00    +0.000 C 
BRANCH  17  18
ATOM     18  C   UNL     1       8.875   9.435  18.906  0.00  0.00    +0.000 C 
BRANCH  18  20
ATOM     19  O   UNL     1      10.097  11.208  17.830  0.00  0.00    +0.000 OA
ATOM     20  C   UNL     1       9.476  10.813  18.790  0.00  0.00    +0.000 C 
BRANCH  20  21
ATOM     21  O   UNL     1       9.276  11.609  19.868  0.00  0.00    +0.000 OA
ATOM     22  H   UNL     1      10.059  11.970  20.323  0.00  0.00    +0.000 HD
ENDBRANCH  20  21
ENDBRANCH  18  20
ENDBRANCH  17  18
ENDBRANCH   1  17
TORSDOF 7
ENDMDL
MODEL 3
REMARK VINA RESULT:      -7.2      3.325      8.811
REMARK  Name = 
REMARK  7 active torsions:
REMARK  status: ('A' for Active; 'I' for Inactive)
REMARK    1  A    between atoms: C_2  and  O_3
REMARK    2  A    between atoms: C_2  and  C_4
REMARK    3  A    between atoms: C_4  and  C_5
REMARK    4  A    between atoms: C_5  and  C_6
REMARK    5  A    between atoms: C_9  and  C_10
REMARK    6  A    between atoms: C_11  and  C_12
REMARK    7  A    between atoms: C_12  and  O_13
REMARK                            x       y       z     vdW  Elec       q    Type
REMARK                         _______ _______ _______ _____ _____    ______ ____
ROOT
ATOM      1  C   UNL     1       7.555   7.697  17.822  0.00  0.00    +0.000 A 
ATOM      2  C   UNL     1       7.963   6.683  18.702  0.00  0.00    +0.000 A 
ATOM      3  C   UNL     1       7.162   5.559  18.908  0.00  0.00    +0.000 A 
ATOM      4  C   UNL     1       5.941   5.444  18.239  0.00  0.00    +0.000 A 
ATOM      5  C   UNL     1       5.518   6.452  17.375  0.00  0.00    +0.000 A 
ATOM      6  C   UNL     1       6.318   7.575  17.170  0.00  0.00    +0.000 A 
ENDROOT
BRANCH   4   7
ATOM      7  C   UNL     1       5.115   4.305  18.449  0.00  0.00    +0.000 C 
ATOM      8  C   UNL     1       4.392   3.367  18.649  0.00  0.00    +0.000 C 
BRANCH   8   9
ATOM      9  C   UNL     1       3.479   2.251  18.952  0.00  0.00    +0.000 C 
ATOM     10  C   UNL     1       2.241   2.303  18.041  0.00  0.00    +0.000 C 
ATOM     11  C   UNL     1       1.295   3.448  18.395  0.00  0.00    +0.000 C 
ATOM     12  C   UNL     1       0.886   3.388  19.863  0.00  0.00    +0.000 C 
ATOM     13  C   UNL     1       2.104   3.391  20.783  0.00  0.00    +0.000 C 
ATOM     14  C   UNL     1       3.078   2.264  20.435  0.00  0.00    +0.000 C 
BRANCH   9  15
ATOM     15  O   UNL     1       4.169   1.027  18.700  0.00  0.00    +0.000 OA
ATOM     16  H   UNL     1       4.996   1.257  18.245  0.00  0.00    +0.000 HD
ENDBRANCH   9  15
ENDBRANCH   8   9
ENDBRANCH   4   7
BRANCH   1  17
ATOM     17  C   UNL     1       8.441   8.902  17.566  0.00  0.00    +0.000 C 
BRANCH  17  18
ATOM     18  C   UNL     1       8.885   9.569  18.879  0.00  0.00    +0.000 C 
BRANCH  18  20
ATOM     19  O   UNL     1      10.646  11.183  19.175  0.00  0.00    +0.000 OA
ATOM     20  C   UNL     1       9.585  10.888  18.674  0.00  0.00    +0.000 C 
BRANCH  20  21
ATOM     21  O   UNL     1       8.927  11.758  17.870  0.00  0.00    +0.000 OA
ATOM     22  H   UNL     1       8.676  12.625  18.241  0.00  0.00    +0.000 HD
ENDBRANCH  20  21
ENDBRANCH  18  20
ENDBRANCH  17  18
ENDBRANCH   1  17
TORSDOF 7
ENDMDL
MODEL 4
REMARK VINA RESULT:      -7.2      2.095      7.857
REMARK  Name = 
REMARK  7 active torsions:
REMARK  status: ('A' for Active; 'I' for Inactive)
REMARK    1  A    between atoms: C_2  and  O_3
REMARK    2  A    between atoms: C_2  and  C_4
REMARK    3  A    between atoms: C_4  and  C_5
REMARK    4  A    between atoms: C_5  and  C_6
REMARK    5  A    between atoms: C_9  and  C_10
REMARK    6  A    between atoms: C_11  and  C_12
REMARK    7  A    between atoms: C_12  and  O_13
REMARK                            x       y       z     vdW  Elec       q    Type
REMARK                         _______ _______ _______ _____ _____    ______ ____
ROOT
ATOM      1  C   UNL     1       9.619  12.103  19.168  0.00  0.00    +0.000 A 
ATOM      2  C   UNL     1       9.800  10.901  19.869  0.00  0.00    +0.000 A 
ATOM      3  C   UNL     1       9.249   9.712  19.389  0.00  0.00    +0.000 A 
ATOM      4  C   UNL     1       8.508   9.717  18.205  0.00  0.00    +0.000 A 
ATOM      5  C   UNL     1       8.309  10.907  17.509  0.00  0.00    +0.000 A 
ATOM      6  C   UNL     1       8.858  12.096  17.988  0.00  0.00    +0.000 A 
ENDROOT
BRANCH   4   7
ATOM      7  C   UNL     1       7.938   8.510  17.714  0.00  0.00    +0.000 C 
ATOM      8  C   UNL     1       7.456   7.476  17.337  0.00  0.00    +0.000 C 
BRANCH   8   9
ATOM      9  C   UNL     1       6.892   6.176  16.936  0.00  0.00    +0.000 C 
ATOM     10  C   UNL     1       5.383   6.303  16.665  0.00  0.00    +0.000 C 
ATOM     11  C   UNL     1       4.569   6.498  17.942  0.00  0.00    +0.000 C 
ATOM     12  C   UNL     1       4.849   5.384  18.946  0.00  0.00    +0.000 C 
ATOM     13  C   UNL     1       6.337   5.282  19.267  0.00  0.00    +0.000 C 
ATOM     14  C   UNL     1       7.177   5.106  18.000  0.00  0.00    +0.000 C 
BRANCH   9  15
ATOM     15  O   UNL     1       7.530   5.765  15.726  0.00  0.00    +0.000 OA
ATOM     16  H   UNL     1       8.200   6.438  15.517  0.00  0.00    +0.000 HD
ENDBRANCH   9  15
ENDBRANCH   8   9
ENDBRANCH   4   7
BRANCH   1  17
ATOM     17  C   UNL     1      10.248  13.391  19.665  0.00  0.00    +0.000 C 
BRANCH  17  18
ATOM     18  C   UNL     1      11.757  13.440  19.362  0.00  0.00    +0.000 C 
BRANCH  18  20
ATOM     19  O   UNL     1      12.084  14.719  17.350  0.00  0.00    +0.000 OA
ATOM     20  C   UNL     1      12.067  13.642  17.901  0.00  0.00    +0.000 C 
BRANCH  20  21
ATOM     21  O   UNL     1      12.331  12.503  17.216  0.00  0.00    +0.000 OA
ATOM     22  H   UNL     1      11.599  11.872  17.077  0.00  0.00    +0.000 HD
ENDBRANCH  20  21
ENDBRANCH  18  20
ENDBRANCH  17  18
ENDBRANCH   1  17
TORSDOF 7
ENDMDL
MODEL 5
REMARK VINA RESULT:      -7.1      5.865      8.527
REMARK  Name = 
REMARK  7 active torsions:
REMARK  status: ('A' for Active; 'I' for Inactive)
REMARK    1  A    between atoms: C_2  and  O_3
REMARK    2  A    between atoms: C_2  and  C_4
REMARK    3  A    between atoms: C_4  and  C_5
REMARK    4  A    between atoms: C_5  and  C_6
REMARK    5  A    between atoms: C_9  and  C_10
REMARK    6  A    between atoms: C_11  and  C_12
REMARK    7  A    between atoms: C_12  and  O_13
REMARK                            x       y       z     vdW  Elec       q    Type
REMARK                         _______ _______ _______ _____ _____    ______ ____
ROOT
ATOM      1  C   UNL     1       1.006   9.582  19.095  0.00  0.00    +0.000 A 
ATOM      2  C   UNL     1       1.667   9.466  17.862  0.00  0.00    +0.000 A 
ATOM      3  C   UNL     1       2.524   8.392  17.617  0.00  0.00    +0.000 A 
ATOM      4  C   UNL     1       2.733   7.429  18.606  0.00  0.00    +0.000 A 
ATOM      5  C   UNL     1       2.094   7.542  19.839  0.00  0.00    +0.000 A 
ATOM      6  C   UNL     1       1.238   8.615  20.085  0.00  0.00    +0.000 A 
ENDROOT
BRANCH   4   7
ATOM      7  C   UNL     1       3.610   6.336  18.366  0.00  0.00    +0.000 C 
ATOM      8  C   UNL     1       4.383   5.436  18.179  0.00  0.00    +0.000 C 
BRANCH   8   9
ATOM      9  C   UNL     1       5.385   4.381  17.948  0.00  0.00    +0.000 C 
ATOM     10  C   UNL     1       6.805   4.971  17.967  0.00  0.00    +0.000 C 
ATOM     11  C   UNL     1       7.108   5.820  16.735  0.00  0.00    +0.000 C 
ATOM     12  C   UNL     1       6.866   5.031  15.452  0.00  0.00    +0.000 C 
ATOM     13  C   UNL     1       5.442   4.484  15.393  0.00  0.00    +0.000 C 
ATOM     14  C   UNL     1       5.108   3.646  16.628  0.00  0.00    +0.000 C 
BRANCH   9  15
ATOM     15  O   UNL     1       5.283   3.427  19.005  0.00  0.00    +0.000 OA
ATOM     16  H   UNL     1       4.469   2.919  18.851  0.00  0.00    +0.000 HD
ENDBRANCH   9  15
ENDBRANCH   8   9
ENDBRANCH   4   7
BRANCH   1  17
ATOM     17  C   UNL     1       0.043  10.726  19.351  0.00  0.00    +0.000 C 
BRANCH  17  18
ATOM     18  C   UNL     1      -1.397  10.357  18.952  0.00  0.00    +0.000 C 
BRANCH  18  20
ATOM     19  O   UNL     1      -2.068   9.856  16.695  0.00  0.00    +0.000 OA
ATOM     20  C   UNL     1      -1.719  10.676  17.514  0.00  0.00    +0.000 C 
BRANCH  20  21
ATOM     21  O   UNL     1      -1.585  11.982  17.181  0.00  0.00    +0.000 OA
ATOM     22  H   UNL     1      -2.336  12.579  17.356  0.00  0.00    +0.000 HD
ENDBRANCH  20  21
ENDBRANCH  18  20
ENDBRANCH  17  18
ENDBRANCH   1  17
TORSDOF 7
ENDMDL
MODEL 6
REMARK VINA RESULT:      -7.1      3.342      8.731
REMARK  Name = 
REMARK  7 active torsions:
REMARK  status: ('A' for Active; 'I' for Inactive)
REMARK    1  A    between atoms: C_2  and  O_3
REMARK    2  A    between atoms: C_2  and  C_4
REMARK    3  A    between atoms: C_4  and  C_5
REMARK    4  A    between atoms: C_5  and  C_6
REMARK    5  A    between atoms: C_9  and  C_10
REMARK    6  A    between atoms: C_11  and  C_12
REMARK    7  A    between atoms: C_12  and  O_13
REMARK                            x       y       z     vdW  Elec       q    Type
REMARK                         _______ _______ _______ _____ _____    ______ ____
ROOT
ATOM      1  C   UNL     1       7.605   7.880  17.806  0.00  0.00    +0.000 A 
ATOM      2  C   UNL     1       8.176   6.973  18.712  0.00  0.00    +0.000 A 
ATOM      3  C   UNL     1       7.504   5.801  19.060  0.00  0.00    +0.000 A 
ATOM      4  C   UNL     1       6.250   5.528  18.508  0.00  0.00    +0.000 A 
ATOM      5  C   UNL     1       5.666   6.428  17.619  0.00  0.00    +0.000 A 
ATOM      6  C   UNL     1       6.337   7.601  17.272  0.00  0.00    +0.000 A 
ENDROOT
BRANCH   4   7
ATOM      7  C   UNL     1       5.556   4.340  18.863  0.00  0.00    +0.000 C 
ATOM      8  C   UNL     1       4.933   3.357  19.164  0.00  0.00    +0.000 C 
BRANCH   8   9
ATOM      9  C   UNL     1       4.120   2.195  19.564  0.00  0.00    +0.000 C 
ATOM     10  C   UNL     1       3.403   1.593  18.343  0.00  0.00    +0.000 C 
ATOM     11  C   UNL     1       2.268   2.476  17.831  0.00  0.00    +0.000 C 
ATOM     12  C   UNL     1       1.274   2.792  18.944  0.00  0.00    +0.000 C 
ATOM     13  C   UNL     1       1.962   3.440  20.142  0.00  0.00    +0.000 C 
ATOM     14  C   UNL     1       3.118   2.583  20.660  0.00  0.00    +0.000 C 
BRANCH   9  15
ATOM     15  O   UNL     1       4.993   1.202  20.104  0.00  0.00    +0.000 OA
ATOM     16  H   UNL     1       4.545   0.346  20.003  0.00  0.00    +0.000 HD
ENDBRANCH   9  15
ENDBRANCH   8   9
ENDBRANCH   4   7
BRANCH   1  17
ATOM     17  C   UNL     1       8.349   9.137  17.395  0.00  0.00    +0.000 C 
BRANCH  17  18
ATOM     18  C   UNL     1       8.860   9.919  18.618  0.00  0.00    +0.000 C 
BRANCH  18  20
ATOM     19  O   UNL     1       8.888  12.160  17.742  0.00  0.00    +0.000 OA
ATOM     20  C   UNL     1       9.483  11.244  18.264  0.00  0.00    +0.000 C 
BRANCH  20  21
ATOM     21  O   UNL     1      10.799  11.351  18.570  0.00  0.00    +0.000 OA
ATOM     22  H   UNL     1      11.407  10.673  18.221  0.00  0.00    +0.000 HD
ENDBRANCH  20  21
ENDBRANCH  18  20
ENDBRANCH  17  18
ENDBRANCH   1  17
TORSDOF 7
ENDMDL
MODEL 7
REMARK VINA RESULT:      -7.1      6.725      9.664
REMARK  Name = 
REMARK  7 active torsions:
REMARK  status: ('A' for Active; 'I' for Inactive)
REMARK    1  A    between atoms: C_2  and  O_3
REMARK    2  A    between atoms: C_2  and  C_4
REMARK    3  A    between atoms: C_4  and  C_5
REMARK    4  A    between atoms: C_5  and  C_6
REMARK    5  A    between atoms: C_9  and  C_10
REMARK    6  A    between atoms: C_11  and  C_12
REMARK    7  A    between atoms: C_12  and  O_13
REMARK                            x       y       z     vdW  Elec       q    Type
REMARK                         _______ _______ _______ _____ _____    ______ ____
ROOT
ATOM      1  C   UNL     1       0.879   9.979  19.132  0.00  0.00    +0.000 A 
ATOM      2  C   UNL     1       0.954   9.220  20.311  0.00  0.00    +0.000 A 
ATOM      3  C   UNL     1       1.646   8.009  20.331  0.00  0.00    +0.000 A 
ATOM      4  C   UNL     1       2.264   7.542  19.169  0.00  0.00    +0.000 A 
ATOM      5  C   UNL     1       2.184   8.278  17.989  0.00  0.00    +0.000 A 
ATOM      6  C   UNL     1       1.492   9.488  17.968  0.00  0.00    +0.000 A 
ENDROOT
BRANCH   4   7
ATOM      7  C   UNL     1       2.965   6.305  19.180  0.00  0.00    +0.000 C 
ATOM      8  C   UNL     1       3.551   5.256  19.148  0.00  0.00    +0.000 C 
BRANCH   8   9
ATOM      9  C   UNL     1       4.233   3.954  19.048  0.00  0.00    +0.000 C 
ATOM     10  C   UNL     1       4.099   3.383  17.626  0.00  0.00    +0.000 C 
ATOM     11  C   UNL     1       2.684   2.902  17.313  0.00  0.00    +0.000 C 
ATOM     12  C   UNL     1       2.207   1.891  18.352  0.00  0.00    +0.000 C 
ATOM     13  C   UNL     1       2.282   2.464  19.765  0.00  0.00    +0.000 C 
ATOM     14  C   UNL     1       3.686   2.971  20.094  0.00  0.00    +0.000 C 
BRANCH   9  15
ATOM     15  O   UNL     1       5.620   4.153  19.322  0.00  0.00    +0.000 OA
ATOM     16  H   UNL     1       6.088   4.088  18.473  0.00  0.00    +0.000 HD
ENDBRANCH   9  15
ENDBRANCH   8   9
ENDBRANCH   4   7
BRANCH   1  17
ATOM     17  C   UNL     1       0.161  11.315  19.116  0.00  0.00    +0.000 C 
BRANCH  17  18
ATOM     18  C   UNL     1      -1.364  11.138  19.005  0.00  0.00    +0.000 C 
BRANCH  18  20
ATOM     19  O   UNL     1      -2.158   9.734  17.219  0.00  0.00    +0.000 OA
ATOM     20  C   UNL     1      -1.830  10.833  17.605  0.00  0.00    +0.000 C 
BRANCH  20  21
ATOM     21  O   UNL     1      -1.856  11.901  16.772  0.00  0.00    +0.000 OA
ATOM     22  H   UNL     1      -1.279  11.883  15.985  0.00  0.00    +0.000 HD
ENDBRANCH  20  21
ENDBRANCH  18  20
ENDBRANCH  17  18
ENDBRANCH   1  17
TORSDOF 7
ENDMDL
MODEL 8
REMARK VINA RESULT:      -7.0      6.676      9.713
REMARK  Name = 
REMARK  7 active torsions:
REMARK  status: ('A' for Active; 'I' for Inactive)
REMARK    1  A    between atoms: C_2  and  O_3
REMARK    2  A    between atoms: C_2  and  C_4
REMARK    3  A    between atoms: C_4  and  C_5
REMARK    4  A    between atoms: C_5  and  C_6
REMARK    5  A    between atoms: C_9  and  C_10
REMARK    6  A    between atoms: C_11  and  C_12
REMARK    7  A    between atoms: C_12  and  O_13
REMARK                            x       y       z     vdW  Elec       q    Type
REMARK                         _______ _______ _______ _____ _____    ______ ____
ROOT
ATOM      1  C   UNL     1       0.851   9.936  19.364  0.00  0.00    +0.000 A 
ATOM      2  C   UNL     1       1.524   9.546  18.195  0.00  0.00    +0.000 A 
ATOM      3  C   UNL     1       2.230   8.344  18.153  0.00  0.00    +0.000 A 
ATOM      4  C   UNL     1       2.275   7.523  19.282  0.00  0.00    +0.000 A 
ATOM      5  C   UNL     1       1.624   7.907  20.452  0.00  0.00    +0.000 A 
ATOM      6  C   UNL     1       0.919   9.109  20.496  0.00  0.00    +0.000 A 
ENDROOT
BRANCH   4   7
ATOM      7  C   UNL     1       2.999   6.300  19.248  0.00  0.00    +0.000 C 
ATOM      8  C   UNL     1       3.597   5.260  19.181  0.00  0.00    +0.000 C 
BRANCH   8   9
ATOM      9  C   UNL     1       4.283   3.963  19.047  0.00  0.00    +0.000 C 
ATOM     10  C   UNL     1       4.132   3.418  17.617  0.00  0.00    +0.000 C 
ATOM     11  C   UNL     1       2.715   2.936  17.315  0.00  0.00    +0.000 C 
ATOM     12  C   UNL     1       2.256   1.904  18.340  0.00  0.00    +0.000 C 
ATOM     13  C   UNL     1       2.348   2.451  19.763  0.00  0.00    +0.000 C 
ATOM     14  C   UNL     1       3.755   2.958  20.082  0.00  0.00    +0.000 C 
BRANCH   9  15
ATOM     15  O   UNL     1       5.673   4.163  19.306  0.00  0.00    +0.000 OA
ATOM     16  H   UNL     1       5.847   5.113  19.199  0.00  0.00    +0.000 HD
ENDBRANCH   9  15
ENDBRANCH   8   9
ENDBRANCH   4   7
BRANCH   1  17
ATOM     17  C   UNL     1       0.050  11.224  19.403  0.00  0.00    +0.000 C 
BRANCH  17  18
ATOM     18  C   UNL     1      -1.440  10.974  19.107  0.00  0.00    +0.000 C 
BRANCH  18  20
ATOM     19  O   UNL     1      -2.179  10.133  16.977  0.00  0.00    +0.000 OA
ATOM     20  C   UNL     1      -1.783  11.063  17.642  0.00  0.00    +0.000 C 
BRANCH  20  21
ATOM     21  O   UNL     1      -1.609  12.290  17.094  0.00  0.00    +0.000 OA
ATOM     22  H   UNL     1      -2.107  12.504  16.284  0.00  0.00    +0.000 HD
ENDBRANCH  20  21
ENDBRANCH  18  20
ENDBRANCH  17  18
ENDBRANCH   1  17
TORSDOF 7
ENDMDL
MODEL 9
REMARK VINA RESULT:      -7.0      1.984      2.225
REMARK  Name = 
REMARK  7 active torsions:
REMARK  status: ('A' for Active; 'I' for Inactive)
REMARK    1  A    between atoms: C_2  and  O_3
REMARK    2  A    between atoms: C_2  and  C_4
REMARK    3  A    between atoms: C_4  and  C_5
REMARK    4  A    between atoms: C_5  and  C_6
REMARK    5  A    between atoms: C_9  and  C_10
REMARK    6  A    between atoms: C_11  and  C_12
REMARK    7  A    between atoms: C_12  and  O_13
REMARK                            x       y       z     vdW  Elec       q    Type
REMARK                         _______ _______ _______ _____ _____    ______ ____
ROOT
ATOM      1  C   UNL     1       6.791   5.689  17.416  0.00  0.00    +0.000 A 
ATOM      2  C   UNL     1       7.668   5.605  18.509  0.00  0.00    +0.000 A 
ATOM      3  C   UNL     1       8.324   6.743  18.980  0.00  0.00    +0.000 A 
ATOM      4  C   UNL     1       8.114   7.975  18.357  0.00  0.00    +0.000 A 
ATOM      5  C   UNL     1       7.258   8.068  17.262  0.00  0.00    +0.000 A 
ATOM      6  C   UNL     1       6.602   6.932  16.790  0.00  0.00    +0.000 A 
ENDROOT
BRANCH   4   7
ATOM      7  C   UNL     1       8.785   9.137  18.827  0.00  0.00    +0.000 C 
ATOM      8  C   UNL     1       9.315  10.140  19.221  0.00  0.00    +0.000 C 
BRANCH   8   9
ATOM      9  C   UNL     1       9.914  11.409  19.673  0.00  0.00    +0.000 C 
ATOM     10  C   UNL     1       9.074  12.603  19.190  0.00  0.00    +0.000 C 
ATOM     11  C   UNL     1       9.194  12.840  17.686  0.00  0.00    +0.000 C 
ATOM     12  C   UNL     1      10.654  12.998  17.271  0.00  0.00    +0.000 C 
ATOM     13  C   UNL     1      11.490  11.794  17.696  0.00  0.00    +0.000 C 
ATOM     14  C   UNL     1      11.369  11.524  19.197  0.00  0.00    +0.000 C 
BRANCH   9  15
ATOM     15  O   UNL     1       9.922  11.416  21.101  0.00  0.00    +0.000 OA
ATOM     16  H   UNL     1      10.715  10.930  21.382  0.00  0.00    +0.000 HD
ENDBRANCH   9  15
ENDBRANCH   8   9
ENDBRANCH   4   7
BRANCH   1  17
ATOM     17  C   UNL     1       6.046   4.463  16.926  0.00  0.00    +0.000 C 
BRANCH  17  18
ATOM     18  C   UNL     1       4.576   4.471  17.383  0.00  0.00    +0.000 C 
BRANCH  18  20
ATOM     19  O   UNL     1       5.158   3.365  19.440  0.00  0.00    +0.000 OA
ATOM     20  C   UNL     1       4.323   3.621  18.601  0.00  0.00    +0.000 C 
BRANCH  20  21
ATOM     21  O   UNL     1       3.061   3.138  18.702  0.00  0.00    +0.000 OA
ATOM     22  H   UNL     1       2.321   3.767  18.617  0.00  0.00    +0.000 HD
ENDBRANCH  20  21
ENDBRANCH  18  20
ENDBRANCH  17  18
ENDBRANCH   1  17
TORSDOF 7
ENDMDL
