MODEL 1
REMARK VINA RESULT:      -8.1      0.000      0.000
REMARK  Name = 
REMARK  9 active torsions:
REMARK  status: ('A' for Active; 'I' for Inactive)
REMARK    1  A    between atoms: C_1  and  O_2
REMARK    2  A    between atoms: O_2  and  C_3
REMARK    3  A    between atoms: C_3  and  C_5
REMARK    4  A    between atoms: C_7  and  N_8
REMARK    5  A    between atoms: N_8  and  S_9
REMARK    6  A    between atoms: S_9  and  C_10
REMARK    7  A    between atoms: C_16  and  C_17
REMARK    8  A    between atoms: C_24  and  C_25
REMARK    9  A    between atoms: C_31  and  C_32
REMARK                            x       y       z     vdW  Elec       q    Type
REMARK                         _______ _______ _______ _____ _____    ______ ____
ROOT
ATOM      1  C   UNL     1       2.469   4.807  20.310  0.00  0.00    +0.000 C 
ATOM      2  C   UNL     1       1.437   5.968  20.374  0.00  0.00    +0.000 C 
ATOM      3  C   UNL     1       2.088   7.338  20.170  0.00  0.00    +0.000 C 
ATOM      4  C   UNL     1       2.841   7.251  18.844  0.00  0.00    +0.000 C 
ATOM      5  O   UNL     1       2.492   7.877  17.845  0.00  0.00    +0.000 OA
ATOM      6  C   UNL     1       3.969   6.217  18.844  0.00  0.00    +0.000 C 
ATOM      7  C   UNL     1       3.315   4.798  18.975  0.00  0.00    +0.000 C 
ATOM      8  C   UNL     1       2.377   4.453  17.793  0.00  0.00    +0.000 C 
ATOM      9  C   UNL     1       4.447   3.739  19.045  0.00  0.00    +0.000 C 
ATOM     10  C   UNL     1       5.523   3.903  17.963  0.00  0.00    +0.000 C 
ATOM     11  C   UNL     1       6.155   5.298  18.020  0.00  0.00    +0.000 C 
ATOM     12  C   UNL     1       7.351   5.443  17.100  0.00  0.00    +0.000 C 
ATOM     13  O   UNL     1       7.910   4.486  16.580  0.00  0.00    +0.000 OA
ATOM     14  O   UNL     1       7.854   6.692  16.976  0.00  0.00    +0.000 OA
ATOM     15  C   UNL     1       7.117   7.909  17.245  0.00  0.00    +0.000 C 
ATOM     16  C   UNL     1       5.861   7.723  18.107  0.00  0.00    +0.000 C 
ATOM     17  C   UNL     1       5.111   6.412  17.790  0.00  0.00    +0.000 C 
ATOM     18  C   UNL     1       4.643   6.450  16.316  0.00  0.00    +0.000 C 
ENDROOT
BRANCH  15  19
ATOM     19  C   UNL     1       8.025   8.930  17.860  0.00  0.00    +0.000 A 
ATOM     20  C   UNL     1       8.228  10.275  17.435  0.00  0.00    +0.000 A 
ATOM     21  C   UNL     1       9.162  10.817  18.283  0.00  0.00    +0.000 A 
ATOM     22  O   UNL     1       9.553   9.900  19.204  0.00  0.00    +0.000 OA
ATOM     23  C   UNL     1       8.859   8.762  18.948  0.00  0.00    +0.000 A 
ENDBRANCH  15  19
BRANCH   1  24
ATOM     24  C   UNL     1       1.739   3.487  20.574  0.00  0.00    +0.000 C 
ATOM     25  O   UNL     1       2.100   2.650  21.384  0.00  0.00    +0.000 OA
BRANCH  24  27
ATOM     26  C   UNL     1       0.544   2.195  19.031  0.00  0.00    +0.000 C 
ATOM     27  O   UNL     1       0.623   3.401  19.803  0.00  0.00    +0.000 OA
ENDBRANCH  24  27
ENDBRANCH   1  24
BRANCH   3  28
ATOM     28  N   UNL     1       1.116   8.453  20.091  0.00  0.00    +0.000 NA
ATOM     29  H   UNL     1       0.450   8.376  19.317  0.00  0.00    +0.000 HD
BRANCH  28  30
ATOM     30  S   UNL     1       0.565   9.142  21.515  0.00  0.00    +0.000 S 
ATOM     31  C   UNL     1       0.063  10.758  20.969  0.00  0.00    +0.000 C 
ATOM     32  O   UNL     1      -0.617   8.424  21.925  0.00  0.00    +0.000 OA
ATOM     33  O   UNL     1       1.709   9.275  22.391  0.00  0.00    +0.000 OA
ENDBRANCH  28  30
ENDBRANCH   3  28
TORSDOF 5
ENDMDL
MODEL 2
REMARK VINA RESULT:      -7.9      0.560      1.088
REMARK  Name = 
REMARK  9 active torsions:
REMARK  status: ('A' for Active; 'I' for Inactive)
REMARK    1  A    between atoms: C_1  and  O_2
REMARK    2  A    between atoms: O_2  and  C_3
REMARK    3  A    between atoms: C_3  and  C_5
REMARK    4  A    between atoms: C_7  and  N_8
REMARK    5  A    between atoms: N_8  and  S_9
REMARK    6  A    between atoms: S_9  and  C_10
REMARK    7  A    between atoms: C_16  and  C_17
REMARK    8  A    between atoms: C_24  and  C_25
REMARK    9  A    between atoms: C_31  and  C_32
REMARK                            x       y       z     vdW  Elec       q    Type
REMARK                         _______ _______ _______ _____ _____    ______ ____
ROOT
ATOM      1  C   UNL     1       2.340   4.858  20.300  0.00  0.00    +0.000 C 
ATOM      2  C   UNL     1       1.330   6.038  20.374  0.00  0.00    +0.000 C 
ATOM      3  C   UNL     1       2.005   7.396  20.164  0.00  0.00    +0.000 C 
ATOM      4  C   UNL     1       2.744   7.296  18.832  0.00  0.00    +0.000 C 
ATOM      5  O   UNL     1       2.398   7.929  17.836  0.00  0.00    +0.000 OA
ATOM      6  C   UNL     1       3.853   6.241  18.821  0.00  0.00    +0.000 C 
ATOM      7  C   UNL     1       3.174   4.835  18.957  0.00  0.00    +0.000 C 
ATOM      8  C   UNL     1       2.219   4.508  17.784  0.00  0.00    +0.000 C 
ATOM      9  C   UNL     1       4.287   3.755  19.017  0.00  0.00    +0.000 C 
ATOM     10  C   UNL     1       5.356   3.899  17.925  0.00  0.00    +0.000 C 
ATOM     11  C   UNL     1       6.015   5.283  17.978  0.00  0.00    +0.000 C 
ATOM     12  C   UNL     1       7.204   5.407  17.047  0.00  0.00    +0.000 C 
ATOM     13  O   UNL     1       7.741   4.440  16.521  0.00  0.00    +0.000 OA
ATOM     14  O   UNL     1       7.730   6.646  16.919  0.00  0.00    +0.000 OA
ATOM     15  C   UNL     1       7.018   7.876  17.196  0.00  0.00    +0.000 C 
ATOM     16  C   UNL     1       5.766   7.713  18.068  0.00  0.00    +0.000 C 
ATOM     17  C   UNL     1       4.989   6.416  17.757  0.00  0.00    +0.000 C 
ATOM     18  C   UNL     1       4.509   6.463  16.288  0.00  0.00    +0.000 C 
ENDROOT
BRANCH  15  19
ATOM     19  C   UNL     1       7.950   8.880  17.803  0.00  0.00    +0.000 A 
ATOM     20  C   UNL     1       8.803   8.697  18.930  0.00  0.00    +0.000 A 
ATOM     21  C   UNL     1       9.448   9.892  19.130  0.00  0.00    +0.000 A 
ATOM     22  O   UNL     1       9.053  10.804  18.205  0.00  0.00    +0.000 OA
ATOM     23  C   UNL     1       8.151  10.186  17.401  0.00  0.00    +0.000 A 
ENDBRANCH  15  19
BRANCH   1  24
ATOM     24  C   UNL     1       1.588   3.552  20.569  0.00  0.00    +0.000 C 
ATOM     25  O   UNL     1       0.769   3.061  19.811  0.00  0.00    +0.000 OA
BRANCH  24  27
ATOM     26  C   UNL     1       3.120   2.137  21.632  0.00  0.00    +0.000 C 
ATOM     27  O   UNL     1       1.987   3.010  21.749  0.00  0.00    +0.000 OA
ENDBRANCH  24  27
ENDBRANCH   1  24
BRANCH   3  28
ATOM     28  N   UNL     1       1.053   8.529  20.094  0.00  0.00    +0.000 NA
ATOM     29  H   UNL     1       0.438   8.512  19.276  0.00  0.00    +0.000 HD
BRANCH  28  30
ATOM     30  S   UNL     1       0.418   9.134  21.521  0.00  0.00    +0.000 S 
ATOM     31  C   UNL     1      -0.245  10.698  20.993  0.00  0.00    +0.000 C 
ATOM     32  O   UNL     1      -0.688   8.291  21.907  0.00  0.00    +0.000 OA
ATOM     33  O   UNL     1       1.532   9.372  22.413  0.00  0.00    +0.000 OA
ENDBRANCH  28  30
ENDBRANCH   3  28
TORSDOF 5
ENDMDL
MODEL 3
REMARK VINA RESULT:      -7.7      0.734      1.016
REMARK  Name = 
REMARK  9 active torsions:
REMARK  status: ('A' for Active; 'I' for Inactive)
REMARK    1  A    between atoms: C_1  and  O_2
REMARK    2  A    between atoms: O_2  and  C_3
REMARK    3  A    between atoms: C_3  and  C_5
REMARK    4  A    between atoms: C_7  and  N_8
REMARK    5  A    between atoms: N_8  and  S_9
REMARK    6  A    between atoms: S_9  and  C_10
REMARK    7  A    between atoms: C_16  and  C_17
REMARK    8  A    between atoms: C_24  and  C_25
REMARK    9  A    between atoms: C_31  and  C_32
REMARK                            x       y       z     vdW  Elec       q    Type
REMARK                         _______ _______ _______ _____ _____    ______ ____
ROOT
ATOM      1  C   UNL     1       2.474   4.871  20.412  0.00  0.00    +0.000 C 
ATOM      2  C   UNL     1       1.433   6.025  20.442  0.00  0.00    +0.000 C 
ATOM      3  C   UNL     1       2.073   7.393  20.191  0.00  0.00    +0.000 C 
ATOM      4  C   UNL     1       2.823   7.269  18.867  0.00  0.00    +0.000 C 
ATOM      5  O   UNL     1       2.467   7.861  17.849  0.00  0.00    +0.000 OA
ATOM      6  C   UNL     1       3.959   6.244  18.897  0.00  0.00    +0.000 C 
ATOM      7  C   UNL     1       3.316   4.826  19.075  0.00  0.00    +0.000 C 
ATOM      8  C   UNL     1       2.377   4.436  17.908  0.00  0.00    +0.000 C 
ATOM      9  C   UNL     1       4.456   3.778  19.176  0.00  0.00    +0.000 C 
ATOM     10  C   UNL     1       5.528   3.914  18.085  0.00  0.00    +0.000 C 
ATOM     11  C   UNL     1       6.150   5.316  18.096  0.00  0.00    +0.000 C 
ATOM     12  C   UNL     1       7.342   5.441  17.169  0.00  0.00    +0.000 C 
ATOM     13  O   UNL     1       7.907   4.471  16.677  0.00  0.00    +0.000 OA
ATOM     14  O   UNL     1       7.835   6.688  17.003  0.00  0.00    +0.000 OA
ATOM     15  C   UNL     1       7.090   7.908  17.236  0.00  0.00    +0.000 C 
ATOM     16  C   UNL     1       5.837   7.740  18.106  0.00  0.00    +0.000 C 
ATOM     17  C   UNL     1       5.097   6.414  17.834  0.00  0.00    +0.000 C 
ATOM     18  C   UNL     1       4.625   6.401  16.361  0.00  0.00    +0.000 C 
ENDROOT
BRANCH  15  19
ATOM     19  C   UNL     1       7.992   8.955  17.815  0.00  0.00    +0.000 A 
ATOM     20  C   UNL     1       8.856   8.825  18.941  0.00  0.00    +0.000 A 
ATOM     21  C   UNL     1       9.463  10.045  19.110  0.00  0.00    +0.000 A 
ATOM     22  O   UNL     1       9.034  10.922  18.167  0.00  0.00    +0.000 OA
ATOM     23  C   UNL     1       8.149  10.257  17.382  0.00  0.00    +0.000 A 
ENDBRANCH  15  19
BRANCH   1  24
ATOM     24  C   UNL     1       1.754   3.555  20.719  0.00  0.00    +0.000 C 
ATOM     25  O   UNL     1       2.139   2.734  21.535  0.00  0.00    +0.000 OA
BRANCH  24  27
ATOM     26  C   UNL     1       0.524   2.233  19.230  0.00  0.00    +0.000 C 
ATOM     27  O   UNL     1       0.618   3.452  19.981  0.00  0.00    +0.000 OA
ENDBRANCH  24  27
ENDBRANCH   1  24
BRANCH   3  28
ATOM     28  N   UNL     1       1.093   8.498  20.080  0.00  0.00    +0.000 NA
ATOM     29  H   UNL     1       0.282   8.282  19.493  0.00  0.00    +0.000 HD
BRANCH  28  30
ATOM     30  S   UNL     1       0.840   9.486  21.408  0.00  0.00    +0.000 S 
ATOM     31  C   UNL     1      -0.641   8.793  22.105  0.00  0.00    +0.000 C 
ATOM     32  O   UNL     1       1.918   9.260  22.340  0.00  0.00    +0.000 OA
ATOM     33  O   UNL     1       0.547  10.810  20.901  0.00  0.00    +0.000 OA
ENDBRANCH  28  30
ENDBRANCH   3  28
TORSDOF 5
ENDMDL
MODEL 4
REMARK VINA RESULT:      -7.7      0.814      1.165
REMARK  Name = 
REMARK  9 active torsions:
REMARK  status: ('A' for Active; 'I' for Inactive)
REMARK    1  A    between atoms: C_1  and  O_2
REMARK    2  A    between atoms: O_2  and  C_3
REMARK    3  A    between atoms: C_3  and  C_5
REMARK    4  A    between atoms: C_7  and  N_8
REMARK    5  A    between atoms: N_8  and  S_9
REMARK    6  A    between atoms: S_9  and  C_10
REMARK    7  A    between atoms: C_16  and  C_17
REMARK    8  A    between atoms: C_24  and  C_25
REMARK    9  A    between atoms: C_31  and  C_32
REMARK                            x       y       z     vdW  Elec       q    Type
REMARK                         _______ _______ _______ _____ _____    ______ ____
ROOT
ATOM      1  C   UNL     1       2.307   5.022  20.420  0.00  0.00    +0.000 C 
ATOM      2  C   UNL     1       1.311   6.216  20.411  0.00  0.00    +0.000 C 
ATOM      3  C   UNL     1       2.009   7.554  20.157  0.00  0.00    +0.000 C 
ATOM      4  C   UNL     1       2.781   7.383  18.851  0.00  0.00    +0.000 C 
ATOM      5  O   UNL     1       2.470   7.973  17.818  0.00  0.00    +0.000 OA
ATOM      6  C   UNL     1       3.876   6.315  18.919  0.00  0.00    +0.000 C 
ATOM      7  C   UNL     1       3.175   4.926  19.102  0.00  0.00    +0.000 C 
ATOM      8  C   UNL     1       2.247   4.555  17.920  0.00  0.00    +0.000 C 
ATOM      9  C   UNL     1       4.272   3.837  19.243  0.00  0.00    +0.000 C 
ATOM     10  C   UNL     1       5.371   3.917  18.174  0.00  0.00    +0.000 C 
ATOM     11  C   UNL     1       6.046   5.293  18.180  0.00  0.00    +0.000 C 
ATOM     12  C   UNL     1       7.261   5.359  17.277  0.00  0.00    +0.000 C 
ATOM     13  O   UNL     1       7.799   4.362  16.811  0.00  0.00    +0.000 OA
ATOM     14  O   UNL     1       7.806   6.584  17.105  0.00  0.00    +0.000 OA
ATOM     15  C   UNL     1       7.103   7.835  17.305  0.00  0.00    +0.000 C 
ATOM     16  C   UNL     1       5.827   7.727  18.150  0.00  0.00    +0.000 C 
ATOM     17  C   UNL     1       5.042   6.426  17.879  0.00  0.00    +0.000 C 
ATOM     18  C   UNL     1       4.601   6.411  16.397  0.00  0.00    +0.000 C 
ENDROOT
BRANCH  15  19
ATOM     19  C   UNL     1       8.032   8.855  17.889  0.00  0.00    +0.000 A 
ATOM     20  C   UNL     1       8.242  10.191  17.441  0.00  0.00    +0.000 A 
ATOM     21  C   UNL     1       9.196  10.735  18.266  0.00  0.00    +0.000 A 
ATOM     22  O   UNL     1       9.593   9.827  19.194  0.00  0.00    +0.000 OA
ATOM     23  C   UNL     1       8.883   8.693  18.966  0.00  0.00    +0.000 A 
ENDBRANCH  15  19
BRANCH   1  24
ATOM     24  C   UNL     1       1.530   3.739  20.729  0.00  0.00    +0.000 C 
ATOM     25  O   UNL     1       0.670   3.264  20.007  0.00  0.00    +0.000 OA
BRANCH  24  27
ATOM     26  C   UNL     1       2.586   1.914  21.745  0.00  0.00    +0.000 C 
ATOM     27  O   UNL     1       1.960   3.195  21.898  0.00  0.00    +0.000 OA
ENDBRANCH  24  27
ENDBRANCH   1  24
BRANCH   3  28
ATOM     28  N   UNL     1       1.074   8.694  20.009  0.00  0.00    +0.000 NA
ATOM     29  H   UNL     1       0.298   8.521  19.363  0.00  0.00    +0.000 HD
BRANCH  28  30
ATOM     30  S   UNL     1       0.763   9.658  21.343  0.00  0.00    +0.000 S 
ATOM     31  C   UNL     1      -0.644   8.843  22.064  0.00  0.00    +0.000 C 
ATOM     32  O   UNL     1       1.872   9.521  22.256  0.00  0.00    +0.000 OA
ATOM     33  O   UNL     1       0.352  10.952  20.843  0.00  0.00    +0.000 OA
ENDBRANCH  28  30
ENDBRANCH   3  28
TORSDOF 5
ENDMDL
MODEL 5
REMARK VINA RESULT:      -7.0      8.724     11.701
REMARK  Name = 
REMARK  9 active torsions:
REMARK  status: ('A' for Active; 'I' for Inactive)
REMARK    1  A    between atoms: C_1  and  O_2
REMARK    2  A    between atoms: O_2  and  C_3
REMARK    3  A    between atoms: C_3  and  C_5
REMARK    4  A    between atoms: C_7  and  N_8
REMARK    5  A    between atoms: N_8  and  S_9
REMARK    6  A    between atoms: S_9  and  C_10
REMARK    7  A    between atoms: C_16  and  C_17
REMARK    8  A    between atoms: C_24  and  C_25
REMARK    9  A    between atoms: C_31  and  C_32
REMARK                            x       y       z     vdW  Elec       q    Type
REMARK                         _______ _______ _______ _____ _____    ______ ____
ROOT
ATOM      1  C   UNL     1      -2.970  16.055  23.136  0.00  0.00    +0.000 C 
ATOM      2  C   UNL     1      -3.945  15.211  24.005  0.00  0.00    +0.000 C 
ATOM      3  C   UNL     1      -4.547  14.036  23.229  0.00  0.00    +0.000 C 
ATOM      4  C   UNL     1      -3.362  13.245  22.680  0.00  0.00    +0.000 C 
ATOM      5  O   UNL     1      -3.076  12.119  23.085  0.00  0.00    +0.000 OA
ATOM      6  C   UNL     1      -2.498  14.034  21.694  0.00  0.00    +0.000 C 
ATOM      7  C   UNL     1      -1.811  15.197  22.488  0.00  0.00    +0.000 C 
ATOM      8  C   UNL     1      -0.876  14.693  23.614  0.00  0.00    +0.000 C 
ATOM      9  C   UNL     1      -0.984  16.052  21.491  0.00  0.00    +0.000 C 
ATOM     10  C   UNL     1      -0.082  15.228  20.562  0.00  0.00    +0.000 C 
ATOM     11  C   UNL     1      -0.900  14.204  19.766  0.00  0.00    +0.000 C 
ATOM     12  C   UNL     1      -0.087  13.499  18.699  0.00  0.00    +0.000 C 
ATOM     13  O   UNL     1       1.015  13.891  18.334  0.00  0.00    +0.000 OA
ATOM     14  O   UNL     1      -0.698  12.469  18.072  0.00  0.00    +0.000 OA
ATOM     15  C   UNL     1      -1.809  11.716  18.615  0.00  0.00    +0.000 C 
ATOM     16  C   UNL     1      -2.564  12.413  19.755  0.00  0.00    +0.000 C 
ATOM     17  C   UNL     1      -1.626  13.205  20.692  0.00  0.00    +0.000 C 
ATOM     18  C   UNL     1      -0.631  12.219  21.349  0.00  0.00    +0.000 C 
ENDROOT
BRANCH  15  19
ATOM     19  C   UNL     1      -2.755  11.338  17.516  0.00  0.00    +0.000 A 
ATOM     20  C   UNL     1      -2.436  10.712  16.277  0.00  0.00    +0.000 A 
ATOM     21  C   UNL     1      -3.616  10.587  15.587  0.00  0.00    +0.000 A 
ATOM     22  O   UNL     1      -4.646  11.093  16.313  0.00  0.00    +0.000 OA
ATOM     23  C   UNL     1      -4.121  11.541  17.482  0.00  0.00    +0.000 A 
ENDBRANCH  15  19
BRANCH   1  24
ATOM     24  C   UNL     1      -2.459  17.229  23.976  0.00  0.00    +0.000 C 
ATOM     25  O   UNL     1      -2.007  18.263  23.511  0.00  0.00    +0.000 OA
BRANCH  24  27
ATOM     26  C   UNL     1      -1.614  17.580  26.130  0.00  0.00    +0.000 C 
ATOM     27  O   UNL     1      -2.611  16.966  25.300  0.00  0.00    +0.000 OA
ENDBRANCH  24  27
ENDBRANCH   1  24
BRANCH   3  28
ATOM     28  N   UNL     1      -5.375  13.134  24.063  0.00  0.00    +0.000 NA
ATOM     29  H   UNL     1      -5.229  13.242  25.071  0.00  0.00    +0.000 HD
BRANCH  28  30
ATOM     30  S   UNL     1      -6.922  12.755  23.546  0.00  0.00    +0.000 S 
ATOM     31  C   UNL     1      -7.901  13.975  24.391  0.00  0.00    +0.000 C 
ATOM     32  O   UNL     1      -6.996  13.028  22.131  0.00  0.00    +0.000 OA
ATOM     33  O   UNL     1      -7.237  11.446  24.078  0.00  0.00    +0.000 OA
ENDBRANCH  28  30
ENDBRANCH   3  28
TORSDOF 5
ENDMDL
MODEL 6
REMARK VINA RESULT:      -6.8      5.155     10.909
REMARK  Name = 
REMARK  9 active torsions:
REMARK  status: ('A' for Active; 'I' for Inactive)
REMARK    1  A    between atoms: C_1  and  O_2
REMARK    2  A    between atoms: O_2  and  C_3
REMARK    3  A    between atoms: C_3  and  C_5
REMARK    4  A    between atoms: C_7  and  N_8
REMARK    5  A    between atoms: N_8  and  S_9
REMARK    6  A    between atoms: S_9  and  C_10
REMARK    7  A    between atoms: C_16  and  C_17
REMARK    8  A    between atoms: C_24  and  C_25
REMARK    9  A    between atoms: C_31  and  C_32
REMARK                            x       y       z     vdW  Elec       q    Type
REMARK                         _______ _______ _______ _____ _____    ______ ____
ROOT
ATOM      1  C   UNL     1      -0.384   9.827  20.255  0.00  0.00    +0.000 C 
ATOM      2  C   UNL     1      -0.425   9.892  18.702  0.00  0.00    +0.000 C 
ATOM      3  C   UNL     1      -1.629  10.682  18.184  0.00  0.00    +0.000 C 
ATOM      4  C   UNL     1      -1.556  12.050  18.859  0.00  0.00    +0.000 C 
ATOM      5  O   UNL     1      -1.306  13.080  18.237  0.00  0.00    +0.000 OA
ATOM      6  C   UNL     1      -1.684  11.991  20.383  0.00  0.00    +0.000 C 
ATOM      7  C   UNL     1      -0.418  11.253  20.939  0.00  0.00    +0.000 C 
ATOM      8  C   UNL     1       0.903  11.991  20.618  0.00  0.00    +0.000 C 
ATOM      9  C   UNL     1      -0.562  11.122  22.479  0.00  0.00    +0.000 C 
ATOM     10  C   UNL     1      -0.960  12.428  23.182  0.00  0.00    +0.000 C 
ATOM     11  C   UNL     1      -2.272  12.982  22.614  0.00  0.00    +0.000 C 
ATOM     12  C   UNL     1      -2.804  14.162  23.401  0.00  0.00    +0.000 C 
ATOM     13  O   UNL     1      -2.386  14.465  24.511  0.00  0.00    +0.000 OA
ATOM     14  O   UNL     1      -3.865  14.803  22.862  0.00  0.00    +0.000 OA
ATOM     15  C   UNL     1      -4.223  14.770  21.459  0.00  0.00    +0.000 C 
ATOM     16  C   UNL     1      -3.601  13.615  20.663  0.00  0.00    +0.000 C 
ATOM     17  C   UNL     1      -2.157  13.297  21.107  0.00  0.00    +0.000 C 
ATOM     18  C   UNL     1      -1.274  14.542  20.857  0.00  0.00    +0.000 C 
ENDROOT
BRANCH  15  19
ATOM     19  C   UNL     1      -5.715  14.761  21.313  0.00  0.00    +0.000 A 
ATOM     20  C   UNL     1      -6.684  15.019  22.325  0.00  0.00    +0.000 A 
ATOM     21  C   UNL     1      -7.915  14.875  21.733  0.00  0.00    +0.000 A 
ATOM     22  O   UNL     1      -7.775  14.544  20.424  0.00  0.00    +0.000 OA
ATOM     23  C   UNL     1      -6.442  14.482  20.172  0.00  0.00    +0.000 A 
ENDBRANCH  15  19
BRANCH   1  24
ATOM     24  C   UNL     1       0.820   8.981  20.678  0.00  0.00    +0.000 C 
ATOM     25  O   UNL     1       1.042   8.624  21.824  0.00  0.00    +0.000 OA
BRANCH  24  27
ATOM     26  C   UNL     1       2.234   7.390  19.705  0.00  0.00    +0.000 C 
ATOM     27  O   UNL     1       1.578   8.662  19.597  0.00  0.00    +0.000 OA
ENDBRANCH  24  27
ENDBRANCH   1  24
BRANCH   3  28
ATOM     28  N   UNL     1      -1.625  10.877  16.716  0.00  0.00    +0.000 NA
ATOM     29  H   UNL     1      -0.703  10.781  16.281  0.00  0.00    +0.000 HD
BRANCH  28  30
ATOM     30  S   UNL     1      -2.950  10.359  15.832  0.00  0.00    +0.000 S 
ATOM     31  C   UNL     1      -4.252  11.373  16.494  0.00  0.00    +0.000 C 
ATOM     32  O   UNL     1      -2.743  10.745  14.456  0.00  0.00    +0.000 OA
ATOM     33  O   UNL     1      -3.192   8.981  16.200  0.00  0.00    +0.000 OA
ENDBRANCH  28  30
ENDBRANCH   3  28
TORSDOF 5
ENDMDL
MODEL 7
REMARK VINA RESULT:      -6.5      9.604     11.460
REMARK  Name = 
REMARK  9 active torsions:
REMARK  status: ('A' for Active; 'I' for Inactive)
REMARK    1  A    between atoms: C_1  and  O_2
REMARK    2  A    between atoms: O_2  and  C_3
REMARK    3  A    between atoms: C_3  and  C_5
REMARK    4  A    between atoms: C_7  and  N_8
REMARK    5  A    between atoms: N_8  and  S_9
REMARK    6  A    between atoms: S_9  and  C_10
REMARK    7  A    between atoms: C_16  and  C_17
REMARK    8  A    between atoms: C_24  and  C_25
REMARK    9  A    between atoms: C_31  and  C_32
REMARK                            x       y       z     vdW  Elec       q    Type
REMARK                         _______ _______ _______ _____ _____    ______ ____
ROOT
ATOM      1  C   UNL     1      -5.188  13.503  22.527  0.00  0.00    +0.000 C 
ATOM      2  C   UNL     1      -5.463  12.521  21.354  0.00  0.00    +0.000 C 
ATOM      3  C   UNL     1      -4.622  12.844  20.115  0.00  0.00    +0.000 C 
ATOM      4  C   UNL     1      -3.170  12.855  20.586  0.00  0.00    +0.000 C 
ATOM      5  O   UNL     1      -2.358  12.000  20.239  0.00  0.00    +0.000 OA
ATOM      6  C   UNL     1      -2.868  13.938  21.624  0.00  0.00    +0.000 C 
ATOM      7  C   UNL     1      -3.660  13.582  22.928  0.00  0.00    +0.000 C 
ATOM      8  C   UNL     1      -3.236  12.227  23.543  0.00  0.00    +0.000 C 
ATOM      9  C   UNL     1      -3.421  14.706  23.971  0.00  0.00    +0.000 C 
ATOM     10  C   UNL     1      -1.945  15.090  24.148  0.00  0.00    +0.000 C 
ATOM     11  C   UNL     1      -1.325  15.522  22.813  0.00  0.00    +0.000 C 
ATOM     12  C   UNL     1       0.070  16.091  22.967  0.00  0.00    +0.000 C 
ATOM     13  O   UNL     1       0.540  16.419  24.050  0.00  0.00    +0.000 OA
ATOM     14  O   UNL     1       0.739  16.338  21.819  0.00  0.00    +0.000 OA
ATOM     15  C   UNL     1       0.456  15.707  20.547  0.00  0.00    +0.000 C 
ATOM     16  C   UNL     1      -0.933  15.060  20.445  0.00  0.00    +0.000 C 
ATOM     17  C   UNL     1      -1.375  14.391  21.764  0.00  0.00    +0.000 C 
ATOM     18  C   UNL     1      -0.377  13.260  22.107  0.00  0.00    +0.000 C 
ENDROOT
BRANCH  15  19
ATOM     19  C   UNL     1       0.657  16.689  19.433  0.00  0.00    +0.000 A 
ATOM     20  C   UNL     1      -0.216  16.942  18.336  0.00  0.00    +0.000 A 
ATOM     21  C   UNL     1       0.393  17.901  17.565  0.00  0.00    +0.000 A 
ATOM     22  O   UNL     1       1.585  18.259  18.109  0.00  0.00    +0.000 OA
ATOM     23  C   UNL     1       1.737  17.527  19.242  0.00  0.00    +0.000 A 
ENDBRANCH  15  19
BRANCH   1  24
ATOM     24  C   UNL     1      -6.103  13.136  23.698  0.00  0.00    +0.000 C 
ATOM     25  O   UNL     1      -6.259  12.002  24.121  0.00  0.00    +0.000 OA
BRANCH  24  27
ATOM     26  C   UNL     1      -7.324  15.076  23.227  0.00  0.00    +0.000 C 
ATOM     27  O   UNL     1      -6.686  14.250  24.212  0.00  0.00    +0.000 OA
ENDBRANCH  24  27
ENDBRANCH   1  24
BRANCH   3  28
ATOM     28  N   UNL     1      -4.761  11.849  19.027  0.00  0.00    +0.000 NA
ATOM     29  H   UNL     1      -4.582  10.883  19.315  0.00  0.00    +0.000 HD
BRANCH  28  30
ATOM     30  S   UNL     1      -5.931  12.098  17.854  0.00  0.00    +0.000 S 
ATOM     31  C   UNL     1      -6.521  13.724  18.264  0.00  0.00    +0.000 C 
ATOM     32  O   UNL     1      -5.266  12.175  16.575  0.00  0.00    +0.000 OA
ATOM     33  O   UNL     1      -6.986  11.137  18.098  0.00  0.00    +0.000 OA
ENDBRANCH  28  30
ENDBRANCH   3  28
TORSDOF 5
ENDMDL
MODEL 8
REMARK VINA RESULT:      -6.3      5.176     10.792
REMARK  Name = 
REMARK  9 active torsions:
REMARK  status: ('A' for Active; 'I' for Inactive)
REMARK    1  A    between atoms: C_1  and  O_2
REMARK    2  A    between atoms: O_2  and  C_3
REMARK    3  A    between atoms: C_3  and  C_5
REMARK    4  A    between atoms: C_7  and  N_8
REMARK    5  A    between atoms: N_8  and  S_9
REMARK    6  A    between atoms: S_9  and  C_10
REMARK    7  A    between atoms: C_16  and  C_17
REMARK    8  A    between atoms: C_24  and  C_25
REMARK    9  A    between atoms: C_31  and  C_32
REMARK                            x       y       z     vdW  Elec       q    Type
REMARK                         _______ _______ _______ _____ _____    ______ ____
ROOT
ATOM      1  C   UNL     1      -0.337   9.635  20.098  0.00  0.00    +0.000 C 
ATOM      2  C   UNL     1      -0.439   9.660  18.547  0.00  0.00    +0.000 C 
ATOM      3  C   UNL     1      -1.680  10.411  18.057  0.00  0.00    +0.000 C 
ATOM      4  C   UNL     1      -1.611  11.796  18.696  0.00  0.00    +0.000 C 
ATOM      5  O   UNL     1      -1.408  12.816  18.039  0.00  0.00    +0.000 OA
ATOM      6  C   UNL     1      -1.679  11.773  20.225  0.00  0.00    +0.000 C 
ATOM      7  C   UNL     1      -0.377  11.076  20.749  0.00  0.00    +0.000 C 
ATOM      8  C   UNL     1       0.915  11.833  20.358  0.00  0.00    +0.000 C 
ATOM      9  C   UNL     1      -0.458  10.981  22.296  0.00  0.00    +0.000 C 
ATOM     10  C   UNL     1      -0.857  12.295  22.981  0.00  0.00    +0.000 C 
ATOM     11  C   UNL     1      -2.202  12.806  22.452  0.00  0.00    +0.000 C 
ATOM     12  C   UNL     1      -2.730  13.994  23.230  0.00  0.00    +0.000 C 
ATOM     13  O   UNL     1      -2.275  14.334  24.316  0.00  0.00    +0.000 OA
ATOM     14  O   UNL     1      -3.825  14.599  22.718  0.00  0.00    +0.000 OA
ATOM     15  C   UNL     1      -4.236  14.524  21.332  0.00  0.00    +0.000 C 
ATOM     16  C   UNL     1      -3.619  13.362  20.540  0.00  0.00    +0.000 C 
ATOM     17  C   UNL     1      -2.153  13.086  20.935  0.00  0.00    +0.000 C 
ATOM     18  C   UNL     1      -1.308  14.343  20.620  0.00  0.00    +0.000 C 
ENDROOT
BRANCH  15  19
ATOM     19  C   UNL     1      -5.731  14.479  21.244  0.00  0.00    +0.000 A 
ATOM     20  C   UNL     1      -6.523  14.237  20.084  0.00  0.00    +0.000 A 
ATOM     21  C   UNL     1      -7.834  14.316  20.483  0.00  0.00    +0.000 A 
ATOM     22  O   UNL     1      -7.910  14.591  21.810  0.00  0.00    +0.000 OA
ATOM     23  C   UNL     1      -6.636  14.683  22.268  0.00  0.00    +0.000 A 
ENDBRANCH  15  19
BRANCH   1  24
ATOM     24  C   UNL     1       0.900   8.825  20.495  0.00  0.00    +0.000 C 
ATOM     25  O   UNL     1       1.202   8.546  21.643  0.00  0.00    +0.000 OA
BRANCH  24  27
ATOM     26  C   UNL     1       2.366   7.249  19.576  0.00  0.00    +0.000 C 
ATOM     27  O   UNL     1       1.589   8.440  19.388  0.00  0.00    +0.000 OA
ENDBRANCH  24  27
ENDBRANCH   1  24
BRANCH   3  28
ATOM     28  N   UNL     1      -1.737  10.569  16.586  0.00  0.00    +0.000 NA
ATOM     29  H   UNL     1      -0.922  10.196  16.091  0.00  0.00    +0.000 HD
BRANCH  28  30
ATOM     30  S   UNL     1      -3.223  10.450  15.821  0.00  0.00    +0.000 S 
ATOM     31  C   UNL     1      -2.760   9.842  14.215  0.00  0.00    +0.000 C 
ATOM     32  O   UNL     1      -3.981   9.417  16.485  0.00  0.00    +0.000 OA
ATOM     33  O   UNL     1      -3.739  11.795  15.685  0.00  0.00    +0.000 OA
ENDBRANCH  28  30
ENDBRANCH   3  28
TORSDOF 5
ENDMDL
MODEL 9
REMARK VINA RESULT:      -6.3      9.251     11.153
REMARK  Name = 
REMARK  9 active torsions:
REMARK  status: ('A' for Active; 'I' for Inactive)
REMARK    1  A    between atoms: C_1  and  O_2
REMARK    2  A    between atoms: O_2  and  C_3
REMARK    3  A    between atoms: C_3  and  C_5
REMARK    4  A    between atoms: C_7  and  N_8
REMARK    5  A    between atoms: N_8  and  S_9
REMARK    6  A    between atoms: S_9  and  C_10
REMARK    7  A    between atoms: C_16  and  C_17
REMARK    8  A    between atoms: C_24  and  C_25
REMARK    9  A    between atoms: C_31  and  C_32
REMARK                            x       y       z     vdW  Elec       q    Type
REMARK                         _______ _______ _______ _____ _____    ______ ____
ROOT
ATOM      1  C   UNL     1      -4.662  13.483  22.595  0.00  0.00    +0.000 C 
ATOM      2  C   UNL     1      -5.111  12.517  21.463  0.00  0.00    +0.000 C 
ATOM      3  C   UNL     1      -4.447  12.842  20.122  0.00  0.00    +0.000 C 
ATOM      4  C   UNL     1      -2.943  12.831  20.386  0.00  0.00    +0.000 C 
ATOM      5  O   UNL     1      -2.198  11.969  19.922  0.00  0.00    +0.000 OA
ATOM      6  C   UNL     1      -2.485  13.899  21.381  0.00  0.00    +0.000 C 
ATOM      7  C   UNL     1      -3.092  13.539  22.780  0.00  0.00    +0.000 C 
ATOM      8  C   UNL     1      -2.605  12.172  23.318  0.00  0.00    +0.000 C 
ATOM      9  C   UNL     1      -2.695  14.650  23.789  0.00  0.00    +0.000 C 
ATOM     10  C   UNL     1      -1.204  15.014  23.761  0.00  0.00    +0.000 C 
ATOM     11  C   UNL     1      -0.770  15.452  22.357  0.00  0.00    +0.000 C 
ATOM     12  C   UNL     1       0.641  16.002  22.320  0.00  0.00    +0.000 C 
ATOM     13  O   UNL     1       1.261  16.313  23.330  0.00  0.00    +0.000 OA
ATOM     14  O   UNL     1       1.147  16.252  21.092  0.00  0.00    +0.000 OA
ATOM     15  C   UNL     1       0.681  15.637  19.866  0.00  0.00    +0.000 C 
ATOM     16  C   UNL     1      -0.717  15.009  19.954  0.00  0.00    +0.000 C 
ATOM     17  C   UNL     1      -0.980  14.332  21.316  0.00  0.00    +0.000 C 
ATOM     18  C   UNL     1       0.040  13.185  21.507  0.00  0.00    +0.000 C 
ENDROOT
BRANCH  15  19
ATOM     19  C   UNL     1       0.738  16.628  18.744  0.00  0.00    +0.000 A 
ATOM     20  C   UNL     1       1.903  17.178  18.135  0.00  0.00    +0.000 A 
ATOM     21  C   UNL     1       1.465  18.054  17.173  0.00  0.00    +0.000 A 
ATOM     22  O   UNL     1       0.108  18.086  17.144  0.00  0.00    +0.000 OA
ATOM     23  C   UNL     1      -0.327  17.218  18.092  0.00  0.00    +0.000 A 
ENDBRANCH  15  19
BRANCH   1  24
ATOM     24  C   UNL     1      -5.410  13.115  23.879  0.00  0.00    +0.000 C 
ATOM     25  O   UNL     1      -5.212  12.099  24.524  0.00  0.00    +0.000 OA
BRANCH  24  27
ATOM     26  C   UNL     1      -7.663  13.656  24.215  0.00  0.00    +0.000 C 
ATOM     27  O   UNL     1      -6.296  14.092  24.208  0.00  0.00    +0.000 OA
ENDBRANCH  24  27
ENDBRANCH   1  24
BRANCH   3  28
ATOM     28  N   UNL     1      -4.749  11.860  19.056  0.00  0.00    +0.000 NA
ATOM     29  H   UNL     1      -4.388  10.919  19.235  0.00  0.00    +0.000 HD
BRANCH  28  30
ATOM     30  S   UNL     1      -6.207  11.981  18.240  0.00  0.00    +0.000 S 
ATOM     31  C   UNL     1      -7.027  10.481  18.729  0.00  0.00    +0.000 C 
ATOM     32  O   UNL     1      -6.939  13.090  18.803  0.00  0.00    +0.000 OA
ATOM     33  O   UNL     1      -5.908  11.916  16.825  0.00  0.00    +0.000 OA
ENDBRANCH  28  30
ENDBRANCH   3  28
TORSDOF 5
ENDMDL
