MODEL 1
REMARK VINA RESULT:      -8.0      0.000      0.000
REMARK  Name = 
REMARK  7 active torsions:
REMARK  status: ('A' for Active; 'I' for Inactive)
REMARK    1  A    between atoms: C_1  and  S_2
REMARK    2  A    between atoms: S_2  and  C_3
REMARK    3  A    between atoms: C_5  and  C_6
REMARK    4  A    between atoms: C_10  and  S_11
REMARK    5  A    between atoms: S_11  and  C_14
REMARK    6  A    between atoms: C_18  and  C_19
REMARK    7  A    between atoms: C_24  and  O_25
REMARK                            x       y       z     vdW  Elec       q    Type
REMARK                         _______ _______ _______ _____ _____    ______ ____
ROOT
ATOM      1  S   UNL     1       3.455   3.260  17.697  0.00  0.00    +0.000 S 
ATOM      2  O   UNL     1       2.495   3.140  16.613  0.00  0.00    +0.000 OA
ATOM      3  O   UNL     1       3.994   2.082  18.353  0.00  0.00    +0.000 OA
ENDROOT
BRANCH   1   4
ATOM      4  C   UNL     1       2.706   4.291  18.928  0.00  0.00    +0.000 A 
ATOM      5  C   UNL     1       2.577   3.808  20.234  0.00  0.00    +0.000 A 
ATOM      6  C   UNL     1       2.081   4.639  21.229  0.00  0.00    +0.000 A 
ATOM      7  C   UNL     1       1.787   5.977  20.942  0.00  0.00    +0.000 A 
ATOM      8  C   UNL     1       1.914   6.494  19.635  0.00  0.00    +0.000 A 
ATOM      9  C   UNL     1       2.281   5.585  18.619  0.00  0.00    +0.000 A 
BRANCH   8  10
ATOM     10  C   UNL     1       1.754   7.956  19.363  0.00  0.00    +0.000 A 
ATOM     11  C   UNL     1       2.191   8.528  18.148  0.00  0.00    +0.000 A 
ATOM     12  C   UNL     1       1.998   9.884  17.850  0.00  0.00    +0.000 A 
ATOM     13  C   UNL     1       1.369  10.715  18.770  0.00  0.00    +0.000 A 
ATOM     14  C   UNL     1       0.907  10.186  19.969  0.00  0.00    +0.000 A 
ATOM     15  C   UNL     1       1.083   8.827  20.252  0.00  0.00    +0.000 A 
BRANCH  15  16
ATOM     16  O   UNL     1       0.543   8.347  21.417  0.00  0.00    +0.000 OA
ATOM     17  H   UNL     1       1.086   7.610  21.739  0.00  0.00    +0.000 HD
ENDBRANCH  15  16
ENDBRANCH   8  10
ENDBRANCH   1   4
BRANCH   1  22
ATOM     18  C   UNL     1       5.879   4.667  17.568  0.00  0.00    +0.000 A 
ATOM     19  S   UNL     1       7.126   5.104  16.463  0.00  0.00    +0.000 S 
ATOM     20  C   UNL     1       6.328   4.395  15.130  0.00  0.00    +0.000 A 
ATOM     21  C   UNL     1       5.145   3.806  15.534  0.00  0.00    +0.000 A 
ATOM     22  C   UNL     1       4.859   3.981  16.940  0.00  0.00    +0.000 A 
BRANCH  20  23
ATOM     23  C   UNL     1       6.911   4.464  13.794  0.00  0.00    +0.000 C 
ATOM     24  N   UNL     1       7.788   5.364  13.482  0.00  0.00    +0.000 NA
ATOM     25  N   UNL     1       6.591   3.612  12.773  0.00  0.00    +0.000 N 
ATOM     26  H   UNL     1       7.964   5.970  14.295  0.00  0.00    +0.000 HD
ATOM     27  H   UNL     1       6.397   2.656  13.027  0.00  0.00    +0.000 HD
ATOM     28  H   UNL     1       7.246   3.700  12.006  0.00  0.00    +0.000 HD
ENDBRANCH  20  23
BRANCH  18  30
ATOM     29  C   UNL     1       7.740   5.806  19.213  0.00  0.00    +0.000 C 
ATOM     30  S   UNL     1       6.063   5.124  19.256  0.00  0.00    +0.000 S 
ENDBRANCH  18  30
ENDBRANCH   1  22
TORSDOF 6
ENDMDL
MODEL 2
REMARK VINA RESULT:      -7.8      0.949      1.335
REMARK  Name = 
REMARK  7 active torsions:
REMARK  status: ('A' for Active; 'I' for Inactive)
REMARK    1  A    between atoms: C_1  and  S_2
REMARK    2  A    between atoms: S_2  and  C_3
REMARK    3  A    between atoms: C_5  and  C_6
REMARK    4  A    between atoms: C_10  and  S_11
REMARK    5  A    between atoms: S_11  and  C_14
REMARK    6  A    between atoms: C_18  and  C_19
REMARK    7  A    between atoms: C_24  and  O_25
REMARK                            x       y       z     vdW  Elec       q    Type
REMARK                         _______ _______ _______ _____ _____    ______ ____
ROOT
ATOM      1  S   UNL     1       3.412   3.307  17.697  0.00  0.00    +0.000 S 
ATOM      2  O   UNL     1       2.451   3.198  16.615  0.00  0.00    +0.000 OA
ATOM      3  O   UNL     1       3.935   2.124  18.356  0.00  0.00    +0.000 OA
ENDROOT
BRANCH   1   4
ATOM      4  C   UNL     1       2.679   4.352  18.926  0.00  0.00    +0.000 A 
ATOM      5  C   UNL     1       2.590   3.894  20.245  0.00  0.00    +0.000 A 
ATOM      6  C   UNL     1       2.107   4.738  21.235  0.00  0.00    +0.000 A 
ATOM      7  C   UNL     1       1.784   6.065  20.928  0.00  0.00    +0.000 A 
ATOM      8  C   UNL     1       1.868   6.556  19.608  0.00  0.00    +0.000 A 
ATOM      9  C   UNL     1       2.225   5.632  18.602  0.00  0.00    +0.000 A 
BRANCH   8  10
ATOM     10  C   UNL     1       1.678   8.009  19.310  0.00  0.00    +0.000 A 
ATOM     11  C   UNL     1       0.962   8.851  20.190  0.00  0.00    +0.000 A 
ATOM     12  C   UNL     1       0.822  10.226  19.958  0.00  0.00    +0.000 A 
ATOM     13  C   UNL     1       1.387  10.801  18.826  0.00  0.00    +0.000 A 
ATOM     14  C   UNL     1       2.114  10.010  17.945  0.00  0.00    +0.000 A 
ATOM     15  C   UNL     1       2.270   8.642  18.193  0.00  0.00    +0.000 A 
BRANCH  15  16
ATOM     16  O   UNL     1       3.058   7.927  17.329  0.00  0.00    +0.000 OA
ATOM     17  H   UNL     1       3.429   7.161  17.796  0.00  0.00    +0.000 HD
ENDBRANCH  15  16
ENDBRANCH   8  10
ENDBRANCH   1   4
BRANCH   1  22
ATOM     18  C   UNL     1       5.853   4.684  17.564  0.00  0.00    +0.000 A 
ATOM     19  S   UNL     1       7.107   5.100  16.458  0.00  0.00    +0.000 S 
ATOM     20  C   UNL     1       6.302   4.392  15.128  0.00  0.00    +0.000 A 
ATOM     21  C   UNL     1       5.112   3.820  15.534  0.00  0.00    +0.000 A 
ATOM     22  C   UNL     1       4.826   4.007  16.939  0.00  0.00    +0.000 A 
BRANCH  20  23
ATOM     23  C   UNL     1       6.887   4.447  13.793  0.00  0.00    +0.000 C 
ATOM     24  N   UNL     1       7.770   5.339  13.474  0.00  0.00    +0.000 NA
ATOM     25  N   UNL     1       6.564   3.587  12.779  0.00  0.00    +0.000 N 
ATOM     26  H   UNL     1       7.949   5.950  14.282  0.00  0.00    +0.000 HD
ATOM     27  H   UNL     1       6.364   2.635  13.040  0.00  0.00    +0.000 HD
ATOM     28  H   UNL     1       7.221   3.665  12.011  0.00  0.00    +0.000 HD
ENDBRANCH  20  23
BRANCH  18  30
ATOM     29  C   UNL     1       7.725   5.813  19.204  0.00  0.00    +0.000 C 
ATOM     30  S   UNL     1       6.040   5.150  19.249  0.00  0.00    +0.000 S 
ENDBRANCH  18  30
ENDBRANCH   1  22
TORSDOF 6
ENDMDL
MODEL 3
REMARK VINA RESULT:      -7.7      2.484      4.011
REMARK  Name = 
REMARK  7 active torsions:
REMARK  status: ('A' for Active; 'I' for Inactive)
REMARK    1  A    between atoms: C_1  and  S_2
REMARK    2  A    between atoms: S_2  and  C_3
REMARK    3  A    between atoms: C_5  and  C_6
REMARK    4  A    between atoms: C_10  and  S_11
REMARK    5  A    between atoms: S_11  and  C_14
REMARK    6  A    between atoms: C_18  and  C_19
REMARK    7  A    between atoms: C_24  and  O_25
REMARK                            x       y       z     vdW  Elec       q    Type
REMARK                         _______ _______ _______ _____ _____    ______ ____
ROOT
ATOM      1  S   UNL     1       2.513   5.765  19.393  0.00  0.00    +0.000 S 
ATOM      2  O   UNL     1       1.605   4.998  18.559  0.00  0.00    +0.000 OA
ATOM      3  O   UNL     1       2.632   5.495  20.815  0.00  0.00    +0.000 OA
ENDROOT
BRANCH   1   4
ATOM      4  C   UNL     1       2.080   7.470  19.183  0.00  0.00    +0.000 A 
ATOM      5  C   UNL     1       2.296   8.080  17.943  0.00  0.00    +0.000 A 
ATOM      6  C   UNL     1       1.873   9.386  17.735  0.00  0.00    +0.000 A 
ATOM      7  C   UNL     1       1.165  10.060  18.736  0.00  0.00    +0.000 A 
ATOM      8  C   UNL     1       0.927   9.469  19.994  0.00  0.00    +0.000 A 
ATOM      9  C   UNL     1       1.496   8.197  20.223  0.00  0.00    +0.000 A 
BRANCH   8  10
ATOM     10  C   UNL     1       0.037  10.125  21.001  0.00  0.00    +0.000 A 
ATOM     11  C   UNL     1      -0.075   9.626  22.317  0.00  0.00    +0.000 A 
ATOM     12  C   UNL     1      -0.859  10.260  23.291  0.00  0.00    +0.000 A 
ATOM     13  C   UNL     1      -1.567  11.412  22.971  0.00  0.00    +0.000 A 
ATOM     14  C   UNL     1      -1.469  11.945  21.692  0.00  0.00    +0.000 A 
ATOM     15  C   UNL     1      -0.668  11.320  20.730  0.00  0.00    +0.000 A 
BRANCH  15  16
ATOM     16  O   UNL     1      -0.553  11.931  19.508  0.00  0.00    +0.000 OA
ATOM     17  H   UNL     1       0.125  12.624  19.562  0.00  0.00    +0.000 HD
ENDBRANCH  15  16
ENDBRANCH   8  10
ENDBRANCH   1   4
BRANCH   1  22
ATOM     18  C   UNL     1       4.735   4.143  18.842  0.00  0.00    +0.000 A 
ATOM     19  S   UNL     1       6.236   4.155  17.996  0.00  0.00    +0.000 S 
ATOM     20  C   UNL     1       6.069   5.788  17.526  0.00  0.00    +0.000 A 
ATOM     21  C   UNL     1       4.870   6.301  17.982  0.00  0.00    +0.000 A 
ATOM     22  C   UNL     1       4.100   5.366  18.771  0.00  0.00    +0.000 A 
BRANCH  20  23
ATOM     23  C   UNL     1       7.114   6.447  16.750  0.00  0.00    +0.000 C 
ATOM     24  N   UNL     1       7.595   5.917  15.671  0.00  0.00    +0.000 NA
ATOM     25  N   UNL     1       7.672   7.651  17.082  0.00  0.00    +0.000 N 
ATOM     26  H   UNL     1       7.135   5.014  15.497  0.00  0.00    +0.000 HD
ATOM     27  H   UNL     1       7.060   8.332  17.504  0.00  0.00    +0.000 HD
ATOM     28  H   UNL     1       8.222   8.022  16.316  0.00  0.00    +0.000 HD
ENDBRANCH  20  23
BRANCH  18  30
ATOM     29  C   UNL     1       3.402   1.829  18.261  0.00  0.00    +0.000 C 
ATOM     30  S   UNL     1       4.240   2.656  19.638  0.00  0.00    +0.000 S 
ENDBRANCH  18  30
ENDBRANCH   1  22
TORSDOF 6
ENDMDL
MODEL 4
REMARK VINA RESULT:      -7.7      2.358      3.853
REMARK  Name = 
REMARK  7 active torsions:
REMARK  status: ('A' for Active; 'I' for Inactive)
REMARK    1  A    between atoms: C_1  and  S_2
REMARK    2  A    between atoms: S_2  and  C_3
REMARK    3  A    between atoms: C_5  and  C_6
REMARK    4  A    between atoms: C_10  and  S_11
REMARK    5  A    between atoms: S_11  and  C_14
REMARK    6  A    between atoms: C_18  and  C_19
REMARK    7  A    between atoms: C_24  and  O_25
REMARK                            x       y       z     vdW  Elec       q    Type
REMARK                         _______ _______ _______ _____ _____    ______ ____
ROOT
ATOM      1  S   UNL     1       2.471   5.744  19.485  0.00  0.00    +0.000 S 
ATOM      2  O   UNL     1       1.567   4.947  18.675  0.00  0.00    +0.000 OA
ATOM      3  O   UNL     1       2.594   5.517  20.914  0.00  0.00    +0.000 OA
ENDROOT
BRANCH   1   4
ATOM      4  C   UNL     1       2.027   7.440  19.226  0.00  0.00    +0.000 A 
ATOM      5  C   UNL     1       2.069   7.964  17.929  0.00  0.00    +0.000 A 
ATOM      6  C   UNL     1       1.632   9.261  17.697  0.00  0.00    +0.000 A 
ATOM      7  C   UNL     1       1.080  10.012  18.742  0.00  0.00    +0.000 A 
ATOM      8  C   UNL     1       1.021   9.507  20.059  0.00  0.00    +0.000 A 
ATOM      9  C   UNL     1       1.605   8.242  20.287  0.00  0.00    +0.000 A 
BRANCH   8  10
ATOM     10  C   UNL     1       0.290  10.243  21.136  0.00  0.00    +0.000 A 
ATOM     11  C   UNL     1       0.258  11.654  21.169  0.00  0.00    +0.000 A 
ATOM     12  C   UNL     1      -0.469  12.362  22.137  0.00  0.00    +0.000 A 
ATOM     13  C   UNL     1      -1.180  11.673  23.112  0.00  0.00    +0.000 A 
ATOM     14  C   UNL     1      -1.190  10.284  23.103  0.00  0.00    +0.000 A 
ATOM     15  C   UNL     1      -0.480   9.583  22.121  0.00  0.00    +0.000 A 
BRANCH  15  16
ATOM     16  O   UNL     1      -0.586   8.216  22.119  0.00  0.00    +0.000 OA
ATOM     17  H   UNL     1      -1.402   7.961  21.659  0.00  0.00    +0.000 HD
ENDBRANCH  15  16
ENDBRANCH   8  10
ENDBRANCH   1   4
BRANCH   1  22
ATOM     18  C   UNL     1       4.705   4.122  18.984  0.00  0.00    +0.000 A 
ATOM     19  S   UNL     1       6.203   4.116  18.133  0.00  0.00    +0.000 S 
ATOM     20  C   UNL     1       6.021   5.731  17.606  0.00  0.00    +0.000 A 
ATOM     21  C   UNL     1       4.819   6.249  18.048  0.00  0.00    +0.000 A 
ATOM     22  C   UNL     1       4.060   5.336  18.872  0.00  0.00    +0.000 A 
BRANCH  20  23
ATOM     23  C   UNL     1       7.058   6.371  16.804  0.00  0.00    +0.000 C 
ATOM     24  N   UNL     1       7.621   7.476  17.177  0.00  0.00    +0.000 NA
ATOM     25  N   UNL     1       7.519   5.879  15.613  0.00  0.00    +0.000 N 
ATOM     26  H   UNL     1       7.214   7.784  18.070  0.00  0.00    +0.000 HD
ATOM     27  H   UNL     1       7.572   4.876  15.528  0.00  0.00    +0.000 HD
ATOM     28  H   UNL     1       8.366   6.354  15.326  0.00  0.00    +0.000 HD
ENDBRANCH  20  23
BRANCH  18  30
ATOM     29  C   UNL     1       3.413   1.766  18.483  0.00  0.00    +0.000 C 
ATOM     30  S   UNL     1       4.225   2.660  19.834  0.00  0.00    +0.000 S 
ENDBRANCH  18  30
ENDBRANCH   1  22
TORSDOF 6
ENDMDL
MODEL 5
REMARK VINA RESULT:      -7.6      5.210      8.471
REMARK  Name = 
REMARK  7 active torsions:
REMARK  status: ('A' for Active; 'I' for Inactive)
REMARK    1  A    between atoms: C_1  and  S_2
REMARK    2  A    between atoms: S_2  and  C_3
REMARK    3  A    between atoms: C_5  and  C_6
REMARK    4  A    between atoms: C_10  and  S_11
REMARK    5  A    between atoms: S_11  and  C_14
REMARK    6  A    between atoms: C_18  and  C_19
REMARK    7  A    between atoms: C_24  and  O_25
REMARK                            x       y       z     vdW  Elec       q    Type
REMARK                         _______ _______ _______ _____ _____    ______ ____
ROOT
ATOM      1  S   UNL     1       0.715  10.090  20.011  0.00  0.00    +0.000 S 
ATOM      2  O   UNL     1       1.610  11.230  19.914  0.00  0.00    +0.000 OA
ATOM      3  O   UNL     1       0.235   9.623  21.299  0.00  0.00    +0.000 OA
ENDROOT
BRANCH   1   4
ATOM      4  C   UNL     1       1.520   8.740  19.192  0.00  0.00    +0.000 A 
ATOM      5  C   UNL     1       2.465   9.013  18.198  0.00  0.00    +0.000 A 
ATOM      6  C   UNL     1       3.172   7.970  17.616  0.00  0.00    +0.000 A 
ATOM      7  C   UNL     1       2.995   6.660  18.078  0.00  0.00    +0.000 A 
ATOM      8  C   UNL     1       2.053   6.356  19.083  0.00  0.00    +0.000 A 
ATOM      9  C   UNL     1       1.249   7.418  19.551  0.00  0.00    +0.000 A 
BRANCH   8  10
ATOM     10  C   UNL     1       1.978   4.989  19.685  0.00  0.00    +0.000 A 
ATOM     11  C   UNL     1       2.281   4.769  21.047  0.00  0.00    +0.000 A 
ATOM     12  C   UNL     1       2.161   3.506  21.643  0.00  0.00    +0.000 A 
ATOM     13  C   UNL     1       1.745   2.418  20.887  0.00  0.00    +0.000 A 
ATOM     14  C   UNL     1       1.420   2.596  19.548  0.00  0.00    +0.000 A 
ATOM     15  C   UNL     1       1.520   3.863  18.963  0.00  0.00    +0.000 A 
BRANCH  15  16
ATOM     16  O   UNL     1       1.117   3.993  17.659  0.00  0.00    +0.000 OA
ATOM     17  H   UNL     1       0.161   3.834  17.604  0.00  0.00    +0.000 HD
ENDBRANCH  15  16
ENDBRANCH   8  10
ENDBRANCH   1   4
BRANCH   1  22
ATOM     18  C   UNL     1      -1.675  11.524  19.687  0.00  0.00    +0.000 A 
ATOM     19  S   UNL     1      -2.895  11.863  18.519  0.00  0.00    +0.000 S 
ATOM     20  C   UNL     1      -2.208  10.817  17.356  0.00  0.00    +0.000 A 
ATOM     21  C   UNL     1      -1.048  10.248  17.844  0.00  0.00    +0.000 A 
ATOM     22  C   UNL     1      -0.743  10.627  19.205  0.00  0.00    +0.000 A 
BRANCH  20  23
ATOM     23  C   UNL     1      -2.848  10.631  16.057  0.00  0.00    +0.000 C 
ATOM     24  N   UNL     1      -3.369  11.622  15.408  0.00  0.00    +0.000 NA
ATOM     25  N   UNL     1      -2.958   9.423  15.424  0.00  0.00    +0.000 N 
ATOM     26  H   UNL     1      -3.257  12.487  15.954  0.00  0.00    +0.000 HD
ATOM     27  H   UNL     1      -2.188   8.782  15.536  0.00  0.00    +0.000 HD
ATOM     28  H   UNL     1      -3.247   9.543  14.460  0.00  0.00    +0.000 HD
ENDBRANCH  20  23
BRANCH  18  30
ATOM     29  C   UNL     1      -3.039  13.566  20.886  0.00  0.00    +0.000 C 
ATOM     30  S   UNL     1      -1.772  12.323  21.250  0.00  0.00    +0.000 S 
ENDBRANCH  18  30
ENDBRANCH   1  22
TORSDOF 6
ENDMDL
MODEL 6
REMARK VINA RESULT:      -7.5      5.344      8.691
REMARK  Name = 
REMARK  7 active torsions:
REMARK  status: ('A' for Active; 'I' for Inactive)
REMARK    1  A    between atoms: C_1  and  S_2
REMARK    2  A    between atoms: S_2  and  C_3
REMARK    3  A    between atoms: C_5  and  C_6
REMARK    4  A    between atoms: C_10  and  S_11
REMARK    5  A    between atoms: S_11  and  C_14
REMARK    6  A    between atoms: C_18  and  C_19
REMARK    7  A    between atoms: C_24  and  O_25
REMARK                            x       y       z     vdW  Elec       q    Type
REMARK                         _______ _______ _______ _____ _____    ______ ____
ROOT
ATOM      1  S   UNL     1       0.431   9.589  21.085  0.00  0.00    +0.000 S 
ATOM      2  O   UNL     1       1.421  10.499  21.635  0.00  0.00    +0.000 OA
ATOM      3  O   UNL     1      -0.369   8.741  21.950  0.00  0.00    +0.000 OA
ENDROOT
BRANCH   1   4
ATOM      4  C   UNL     1       1.279   8.558  19.920  0.00  0.00    +0.000 A 
ATOM      5  C   UNL     1       1.763   9.123  18.736  0.00  0.00    +0.000 A 
ATOM      6  C   UNL     1       2.513   8.349  17.861  0.00  0.00    +0.000 A 
ATOM      7  C   UNL     1       2.847   7.033  18.200  0.00  0.00    +0.000 A 
ATOM      8  C   UNL     1       2.377   6.438  19.390  0.00  0.00    +0.000 A 
ATOM      9  C   UNL     1       1.499   7.205  20.186  0.00  0.00    +0.000 A 
BRANCH   8  10
ATOM     10  C   UNL     1       2.864   5.093  19.826  0.00  0.00    +0.000 A 
ATOM     11  C   UNL     1       2.148   4.324  20.769  0.00  0.00    +0.000 A 
ATOM     12  C   UNL     1       2.556   3.037  21.147  0.00  0.00    +0.000 A 
ATOM     13  C   UNL     1       3.707   2.484  20.598  0.00  0.00    +0.000 A 
ATOM     14  C   UNL     1       4.430   3.201  19.652  0.00  0.00    +0.000 A 
ATOM     15  C   UNL     1       4.005   4.477  19.262  0.00  0.00    +0.000 A 
BRANCH  15  16
ATOM     16  O   UNL     1       4.717   5.106  18.274  0.00  0.00    +0.000 OA
ATOM     17  H   UNL     1       4.900   4.472  17.562  0.00  0.00    +0.000 HD
ENDBRANCH  15  16
ENDBRANCH   8  10
ENDBRANCH   1   4
BRANCH   1  22
ATOM     18  C   UNL     1      -1.273  11.809  20.881  0.00  0.00    +0.000 A 
ATOM     19  S   UNL     1      -2.321  12.606  19.769  0.00  0.00    +0.000 S 
ATOM     20  C   UNL     1      -2.106  11.416  18.563  0.00  0.00    +0.000 A 
ATOM     21  C   UNL     1      -1.222  10.446  18.995  0.00  0.00    +0.000 A 
ATOM     22  C   UNL     1      -0.753  10.648  20.348  0.00  0.00    +0.000 A 
BRANCH  20  23
ATOM     23  C   UNL     1      -2.812  11.515  17.290  0.00  0.00    +0.000 C 
ATOM     24  N   UNL     1      -4.051  11.884  17.228  0.00  0.00    +0.000 NA
ATOM     25  N   UNL     1      -2.248  11.231  16.077  0.00  0.00    +0.000 N 
ATOM     26  H   UNL     1      -4.404  12.067  18.177  0.00  0.00    +0.000 HD
ATOM     27  H   UNL     1      -1.275  11.470  15.963  0.00  0.00    +0.000 HD
ATOM     28  H   UNL     1      -2.835  11.555  15.317  0.00  0.00    +0.000 HD
ENDBRANCH  20  23
BRANCH  18  30
ATOM     29  C   UNL     1      -2.359  11.758  23.388  0.00  0.00    +0.000 C 
ATOM     30  S   UNL     1      -1.017  12.543  22.458  0.00  0.00    +0.000 S 
ENDBRANCH  18  30
ENDBRANCH   1  22
TORSDOF 6
ENDMDL
MODEL 7
REMARK VINA RESULT:      -7.5      3.393      7.351
REMARK  Name = 
REMARK  7 active torsions:
REMARK  status: ('A' for Active; 'I' for Inactive)
REMARK    1  A    between atoms: C_1  and  S_2
REMARK    2  A    between atoms: S_2  and  C_3
REMARK    3  A    between atoms: C_5  and  C_6
REMARK    4  A    between atoms: C_10  and  S_11
REMARK    5  A    between atoms: S_11  and  C_14
REMARK    6  A    between atoms: C_18  and  C_19
REMARK    7  A    between atoms: C_24  and  O_25
REMARK                            x       y       z     vdW  Elec       q    Type
REMARK                         _______ _______ _______ _____ _____    ______ ____
ROOT
ATOM      1  S   UNL     1       3.717   3.845  18.410  0.00  0.00    +0.000 S 
ATOM      2  O   UNL     1       4.135   3.085  19.575  0.00  0.00    +0.000 OA
ATOM      3  O   UNL     1       2.786   3.286  17.446  0.00  0.00    +0.000 OA
ENDROOT
BRANCH   1   4
ATOM      4  C   UNL     1       5.194   4.316  17.553  0.00  0.00    +0.000 A 
ATOM      5  C   UNL     1       6.344   4.615  18.291  0.00  0.00    +0.000 A 
ATOM      6  C   UNL     1       7.533   4.891  17.630  0.00  0.00    +0.000 A 
ATOM      7  C   UNL     1       7.598   4.794  16.235  0.00  0.00    +0.000 A 
ATOM      8  C   UNL     1       6.456   4.488  15.465  0.00  0.00    +0.000 A 
ATOM      9  C   UNL     1       5.233   4.356  16.157  0.00  0.00    +0.000 A 
BRANCH   8  10
ATOM     10  C   UNL     1       6.561   4.228  13.996  0.00  0.00    +0.000 A 
ATOM     11  C   UNL     1       5.646   3.381  13.334  0.00  0.00    +0.000 A 
ATOM     12  C   UNL     1       5.692   3.170  11.948  0.00  0.00    +0.000 A 
ATOM     13  C   UNL     1       6.668   3.796  11.183  0.00  0.00    +0.000 A 
ATOM     14  C   UNL     1       7.576   4.652  11.794  0.00  0.00    +0.000 A 
ATOM     15  C   UNL     1       7.511   4.876  13.174  0.00  0.00    +0.000 A 
BRANCH  15  16
ATOM     16  O   UNL     1       8.386   5.786  13.710  0.00  0.00    +0.000 OA
ATOM     17  H   UNL     1       8.658   6.411  13.018  0.00  0.00    +0.000 HD
ENDBRANCH  15  16
ENDBRANCH   8  10
ENDBRANCH   1   4
BRANCH   1  22
ATOM     18  C   UNL     1       2.239   5.268  20.325  0.00  0.00    +0.000 A 
ATOM     19  S   UNL     1       1.585   6.831  20.633  0.00  0.00    +0.000 S 
ATOM     20  C   UNL     1       2.081   7.444  19.118  0.00  0.00    +0.000 A 
ATOM     21  C   UNL     1       2.764   6.476  18.407  0.00  0.00    +0.000 A 
ATOM     22  C   UNL     1       2.837   5.201  19.083  0.00  0.00    +0.000 A 
BRANCH  20  23
ATOM     23  C   UNL     1       1.770   8.818  18.736  0.00  0.00    +0.000 C 
ATOM     24  N   UNL     1       2.144   9.307  17.596  0.00  0.00    +0.000 NA
ATOM     25  N   UNL     1       1.079   9.695  19.525  0.00  0.00    +0.000 N 
ATOM     26  H   UNL     1       2.665   8.593  17.070  0.00  0.00    +0.000 HD
ATOM     27  H   UNL     1       0.340   9.308  20.091  0.00  0.00    +0.000 HD
ATOM     28  H   UNL     1       0.797  10.514  19.000  0.00  0.00    +0.000 HD
ENDBRANCH  20  23
BRANCH  18  30
ATOM     29  C   UNL     1       0.984   2.869  20.699  0.00  0.00    +0.000 C 
ATOM     30  S   UNL     1       2.068   4.034  21.565  0.00  0.00    +0.000 S 
ENDBRANCH  18  30
ENDBRANCH   1  22
TORSDOF 6
ENDMDL
MODEL 8
REMARK VINA RESULT:      -7.4      5.362      8.567
REMARK  Name = 
REMARK  7 active torsions:
REMARK  status: ('A' for Active; 'I' for Inactive)
REMARK    1  A    between atoms: C_1  and  S_2
REMARK    2  A    between atoms: S_2  and  C_3
REMARK    3  A    between atoms: C_5  and  C_6
REMARK    4  A    between atoms: C_10  and  S_11
REMARK    5  A    between atoms: S_11  and  C_14
REMARK    6  A    between atoms: C_18  and  C_19
REMARK    7  A    between atoms: C_24  and  O_25
REMARK                            x       y       z     vdW  Elec       q    Type
REMARK                         _______ _______ _______ _____ _____    ______ ____
ROOT
ATOM      1  S   UNL     1       0.537   9.563  21.040  0.00  0.00    +0.000 S 
ATOM      2  O   UNL     1       1.510  10.493  21.585  0.00  0.00    +0.000 OA
ATOM      3  O   UNL     1      -0.192   8.651  21.903  0.00  0.00    +0.000 OA
ENDROOT
BRANCH   1   4
ATOM      4  C   UNL     1       1.379   8.611  19.805  0.00  0.00    +0.000 A 
ATOM      5  C   UNL     1       1.859   9.253  18.660  0.00  0.00    +0.000 A 
ATOM      6  C   UNL     1       2.604   8.539  17.731  0.00  0.00    +0.000 A 
ATOM      7  C   UNL     1       2.938   7.203  17.980  0.00  0.00    +0.000 A 
ATOM      8  C   UNL     1       2.472   6.530  19.130  0.00  0.00    +0.000 A 
ATOM      9  C   UNL     1       1.599   7.243  19.980  0.00  0.00    +0.000 A 
BRANCH   8  10
ATOM     10  C   UNL     1       2.959   5.158  19.473  0.00  0.00    +0.000 A 
ATOM     11  C   UNL     1       4.293   4.769  19.220  0.00  0.00    +0.000 A 
ATOM     12  C   UNL     1       4.784   3.508  19.587  0.00  0.00    +0.000 A 
ATOM     13  C   UNL     1       3.947   2.591  20.211  0.00  0.00    +0.000 A 
ATOM     14  C   UNL     1       2.633   2.943  20.495  0.00  0.00    +0.000 A 
ATOM     15  C   UNL     1       2.154   4.211  20.146  0.00  0.00    +0.000 A 
BRANCH  15  16
ATOM     16  O   UNL     1       0.872   4.528  20.516  0.00  0.00    +0.000 OA
ATOM     17  H   UNL     1       0.314   4.570  19.722  0.00  0.00    +0.000 HD
ENDBRANCH  15  16
ENDBRANCH   8  10
ENDBRANCH   1   4
BRANCH   1  22
ATOM     18  C   UNL     1      -1.319  11.668  21.018  0.00  0.00    +0.000 A 
ATOM     19  S   UNL     1      -2.418  12.484  19.973  0.00  0.00    +0.000 S 
ATOM     20  C   UNL     1      -2.118  11.423  18.669  0.00  0.00    +0.000 A 
ATOM     21  C   UNL     1      -1.168  10.483  19.021  0.00  0.00    +0.000 A 
ATOM     22  C   UNL     1      -0.717  10.597  20.389  0.00  0.00    +0.000 A 
BRANCH  20  23
ATOM     23  C   UNL     1      -2.827  11.584  17.404  0.00  0.00    +0.000 C 
ATOM     24  N   UNL     1      -2.241  11.382  16.267  0.00  0.00    +0.000 NA
ATOM     25  N   UNL     1      -4.139  11.958  17.303  0.00  0.00    +0.000 N 
ATOM     26  H   UNL     1      -1.260  11.118  16.427  0.00  0.00    +0.000 HD
ATOM     27  H   UNL     1      -4.762  11.618  18.018  0.00  0.00    +0.000 HD
ATOM     28  H   UNL     1      -4.487  11.813  16.362  0.00  0.00    +0.000 HD
ENDBRANCH  20  23
BRANCH  18  30
ATOM     29  C   UNL     1      -0.268  13.837  22.307  0.00  0.00    +0.000 C 
ATOM     30  S   UNL     1      -1.118  12.275  22.656  0.00  0.00    +0.000 S 
ENDBRANCH  18  30
ENDBRANCH   1  22
TORSDOF 6
ENDMDL
MODEL 9
REMARK VINA RESULT:      -7.4      5.265      8.346
REMARK  Name = 
REMARK  7 active torsions:
REMARK  status: ('A' for Active; 'I' for Inactive)
REMARK    1  A    between atoms: C_1  and  S_2
REMARK    2  A    between atoms: S_2  and  C_3
REMARK    3  A    between atoms: C_5  and  C_6
REMARK    4  A    between atoms: C_10  and  S_11
REMARK    5  A    between atoms: S_11  and  C_14
REMARK    6  A    between atoms: C_18  and  C_19
REMARK    7  A    between atoms: C_24  and  O_25
REMARK                            x       y       z     vdW  Elec       q    Type
REMARK                         _______ _______ _______ _____ _____    ______ ____
ROOT
ATOM      1  S   UNL     1       1.599   9.392  18.143  0.00  0.00    +0.000 S 
ATOM      2  O   UNL     1       0.353   9.029  17.491  0.00  0.00    +0.000 OA
ATOM      3  O   UNL     1       2.586  10.213  17.467  0.00  0.00    +0.000 OA
ENDROOT
BRANCH   1   4
ATOM      4  C   UNL     1       2.375   7.877  18.636  0.00  0.00    +0.000 A 
ATOM      5  C   UNL     1       1.777   7.099  19.632  0.00  0.00    +0.000 A 
ATOM      6  C   UNL     1       2.321   5.864  19.960  0.00  0.00    +0.000 A 
ATOM      7  C   UNL     1       3.416   5.369  19.243  0.00  0.00    +0.000 A 
ATOM      8  C   UNL     1       4.036   6.130  18.229  0.00  0.00    +0.000 A 
ATOM      9  C   UNL     1       3.549   7.438  18.021  0.00  0.00    +0.000 A 
BRANCH   8  10
ATOM     10  C   UNL     1       5.100   5.538  17.360  0.00  0.00    +0.000 A 
ATOM     11  C   UNL     1       4.966   5.509  15.955  0.00  0.00    +0.000 A 
ATOM     12  C   UNL     1       5.976   5.011  15.119  0.00  0.00    +0.000 A 
ATOM     13  C   UNL     1       7.151   4.515  15.670  0.00  0.00    +0.000 A 
ATOM     14  C   UNL     1       7.330   4.544  17.048  0.00  0.00    +0.000 A 
ATOM     15  C   UNL     1       6.327   5.062  17.875  0.00  0.00    +0.000 A 
BRANCH  15  16
ATOM     16  O   UNL     1       6.589   5.131  19.220  0.00  0.00    +0.000 OA
ATOM     17  H   UNL     1       6.579   6.061  19.498  0.00  0.00    +0.000 HD
ENDBRANCH  15  16
ENDBRANCH   8  10
ENDBRANCH   1   4
BRANCH   1  22
ATOM     18  C   UNL     1       1.168  11.765  19.577  0.00  0.00    +0.000 A 
ATOM     19  S   UNL     1       0.451  12.350  21.030  0.00  0.00    +0.000 S 
ATOM     20  C   UNL     1       0.039  10.784  21.573  0.00  0.00    +0.000 A 
ATOM     21  C   UNL     1       0.415   9.836  20.640  0.00  0.00    +0.000 A 
ATOM     22  C   UNL     1       1.095  10.390  19.491  0.00  0.00    +0.000 A 
BRANCH  20  23
ATOM     23  C   UNL     1      -0.618  10.595  22.862  0.00  0.00    +0.000 C 
ATOM     24  N   UNL     1      -0.150   9.774  23.748  0.00  0.00    +0.000 NA
ATOM     25  N   UNL     1      -1.759  11.245  23.244  0.00  0.00    +0.000 N 
ATOM     26  H   UNL     1       0.696   9.318  23.382  0.00  0.00    +0.000 HD
ATOM     27  H   UNL     1      -1.864  12.196  22.928  0.00  0.00    +0.000 HD
ATOM     28  H   UNL     1      -1.931  11.127  24.235  0.00  0.00    +0.000 HD
ENDBRANCH  20  23
BRANCH  18  30
ATOM     29  C   UNL     1       1.098  14.453  19.090  0.00  0.00    +0.000 C 
ATOM     30  S   UNL     1       1.855  12.934  18.458  0.00  0.00    +0.000 S 
ENDBRANCH  18  30
ENDBRANCH   1  22
TORSDOF 6
ENDMDL
