MODEL 1
REMARK VINA RESULT:      -9.5      0.000      0.000
REMARK  Name = 
REMARK  9 active torsions:
REMARK  status: ('A' for Active; 'I' for Inactive)
REMARK    1  A    between atoms: C_1  and  C_2
REMARK    2  A    between atoms: C_2  and  C_3
REMARK    3  A    between atoms: C_3  and  C_4
REMARK    4  A    between atoms: C_4  and  C_5
REMARK    5  A    between atoms: C_5  and  C_6
REMARK    6  A    between atoms: C_6  and  C_7
REMARK    7  A    between atoms: C_9  and  N_10
REMARK    8  A    between atoms: N_13  and  C_14
REMARK    9  A    between atoms: N_20  and  C_21
REMARK                            x       y       z     vdW  Elec       q    Type
REMARK                         _______ _______ _______ _____ _____    ______ ____
ROOT
ATOM      1  N   UNL     1       2.892   6.832  18.214  0.00  0.00    +0.000 N 
ATOM      2  C   UNL     1       2.255   7.909  18.821  0.00  0.00    +0.000 C 
ATOM      3  O   UNL     1       2.049   7.969  20.027  0.00  0.00    +0.000 OA
ATOM      4  N   UNL     1       1.869   8.863  17.895  0.00  0.00    +0.000 N 
ATOM      5  H   UNL     1       3.317   7.028  17.321  0.00  0.00    +0.000 HD
ATOM      6  H   UNL     1       1.655   8.478  16.987  0.00  0.00    +0.000 HD
ENDROOT
BRANCH   4   7
ATOM      7  C   UNL     1       1.204  10.076  18.226  0.00  0.00    +0.000 A 
ATOM      8  C   UNL     1      -0.187  10.034  18.346  0.00  0.00    +0.000 A 
ATOM      9  C   UNL     1      -0.901  11.168  18.737  0.00  0.00    +0.000 A 
ATOM     10  C   UNL     1      -0.239  12.376  18.971  0.00  0.00    +0.000 A 
ATOM     11  C   UNL     1       1.151  12.468  18.766  0.00  0.00    +0.000 A 
ATOM     12  C   UNL     1       1.867  11.302  18.412  0.00  0.00    +0.000 A 
ATOM     13  N   UNL     1       1.761  13.754  18.900  0.00  0.00    +0.000 N 
ATOM     14  C   UNL     1       3.060  14.036  18.319  0.00  0.00    +0.000 C 
ATOM     15  C   UNL     1       1.136  14.807  19.576  0.00  0.00    +0.000 C 
ATOM     16  O   UNL     1       1.639  15.925  19.708  0.00  0.00    +0.000 OA
ATOM     17  C   UNL     1      -0.169  14.480  20.251  0.00  0.00    +0.000 C 
ATOM     18  C   UNL     1      -1.017  13.602  19.357  0.00  0.00    +0.000 C 
ENDBRANCH   4   7
BRANCH   1  21
ATOM     19  C   UNL     1       5.610   5.010  17.787  0.00  0.00    +0.000 C 
ATOM     20  C   UNL     1       5.029   5.825  18.971  0.00  0.00    +0.000 C 
ATOM     21  C   UNL     1       3.502   5.770  19.030  0.00  0.00    +0.000 C 
ATOM     22  C   UNL     1       3.053   4.359  18.677  0.00  0.00    +0.000 A 
ATOM     23  C   UNL     1       1.715   3.973  18.827  0.00  0.00    +0.000 A 
ATOM     24  C   UNL     1       1.337   2.656  18.541  0.00  0.00    +0.000 A 
ATOM     25  F   UNL     1       0.052   2.303  18.668  0.00  0.00    +0.000 F 
ATOM     26  C   UNL     1       2.257   1.699  18.121  0.00  0.00    +0.000 A 
ATOM     27  C   UNL     1       3.598   2.053  18.002  0.00  0.00    +0.000 A 
ATOM     28  C   UNL     1       3.983   3.375  18.264  0.00  0.00    +0.000 A 
ATOM     29  O   UNL     1       5.319   3.628  18.046  0.00  0.00    +0.000 OA
BRANCH  19  30
ATOM     30  C   UNL     1       7.154   5.203  17.766  0.00  0.00    +0.000 C 
BRANCH  30  32
ATOM     31  C   UNL     1       7.747   7.657  17.587  0.00  0.00    +0.000 C 
ATOM     32  C   UNL     1       7.683   6.443  18.504  0.00  0.00    +0.000 C 
ENDBRANCH  30  32
ENDBRANCH  19  30
BRANCH  19  33
ATOM     33  C   UNL     1       5.019   5.410  16.389  0.00  0.00    +0.000 C 
BRANCH  33  34
ATOM     34  C   UNL     1       5.915   5.326  15.139  0.00  0.00    +0.000 C 
ATOM     35  C   UNL     1       5.993   3.970  14.448  0.00  0.00    +0.000 C 
ENDBRANCH  33  34
ENDBRANCH  19  33
ENDBRANCH   1  21
TORSDOF 6
ENDMDL
MODEL 2
REMARK VINA RESULT:      -9.4      1.006      1.063
REMARK  Name = 
REMARK  9 active torsions:
REMARK  status: ('A' for Active; 'I' for Inactive)
REMARK    1  A    between atoms: C_1  and  C_2
REMARK    2  A    between atoms: C_2  and  C_3
REMARK    3  A    between atoms: C_3  and  C_4
REMARK    4  A    between atoms: C_4  and  C_5
REMARK    5  A    between atoms: C_5  and  C_6
REMARK    6  A    between atoms: C_6  and  C_7
REMARK    7  A    between atoms: C_9  and  N_10
REMARK    8  A    between atoms: N_13  and  C_14
REMARK    9  A    between atoms: N_20  and  C_21
REMARK                            x       y       z     vdW  Elec       q    Type
REMARK                         _______ _______ _______ _____ _____    ______ ____
ROOT
ATOM      1  N   UNL     1       2.952   6.930  18.388  0.00  0.00    +0.000 N 
ATOM      2  C   UNL     1       2.120   7.821  19.059  0.00  0.00    +0.000 C 
ATOM      3  O   UNL     1       1.777   7.666  20.224  0.00  0.00    +0.000 OA
ATOM      4  N   UNL     1       1.717   8.861  18.238  0.00  0.00    +0.000 N 
ATOM      5  H   UNL     1       3.443   7.311  17.595  0.00  0.00    +0.000 HD
ATOM      6  H   UNL     1       1.654   8.603  17.264  0.00  0.00    +0.000 HD
ENDROOT
BRANCH   4   7
ATOM      7  C   UNL     1       0.870   9.925  18.653  0.00  0.00    +0.000 A 
ATOM      8  C   UNL     1      -0.446   9.918  18.185  0.00  0.00    +0.000 A 
ATOM      9  C   UNL     1      -1.355  10.891  18.605  0.00  0.00    +0.000 A 
ATOM     10  C   UNL     1      -0.949  11.914  19.467  0.00  0.00    +0.000 A 
ATOM     11  C   UNL     1       0.394  11.997  19.878  0.00  0.00    +0.000 A 
ATOM     12  C   UNL     1       1.293  10.981  19.479  0.00  0.00    +0.000 A 
ATOM     13  N   UNL     1       0.785  13.129  20.659  0.00  0.00    +0.000 N 
ATOM     14  C   UNL     1       2.177  13.522  20.773  0.00  0.00    +0.000 C 
ATOM     15  C   UNL     1      -0.147  13.925  21.332  0.00  0.00    +0.000 C 
ATOM     16  O   UNL     1       0.161  14.905  22.012  0.00  0.00    +0.000 OA
ATOM     17  C   UNL     1      -1.577  13.460  21.280  0.00  0.00    +0.000 C 
ATOM     18  C   UNL     1      -1.923  12.978  19.887  0.00  0.00    +0.000 C 
ENDBRANCH   4   7
BRANCH   1  21
ATOM     19  C   UNL     1       5.654   5.151  17.737  0.00  0.00    +0.000 C 
ATOM     20  C   UNL     1       5.124   5.894  18.990  0.00  0.00    +0.000 C 
ATOM     21  C   UNL     1       3.600   5.827  19.114  0.00  0.00    +0.000 C 
ATOM     22  C   UNL     1       3.141   4.436  18.699  0.00  0.00    +0.000 A 
ATOM     23  C   UNL     1       1.812   4.034  18.885  0.00  0.00    +0.000 A 
ATOM     24  C   UNL     1       1.426   2.734  18.541  0.00  0.00    +0.000 A 
ATOM     25  F   UNL     1       0.148   2.367  18.704  0.00  0.00    +0.000 F 
ATOM     26  C   UNL     1       2.329   1.808  18.026  0.00  0.00    +0.000 A 
ATOM     27  C   UNL     1       3.662   2.176  17.869  0.00  0.00    +0.000 A 
ATOM     28  C   UNL     1       4.054   3.482  18.189  0.00  0.00    +0.000 A 
ATOM     29  O   UNL     1       5.378   3.755  17.928  0.00  0.00    +0.000 OA
BRANCH  19  30
ATOM     30  C   UNL     1       7.194   5.354  17.659  0.00  0.00    +0.000 C 
BRANCH  30  32
ATOM     31  C   UNL     1       7.763   7.819  17.581  0.00  0.00    +0.000 C 
ATOM     32  C   UNL     1       7.751   6.559  18.435  0.00  0.00    +0.000 C 
ENDBRANCH  30  32
ENDBRANCH  19  30
BRANCH  19  33
ATOM     33  C   UNL     1       5.001   5.628  16.391  0.00  0.00    +0.000 C 
BRANCH  33  34
ATOM     34  C   UNL     1       5.781   5.465  15.074  0.00  0.00    +0.000 C 
ATOM     35  C   UNL     1       5.853   4.057  14.497  0.00  0.00    +0.000 C 
ENDBRANCH  33  34
ENDBRANCH  19  33
ENDBRANCH   1  21
TORSDOF 6
ENDMDL
MODEL 3
REMARK VINA RESULT:      -9.3      2.007      2.423
REMARK  Name = 
REMARK  9 active torsions:
REMARK  status: ('A' for Active; 'I' for Inactive)
REMARK    1  A    between atoms: C_1  and  C_2
REMARK    2  A    between atoms: C_2  and  C_3
REMARK    3  A    between atoms: C_3  and  C_4
REMARK    4  A    between atoms: C_4  and  C_5
REMARK    5  A    between atoms: C_5  and  C_6
REMARK    6  A    between atoms: C_6  and  C_7
REMARK    7  A    between atoms: C_9  and  N_10
REMARK    8  A    between atoms: N_13  and  C_14
REMARK    9  A    between atoms: N_20  and  C_21
REMARK                            x       y       z     vdW  Elec       q    Type
REMARK                         _______ _______ _______ _____ _____    ______ ____
ROOT
ATOM      1  N   UNL     1       2.893   6.868  18.680  0.00  0.00    +0.000 N 
ATOM      2  C   UNL     1       2.162   7.773  19.443  0.00  0.00    +0.000 C 
ATOM      3  O   UNL     1       1.912   7.598  20.630  0.00  0.00    +0.000 OA
ATOM      4  N   UNL     1       1.738   8.853  18.688  0.00  0.00    +0.000 N 
ATOM      5  H   UNL     1       3.331   7.252  17.858  0.00  0.00    +0.000 HD
ATOM      6  H   UNL     1       1.581   8.628  17.717  0.00  0.00    +0.000 HD
ENDROOT
BRANCH   4   7
ATOM      7  C   UNL     1       0.978   9.940  19.203  0.00  0.00    +0.000 A 
ATOM      8  C   UNL     1       0.942  11.114  18.445  0.00  0.00    +0.000 A 
ATOM      9  C   UNL     1       0.160  12.197  18.852  0.00  0.00    +0.000 A 
ATOM     10  C   UNL     1      -0.562  12.141  20.047  0.00  0.00    +0.000 A 
ATOM     11  C   UNL     1      -0.467  11.006  20.874  0.00  0.00    +0.000 A 
ATOM     12  C   UNL     1       0.293   9.900  20.430  0.00  0.00    +0.000 A 
ATOM     13  N   UNL     1      -1.127  11.048  22.142  0.00  0.00    +0.000 N 
ATOM     14  C   UNL     1      -0.759  10.142  23.213  0.00  0.00    +0.000 C 
ATOM     15  C   UNL     1      -2.140  11.969  22.423  0.00  0.00    +0.000 C 
ATOM     16  O   UNL     1      -2.726  12.028  23.505  0.00  0.00    +0.000 OA
ATOM     17  C   UNL     1      -2.576  12.846  21.279  0.00  0.00    +0.000 C 
ATOM     18  C   UNL     1      -1.372  13.325  20.496  0.00  0.00    +0.000 C 
ENDBRANCH   4   7
BRANCH   1  21
ATOM     19  C   UNL     1       5.552   5.105  17.840  0.00  0.00    +0.000 C 
ATOM     20  C   UNL     1       5.069   5.776  19.151  0.00  0.00    +0.000 C 
ATOM     21  C   UNL     1       3.550   5.717  19.318  0.00  0.00    +0.000 C 
ATOM     22  C   UNL     1       3.061   4.359  18.835  0.00  0.00    +0.000 A 
ATOM     23  C   UNL     1       1.734   3.959  19.038  0.00  0.00    +0.000 A 
ATOM     24  C   UNL     1       1.322   2.687  18.629  0.00  0.00    +0.000 A 
ATOM     25  F   UNL     1       0.046   2.323  18.809  0.00  0.00    +0.000 F 
ATOM     26  C   UNL     1       2.198   1.784  18.031  0.00  0.00    +0.000 A 
ATOM     27  C   UNL     1       3.530   2.148  17.855  0.00  0.00    +0.000 A 
ATOM     28  C   UNL     1       3.947   3.428  18.241  0.00  0.00    +0.000 A 
ATOM     29  O   UNL     1       5.266   3.703  17.955  0.00  0.00    +0.000 OA
BRANCH  19  30
ATOM     30  C   UNL     1       7.091   5.297  17.725  0.00  0.00    +0.000 C 
BRANCH  30  32
ATOM     31  C   UNL     1       7.757   7.736  17.611  0.00  0.00    +0.000 C 
ATOM     32  C   UNL     1       7.675   6.496  18.491  0.00  0.00    +0.000 C 
ENDBRANCH  30  32
ENDBRANCH  19  30
BRANCH  19  33
ATOM     33  C   UNL     1       4.863   5.669  16.546  0.00  0.00    +0.000 C 
BRANCH  33  34
ATOM     34  C   UNL     1       5.614   5.605  15.203  0.00  0.00    +0.000 C 
ATOM     35  C   UNL     1       5.613   4.261  14.487  0.00  0.00    +0.000 C 
ENDBRANCH  33  34
ENDBRANCH  19  33
ENDBRANCH   1  21
TORSDOF 6
ENDMDL
MODEL 4
REMARK VINA RESULT:      -9.1      2.210      2.586
REMARK  Name = 
REMARK  9 active torsions:
REMARK  status: ('A' for Active; 'I' for Inactive)
REMARK    1  A    between atoms: C_1  and  C_2
REMARK    2  A    between atoms: C_2  and  C_3
REMARK    3  A    between atoms: C_3  and  C_4
REMARK    4  A    between atoms: C_4  and  C_5
REMARK    5  A    between atoms: C_5  and  C_6
REMARK    6  A    between atoms: C_6  and  C_7
REMARK    7  A    between atoms: C_9  and  N_10
REMARK    8  A    between atoms: N_13  and  C_14
REMARK    9  A    between atoms: N_20  and  C_21
REMARK                            x       y       z     vdW  Elec       q    Type
REMARK                         _______ _______ _______ _____ _____    ______ ____
ROOT
ATOM      1  N   UNL     1       3.099   6.875  18.919  0.00  0.00    +0.000 N 
ATOM      2  C   UNL     1       2.097   7.519  19.637  0.00  0.00    +0.000 C 
ATOM      3  O   UNL     1       1.610   7.060  20.662  0.00  0.00    +0.000 OA
ATOM      4  N   UNL     1       1.713   8.702  19.029  0.00  0.00    +0.000 N 
ATOM      5  H   UNL     1       3.657   7.470  18.327  0.00  0.00    +0.000 HD
ATOM      6  H   UNL     1       1.814   8.690  18.025  0.00  0.00    +0.000 HD
ENDROOT
BRANCH   4   7
ATOM      7  C   UNL     1       0.715   9.577  19.541  0.00  0.00    +0.000 A 
ATOM      8  C   UNL     1       0.936  10.137  20.801  0.00  0.00    +0.000 A 
ATOM      9  C   UNL     1       0.035  11.058  21.338  0.00  0.00    +0.000 A 
ATOM     10  C   UNL     1      -1.127  11.401  20.641  0.00  0.00    +0.000 A 
ATOM     11  C   UNL     1      -1.420  10.780  19.412  0.00  0.00    +0.000 A 
ATOM     12  C   UNL     1      -0.478   9.881  18.860  0.00  0.00    +0.000 A 
ATOM     13  N   UNL     1      -2.678  11.073  18.799  0.00  0.00    +0.000 N 
ATOM     14  C   UNL     1      -3.245  10.200  17.788  0.00  0.00    +0.000 C 
ATOM     15  C   UNL     1      -3.432  12.196  19.151  0.00  0.00    +0.000 C 
ATOM     16  O   UNL     1      -4.519  12.474  18.640  0.00  0.00    +0.000 OA
ATOM     17  C   UNL     1      -2.797  13.141  20.135  0.00  0.00    +0.000 C 
ATOM     18  C   UNL     1      -2.111  12.366  21.240  0.00  0.00    +0.000 C 
ENDBRANCH   4   7
BRANCH   1  21
ATOM     19  C   UNL     1       5.691   5.112  17.889  0.00  0.00    +0.000 C 
ATOM     20  C   UNL     1       5.260   5.704  19.255  0.00  0.00    +0.000 C 
ATOM     21  C   UNL     1       3.745   5.668  19.460  0.00  0.00    +0.000 C 
ATOM     22  C   UNL     1       3.210   4.357  18.902  0.00  0.00    +0.000 A 
ATOM     23  C   UNL     1       1.879   3.975  19.115  0.00  0.00    +0.000 A 
ATOM     24  C   UNL     1       1.426   2.743  18.634  0.00  0.00    +0.000 A 
ATOM     25  F   UNL     1       0.147   2.397  18.825  0.00  0.00    +0.000 F 
ATOM     26  C   UNL     1       2.263   1.863  17.953  0.00  0.00    +0.000 A 
ATOM     27  C   UNL     1       3.598   2.207  17.764  0.00  0.00    +0.000 A 
ATOM     28  C   UNL     1       4.057   3.448  18.222  0.00  0.00    +0.000 A 
ATOM     29  O   UNL     1       5.374   3.712  17.919  0.00  0.00    +0.000 OA
BRANCH  19  30
ATOM     30  C   UNL     1       7.232   5.276  17.745  0.00  0.00    +0.000 C 
BRANCH  30  32
ATOM     31  C   UNL     1       7.821   7.737  17.699  0.00  0.00    +0.000 C 
ATOM     32  C   UNL     1       7.854   6.452  18.515  0.00  0.00    +0.000 C 
ENDBRANCH  30  32
ENDBRANCH  19  30
BRANCH  19  33
ATOM     33  C   UNL     1       4.983   5.777  16.655  0.00  0.00    +0.000 C 
BRANCH  33  34
ATOM     34  C   UNL     1       5.654   5.707  15.272  0.00  0.00    +0.000 C 
ATOM     35  C   UNL     1       5.503   4.397  14.508  0.00  0.00    +0.000 C 
ENDBRANCH  33  34
ENDBRANCH  19  33
ENDBRANCH   1  21
TORSDOF 6
ENDMDL
MODEL 5
REMARK VINA RESULT:      -9.1      2.898      9.346
REMARK  Name = 
REMARK  9 active torsions:
REMARK  status: ('A' for Active; 'I' for Inactive)
REMARK    1  A    between atoms: C_1  and  C_2
REMARK    2  A    between atoms: C_2  and  C_3
REMARK    3  A    between atoms: C_3  and  C_4
REMARK    4  A    between atoms: C_4  and  C_5
REMARK    5  A    between atoms: C_5  and  C_6
REMARK    6  A    between atoms: C_6  and  C_7
REMARK    7  A    between atoms: C_9  and  N_10
REMARK    8  A    between atoms: N_13  and  C_14
REMARK    9  A    between atoms: N_20  and  C_21
REMARK                            x       y       z     vdW  Elec       q    Type
REMARK                         _______ _______ _______ _____ _____    ______ ____
ROOT
ATOM      1  N   UNL     1       0.812   9.774  19.312  0.00  0.00    +0.000 N 
ATOM      2  C   UNL     1       1.497   8.943  18.431  0.00  0.00    +0.000 C 
ATOM      3  O   UNL     1       1.566   9.158  17.227  0.00  0.00    +0.000 OA
ATOM      4  N   UNL     1       2.047   7.851  19.081  0.00  0.00    +0.000 N 
ATOM      5  H   UNL     1       1.102   9.715  20.275  0.00  0.00    +0.000 HD
ATOM      6  H   UNL     1       1.520   7.558  19.891  0.00  0.00    +0.000 HD
ENDROOT
BRANCH   4   7
ATOM      7  C   UNL     1       2.810   6.838  18.438  0.00  0.00    +0.000 A 
ATOM      8  C   UNL     1       2.275   5.547  18.418  0.00  0.00    +0.000 A 
ATOM      9  C   UNL     1       2.933   4.516  17.744  0.00  0.00    +0.000 A 
ATOM     10  C   UNL     1       4.161   4.749  17.118  0.00  0.00    +0.000 A 
ATOM     11  C   UNL     1       4.765   6.017  17.204  0.00  0.00    +0.000 A 
ATOM     12  C   UNL     1       4.068   7.063  17.852  0.00  0.00    +0.000 A 
ATOM     13  N   UNL     1       6.075   6.171  16.652  0.00  0.00    +0.000 N 
ATOM     14  C   UNL     1       6.934   7.272  17.045  0.00  0.00    +0.000 C 
ATOM     15  C   UNL     1       6.603   5.265  15.727  0.00  0.00    +0.000 C 
ATOM     16  O   UNL     1       7.728   5.372  15.235  0.00  0.00    +0.000 OA
ATOM     17  C   UNL     1       5.674   4.177  15.260  0.00  0.00    +0.000 C 
ATOM     18  C   UNL     1       4.880   3.627  16.425  0.00  0.00    +0.000 C 
ENDBRANCH   4   7
BRANCH   1  21
ATOM     19  C   UNL     1      -0.782  12.188  20.898  0.00  0.00    +0.000 C 
ATOM     20  C   UNL     1       0.416  12.146  19.916  0.00  0.00    +0.000 C 
ATOM     21  C   UNL     1       0.266  11.059  18.850  0.00  0.00    +0.000 C 
ATOM     22  C   UNL     1      -1.190  11.010  18.408  0.00  0.00    +0.000 A 
ATOM     23  C   UNL     1      -1.581  10.230  17.312  0.00  0.00    +0.000 A 
ATOM     24  C   UNL     1      -2.917  10.241  16.896  0.00  0.00    +0.000 A 
ATOM     25  F   UNL     1      -3.284   9.476  15.861  0.00  0.00    +0.000 F 
ATOM     26  C   UNL     1      -3.882  11.018  17.531  0.00  0.00    +0.000 A 
ATOM     27  C   UNL     1      -3.505  11.829  18.598  0.00  0.00    +0.000 A 
ATOM     28  C   UNL     1      -2.175  11.809  19.037  0.00  0.00    +0.000 A 
ATOM     29  O   UNL     1      -1.932  12.595  20.141  0.00  0.00    +0.000 OA
BRANCH  19  30
ATOM     30  C   UNL     1      -0.491  13.260  21.987  0.00  0.00    +0.000 C 
BRANCH  30  32
ATOM     31  C   UNL     1      -2.377  13.875  23.559  0.00  0.00    +0.000 C 
ATOM     32  C   UNL     1      -1.636  14.244  22.280  0.00  0.00    +0.000 C 
ENDBRANCH  30  32
ENDBRANCH  19  30
BRANCH  19  33
ATOM     33  C   UNL     1      -1.082  10.813  21.595  0.00  0.00    +0.000 C 
BRANCH  33  34
ATOM     34  C   UNL     1      -0.734  10.629  23.083  0.00  0.00    +0.000 C 
ATOM     35  C   UNL     1       0.105   9.408  23.439  0.00  0.00    +0.000 C 
ENDBRANCH  33  34
ENDBRANCH  19  33
ENDBRANCH   1  21
TORSDOF 6
ENDMDL
MODEL 6
REMARK VINA RESULT:      -9.0      2.144      2.522
REMARK  Name = 
REMARK  9 active torsions:
REMARK  status: ('A' for Active; 'I' for Inactive)
REMARK    1  A    between atoms: C_1  and  C_2
REMARK    2  A    between atoms: C_2  and  C_3
REMARK    3  A    between atoms: C_3  and  C_4
REMARK    4  A    between atoms: C_4  and  C_5
REMARK    5  A    between atoms: C_5  and  C_6
REMARK    6  A    between atoms: C_6  and  C_7
REMARK    7  A    between atoms: C_9  and  N_10
REMARK    8  A    between atoms: N_13  and  C_14
REMARK    9  A    between atoms: N_20  and  C_21
REMARK                            x       y       z     vdW  Elec       q    Type
REMARK                         _______ _______ _______ _____ _____    ______ ____
ROOT
ATOM      1  N   UNL     1       3.025   6.688  19.323  0.00  0.00    +0.000 N 
ATOM      2  C   UNL     1       2.130   7.252  20.227  0.00  0.00    +0.000 C 
ATOM      3  O   UNL     1       1.774   6.688  21.253  0.00  0.00    +0.000 OA
ATOM      4  N   UNL     1       1.685   8.492  19.800  0.00  0.00    +0.000 N 
ATOM      5  H   UNL     1       3.509   7.343  18.728  0.00  0.00    +0.000 HD
ATOM      6  H   UNL     1       1.657   8.585  18.795  0.00  0.00    +0.000 HD
ENDROOT
BRANCH   4   7
ATOM      7  C   UNL     1       0.771   9.306  20.523  0.00  0.00    +0.000 A 
ATOM      8  C   UNL     1       0.728   9.145  21.911  0.00  0.00    +0.000 A 
ATOM      9  C   UNL     1      -0.093   9.959  22.694  0.00  0.00    +0.000 A 
ATOM     10  C   UNL     1      -0.919  10.916  22.099  0.00  0.00    +0.000 A 
ATOM     11  C   UNL     1      -0.962  11.034  20.697  0.00  0.00    +0.000 A 
ATOM     12  C   UNL     1      -0.094  10.234  19.918  0.00  0.00    +0.000 A 
ATOM     13  N   UNL     1      -1.911  11.942  20.132  0.00  0.00    +0.000 N 
ATOM     14  C   UNL     1      -2.324  11.836  18.745  0.00  0.00    +0.000 C 
ATOM     15  C   UNL     1      -2.503  12.961  20.885  0.00  0.00    +0.000 C 
ATOM     16  O   UNL     1      -3.323  13.758  20.425  0.00  0.00    +0.000 OA
ATOM     17  C   UNL     1      -2.005  13.119  22.296  0.00  0.00    +0.000 C 
ATOM     18  C   UNL     1      -1.826  11.764  22.945  0.00  0.00    +0.000 C 
ENDBRANCH   4   7
BRANCH   1  21
ATOM     19  C   UNL     1       5.570   5.147  17.898  0.00  0.00    +0.000 C 
ATOM     20  C   UNL     1       5.219   5.532  19.357  0.00  0.00    +0.000 C 
ATOM     21  C   UNL     1       3.720   5.433  19.648  0.00  0.00    +0.000 C 
ATOM     22  C   UNL     1       3.170   4.201  18.944  0.00  0.00    +0.000 A 
ATOM     23  C   UNL     1       1.861   3.763  19.183  0.00  0.00    +0.000 A 
ATOM     24  C   UNL     1       1.395   2.599  18.562  0.00  0.00    +0.000 A 
ATOM     25  F   UNL     1       0.136   2.201  18.780  0.00  0.00    +0.000 F 
ATOM     26  C   UNL     1       2.199   1.843  17.713  0.00  0.00    +0.000 A 
ATOM     27  C   UNL     1       3.515   2.240  17.493  0.00  0.00    +0.000 A 
ATOM     28  C   UNL     1       3.984   3.416  18.093  0.00  0.00    +0.000 A 
ATOM     29  O   UNL     1       5.276   3.749  17.749  0.00  0.00    +0.000 OA
BRANCH  19  30
ATOM     30  C   UNL     1       7.096   5.365  17.684  0.00  0.00    +0.000 C 
BRANCH  30  32
ATOM     31  C   UNL     1       7.790   7.798  17.668  0.00  0.00    +0.000 C 
ATOM     32  C   UNL     1       7.726   6.515  18.485  0.00  0.00    +0.000 C 
ENDBRANCH  30  32
ENDBRANCH  19  30
BRANCH  19  33
ATOM     33  C   UNL     1       4.775   5.961  16.816  0.00  0.00    +0.000 C 
BRANCH  33  34
ATOM     34  C   UNL     1       5.329   6.051  15.382  0.00  0.00    +0.000 C 
ATOM     35  C   UNL     1       5.460   4.738  14.620  0.00  0.00    +0.000 C 
ENDBRANCH  33  34
ENDBRANCH  19  33
ENDBRANCH   1  21
TORSDOF 6
ENDMDL
MODEL 7
REMARK VINA RESULT:      -8.7      2.679      9.410
REMARK  Name = 
REMARK  9 active torsions:
REMARK  status: ('A' for Active; 'I' for Inactive)
REMARK    1  A    between atoms: C_1  and  C_2
REMARK    2  A    between atoms: C_2  and  C_3
REMARK    3  A    between atoms: C_3  and  C_4
REMARK    4  A    between atoms: C_4  and  C_5
REMARK    5  A    between atoms: C_5  and  C_6
REMARK    6  A    between atoms: C_6  and  C_7
REMARK    7  A    between atoms: C_9  and  N_10
REMARK    8  A    between atoms: N_13  and  C_14
REMARK    9  A    between atoms: N_20  and  C_21
REMARK                            x       y       z     vdW  Elec       q    Type
REMARK                         _______ _______ _______ _____ _____    ______ ____
ROOT
ATOM      1  N   UNL     1       1.067   9.776  19.293  0.00  0.00    +0.000 N 
ATOM      2  C   UNL     1       1.674   8.872  18.427  0.00  0.00    +0.000 C 
ATOM      3  O   UNL     1       1.675   9.010  17.210  0.00  0.00    +0.000 OA
ATOM      4  N   UNL     1       2.234   7.806  19.111  0.00  0.00    +0.000 N 
ATOM      5  H   UNL     1       1.415   9.768  20.239  0.00  0.00    +0.000 HD
ATOM      6  H   UNL     1       1.750   7.579  19.968  0.00  0.00    +0.000 HD
ENDROOT
BRANCH   4   7
ATOM      7  C   UNL     1       2.928   6.732  18.489  0.00  0.00    +0.000 A 
ATOM      8  C   UNL     1       2.267   5.504  18.403  0.00  0.00    +0.000 A 
ATOM      9  C   UNL     1       2.857   4.424  17.743  0.00  0.00    +0.000 A 
ATOM     10  C   UNL     1       4.139   4.542  17.198  0.00  0.00    +0.000 A 
ATOM     11  C   UNL     1       4.863   5.739  17.353  0.00  0.00    +0.000 A 
ATOM     12  C   UNL     1       4.237   6.838  17.985  0.00  0.00    +0.000 A 
ATOM     13  N   UNL     1       6.214   5.767  16.885  0.00  0.00    +0.000 N 
ATOM     14  C   UNL     1       7.154   6.765  17.357  0.00  0.00    +0.000 C 
ATOM     15  C   UNL     1       6.703   4.830  15.970  0.00  0.00    +0.000 C 
ATOM     16  O   UNL     1       7.861   4.830  15.549  0.00  0.00    +0.000 OA
ATOM     17  C   UNL     1       5.699   3.853  15.420  0.00  0.00    +0.000 C 
ATOM     18  C   UNL     1       4.782   3.365  16.521  0.00  0.00    +0.000 C 
ENDBRANCH   4   7
BRANCH   1  21
ATOM     19  C   UNL     1      -0.204  12.403  20.831  0.00  0.00    +0.000 C 
ATOM     20  C   UNL     1       0.860  12.210  19.721  0.00  0.00    +0.000 C 
ATOM     21  C   UNL     1       0.529  11.047  18.784  0.00  0.00    +0.000 C 
ATOM     22  C   UNL     1      -0.972  11.044  18.526  0.00  0.00    +0.000 A 
ATOM     23  C   UNL     1      -1.532  10.197  17.561  0.00  0.00    +0.000 A 
ATOM     24  C   UNL     1      -2.907  10.248  17.309  0.00  0.00    +0.000 A 
ATOM     25  F   UNL     1      -3.436   9.420  16.399  0.00  0.00    +0.000 F 
ATOM     26  C   UNL     1      -3.749  11.131  17.981  0.00  0.00    +0.000 A 
ATOM     27  C   UNL     1      -3.205  12.006  18.916  0.00  0.00    +0.000 A 
ATOM     28  C   UNL     1      -1.833  11.948  19.193  0.00  0.00    +0.000 A 
ATOM     29  O   UNL     1      -1.419  12.810  20.183  0.00  0.00    +0.000 OA
BRANCH  19  30
ATOM     30  C   UNL     1       0.270  13.546  21.774  0.00  0.00    +0.000 C 
BRANCH  30  32
ATOM     31  C   UNL     1       0.265  15.860  20.748  0.00  0.00    +0.000 C 
ATOM     32  C   UNL     1      -0.484  14.880  21.641  0.00  0.00    +0.000 C 
ENDBRANCH  30  32
ENDBRANCH  19  30
BRANCH  19  33
ATOM     33  C   UNL     1      -0.477  11.112  21.682  0.00  0.00    +0.000 C 
BRANCH  33  34
ATOM     34  C   UNL     1      -1.088  11.250  23.088  0.00  0.00    +0.000 C 
ATOM     35  C   UNL     1      -2.480  11.862  23.168  0.00  0.00    +0.000 C 
ENDBRANCH  33  34
ENDBRANCH  19  33
ENDBRANCH   1  21
TORSDOF 6
ENDMDL
MODEL 8
REMARK VINA RESULT:      -8.4      2.745      4.626
REMARK  Name = 
REMARK  9 active torsions:
REMARK  status: ('A' for Active; 'I' for Inactive)
REMARK    1  A    between atoms: C_1  and  C_2
REMARK    2  A    between atoms: C_2  and  C_3
REMARK    3  A    between atoms: C_3  and  C_4
REMARK    4  A    between atoms: C_4  and  C_5
REMARK    5  A    between atoms: C_5  and  C_6
REMARK    6  A    between atoms: C_6  and  C_7
REMARK    7  A    between atoms: C_9  and  N_10
REMARK    8  A    between atoms: N_13  and  C_14
REMARK    9  A    between atoms: N_20  and  C_21
REMARK                            x       y       z     vdW  Elec       q    Type
REMARK                         _______ _______ _______ _____ _____    ______ ____
ROOT
ATOM      1  N   UNL     1       2.883   6.534  19.378  0.00  0.00    +0.000 N 
ATOM      2  C   UNL     1       2.093   7.670  19.521  0.00  0.00    +0.000 C 
ATOM      3  O   UNL     1       1.746   8.365  18.574  0.00  0.00    +0.000 OA
ATOM      4  N   UNL     1       1.790   7.918  20.849  0.00  0.00    +0.000 N 
ATOM      5  H   UNL     1       2.815   5.864  20.128  0.00  0.00    +0.000 HD
ATOM      6  H   UNL     1       2.503   7.602  21.490  0.00  0.00    +0.000 HD
ENDROOT
BRANCH   4   7
ATOM      7  C   UNL     1       0.991   9.006  21.297  0.00  0.00    +0.000 A 
ATOM      8  C   UNL     1       0.246   8.818  22.464  0.00  0.00    +0.000 A 
ATOM      9  C   UNL     1      -0.506   9.863  23.003  0.00  0.00    +0.000 A 
ATOM     10  C   UNL     1      -0.562  11.102  22.358  0.00  0.00    +0.000 A 
ATOM     11  C   UNL     1       0.105  11.288  21.132  0.00  0.00    +0.000 A 
ATOM     12  C   UNL     1       0.897  10.235  20.620  0.00  0.00    +0.000 A 
ATOM     13  N   UNL     1      -0.082  12.532  20.453  0.00  0.00    +0.000 N 
ATOM     14  C   UNL     1       0.200  12.667  19.037  0.00  0.00    +0.000 C 
ATOM     15  C   UNL     1      -0.562  13.671  21.107  0.00  0.00    +0.000 C 
ATOM     16  O   UNL     1      -0.733  14.756  20.548  0.00  0.00    +0.000 OA
ATOM     17  C   UNL     1      -0.769  13.546  22.592  0.00  0.00    +0.000 C 
ATOM     18  C   UNL     1      -1.401  12.212  22.925  0.00  0.00    +0.000 C 
ENDBRANCH   4   7
BRANCH   1  21
ATOM     19  C   UNL     1       3.585   3.495  18.302  0.00  0.00    +0.000 C 
ATOM     20  C   UNL     1       2.628   4.617  17.825  0.00  0.00    +0.000 C 
ATOM     21  C   UNL     1       3.207   6.016  18.040  0.00  0.00    +0.000 C 
ATOM     22  C   UNL     1       4.694   5.981  17.715  0.00  0.00    +0.000 A 
ATOM     23  C   UNL     1       5.443   7.163  17.651  0.00  0.00    +0.000 A 
ATOM     24  C   UNL     1       6.797   7.107  17.302  0.00  0.00    +0.000 A 
ATOM     25  F   UNL     1       7.509   8.241  17.265  0.00  0.00    +0.000 F 
ATOM     26  C   UNL     1       7.433   5.906  17.000  0.00  0.00    +0.000 A 
ATOM     27  C   UNL     1       6.697   4.725  17.021  0.00  0.00    +0.000 A 
ATOM     28  C   UNL     1       5.346   4.767  17.390  0.00  0.00    +0.000 A 
ATOM     29  O   UNL     1       4.737   3.533  17.445  0.00  0.00    +0.000 OA
BRANCH  19  30
ATOM     30  C   UNL     1       2.869   2.126  18.121  0.00  0.00    +0.000 C 
BRANCH  30  32
ATOM     31  C   UNL     1       0.505   2.031  19.020  0.00  0.00    +0.000 C 
ATOM     32  C   UNL     1       1.371   2.194  17.778  0.00  0.00    +0.000 C 
ENDBRANCH  30  32
ENDBRANCH  19  30
BRANCH  19  33
ATOM     33  C   UNL     1       4.046   3.644  19.795  0.00  0.00    +0.000 C 
BRANCH  33  34
ATOM     34  C   UNL     1       3.291   2.880  20.898  0.00  0.00    +0.000 C 
ATOM     35  C   UNL     1       2.208   3.652  21.640  0.00  0.00    +0.000 C 
ENDBRANCH  33  34
ENDBRANCH  19  33
ENDBRANCH   1  21
TORSDOF 6
ENDMDL
MODEL 9
REMARK VINA RESULT:      -8.3      2.126      4.228
REMARK  Name = 
REMARK  9 active torsions:
REMARK  status: ('A' for Active; 'I' for Inactive)
REMARK    1  A    between atoms: C_1  and  C_2
REMARK    2  A    between atoms: C_2  and  C_3
REMARK    3  A    between atoms: C_3  and  C_4
REMARK    4  A    between atoms: C_4  and  C_5
REMARK    5  A    between atoms: C_5  and  C_6
REMARK    6  A    between atoms: C_6  and  C_7
REMARK    7  A    between atoms: C_9  and  N_10
REMARK    8  A    between atoms: N_13  and  C_14
REMARK    9  A    between atoms: N_20  and  C_21
REMARK                            x       y       z     vdW  Elec       q    Type
REMARK                         _______ _______ _______ _____ _____    ______ ____
ROOT
ATOM      1  N   UNL     1       2.777   6.921  18.539  0.00  0.00    +0.000 N 
ATOM      2  C   UNL     1       2.329   8.187  18.178  0.00  0.00    +0.000 C 
ATOM      3  O   UNL     1       2.594   8.707  17.101  0.00  0.00    +0.000 OA
ATOM      4  N   UNL     1       1.589   8.776  19.189  0.00  0.00    +0.000 N 
ATOM      5  H   UNL     1       2.236   6.458  19.253  0.00  0.00    +0.000 HD
ATOM      6  H   UNL     1       1.868   8.483  20.114  0.00  0.00    +0.000 HD
ENDROOT
BRANCH   4   7
ATOM      7  C   UNL     1       0.996  10.065  19.100  0.00  0.00    +0.000 A 
ATOM      8  C   UNL     1      -0.400  10.131  19.093  0.00  0.00    +0.000 A 
ATOM      9  C   UNL     1      -1.053  11.365  19.078  0.00  0.00    +0.000 A 
ATOM     10  C   UNL     1      -0.320  12.554  19.024  0.00  0.00    +0.000 A 
ATOM     11  C   UNL     1       1.084  12.511  18.936  0.00  0.00    +0.000 A 
ATOM     12  C   UNL     1       1.734  11.257  18.996  0.00  0.00    +0.000 A 
ATOM     13  N   UNL     1       1.779  13.749  18.761  0.00  0.00    +0.000 N 
ATOM     14  C   UNL     1       3.137  13.785  18.250  0.00  0.00    +0.000 C 
ATOM     15  C   UNL     1       1.187  14.981  19.050  0.00  0.00    +0.000 C 
ATOM     16  O   UNL     1       1.762  16.063  18.909  0.00  0.00    +0.000 OA
ATOM     17  C   UNL     1      -0.188  14.930  19.661  0.00  0.00    +0.000 C 
ATOM     18  C   UNL     1      -1.030  13.877  18.973  0.00  0.00    +0.000 C 
ENDBRANCH   4   7
BRANCH   1  21
ATOM     19  C   UNL     1       3.739   3.767  18.654  0.00  0.00    +0.000 C 
ATOM     20  C   UNL     1       2.966   4.625  17.621  0.00  0.00    +0.000 C 
ATOM     21  C   UNL     1       3.469   6.068  17.560  0.00  0.00    +0.000 C 
ATOM     22  C   UNL     1       4.986   6.059  17.683  0.00  0.00    +0.000 A 
ATOM     23  C   UNL     1       5.730   7.228  17.479  0.00  0.00    +0.000 A 
ATOM     24  C   UNL     1       7.126   7.182  17.550  0.00  0.00    +0.000 A 
ATOM     25  F   UNL     1       7.826   8.310  17.374  0.00  0.00    +0.000 F 
ATOM     26  C   UNL     1       7.814   6.000  17.807  0.00  0.00    +0.000 A 
ATOM     27  C   UNL     1       7.095   4.820  17.975  0.00  0.00    +0.000 A 
ATOM     28  C   UNL     1       5.695   4.858  17.928  0.00  0.00    +0.000 A 
ATOM     29  O   UNL     1       5.088   3.648  18.178  0.00  0.00    +0.000 OA
BRANCH  19  30
ATOM     30  C   UNL     1       3.095   2.351  18.700  0.00  0.00    +0.000 C 
BRANCH  30  32
ATOM     31  C   UNL     1       0.574   2.201  18.866  0.00  0.00    +0.000 C 
ATOM     32  C   UNL     1       1.774   2.191  17.929  0.00  0.00    +0.000 C 
ENDBRANCH  30  32
ENDBRANCH  19  30
BRANCH  19  33
ATOM     33  C   UNL     1       3.753   4.375  20.102  0.00  0.00    +0.000 C 
BRANCH  33  34
ATOM     34  C   UNL     1       2.437   4.466  20.896  0.00  0.00    +0.000 C 
ATOM     35  C   UNL     1       2.168   3.349  21.896  0.00  0.00    +0.000 C 
ENDBRANCH  33  34
ENDBRANCH  19  33
ENDBRANCH   1  21
TORSDOF 6
ENDMDL
