MODEL 1
REMARK VINA RESULT:      -6.6      0.000      0.000
REMARK  Name = 
REMARK  9 active torsions:
REMARK  status: ('A' for Active; 'I' for Inactive)
REMARK    1  A    between atoms: C_1  and  C_2
REMARK    2  A    between atoms: C_2  and  C_3
REMARK    3  A    between atoms: C_3  and  N_4
REMARK    4  A    between atoms: N_4  and  C_5
REMARK    5  A    between atoms: N_4  and  C_8
REMARK    6  A    between atoms: C_5  and  C_6
REMARK    7  A    between atoms: C_6  and  C_7
REMARK    8  A    between atoms: C_16  and  O_17
REMARK    9  A    between atoms: O_17  and  C_18
REMARK                            x       y       z     vdW  Elec       q    Type
REMARK                         _______ _______ _______ _____ _____    ______ ____
ROOT
ATOM      1  C   UNL     1       5.228   5.319  17.688  0.00  0.00    +0.000 C 
ATOM      2  C   UNL     1       5.170   5.366  19.224  0.00  0.00    +0.000 C 
ATOM      3  C   UNL     1       3.746   5.215  19.764  0.00  0.00    +0.000 C 
ATOM      4  C   UNL     1       2.958   4.069  19.192  0.00  0.00    +0.000 A 
ATOM      5  C   UNL     1       3.357   3.518  17.958  0.00  0.00    +0.000 A 
ATOM      6  C   UNL     1       2.646   2.438  17.403  0.00  0.00    +0.000 A 
ATOM      7  C   UNL     1       1.540   1.911  18.050  0.00  0.00    +0.000 A 
ATOM      8  C   UNL     1       1.139   2.448  19.266  0.00  0.00    +0.000 A 
ATOM      9  C   UNL     1       1.827   3.526  19.839  0.00  0.00    +0.000 A 
ATOM     10  C   UNL     1       4.609   3.968  17.239  0.00  0.00    +0.000 C 
ENDROOT
BRANCH   9  11
ATOM     11  O   UNL     1       1.380   3.849  21.093  0.00  0.00    +0.000 OA
ATOM     12  C   UNL     1       1.363   2.806  22.057  0.00  0.00    +0.000 C 
ENDBRANCH   9  11
BRANCH   1  13
ATOM     13  N   UNL     1       6.621   5.480  17.152  0.00  0.00    +0.000 NA
BRANCH  13  14
ATOM     14  C   UNL     1       7.629   5.627  18.225  0.00  0.00    +0.000 C 
BRANCH  14  16
ATOM     15  C   UNL     1       7.717   8.073  17.477  0.00  0.00    +0.000 C 
ATOM     16  C   UNL     1       8.086   7.060  18.551  0.00  0.00    +0.000 C 
ENDBRANCH  14  16
ENDBRANCH  13  14
BRANCH  13  17
ATOM     17  C   UNL     1       7.007   4.477  16.141  0.00  0.00    +0.000 C 
BRANCH  17  18
ATOM     18  C   UNL     1       6.947   4.926  14.674  0.00  0.00    +0.000 C 
ATOM     19  C   UNL     1       6.051   4.006  13.854  0.00  0.00    +0.000 C 
ENDBRANCH  17  18
ENDBRANCH  13  17
ENDBRANCH   1  13
TORSDOF 6
ENDMDL
MODEL 2
REMARK VINA RESULT:      -6.5      1.996      3.750
REMARK  Name = 
REMARK  9 active torsions:
REMARK  status: ('A' for Active; 'I' for Inactive)
REMARK    1  A    between atoms: C_1  and  C_2
REMARK    2  A    between atoms: C_2  and  C_3
REMARK    3  A    between atoms: C_3  and  N_4
REMARK    4  A    between atoms: N_4  and  C_5
REMARK    5  A    between atoms: N_4  and  C_8
REMARK    6  A    between atoms: C_5  and  C_6
REMARK    7  A    between atoms: C_6  and  C_7
REMARK    8  A    between atoms: C_16  and  O_17
REMARK    9  A    between atoms: O_17  and  C_18
REMARK                            x       y       z     vdW  Elec       q    Type
REMARK                         _______ _______ _______ _____ _____    ______ ____
ROOT
ATOM      1  C   UNL     1       4.562   4.903  16.659  0.00  0.00    +0.000 C 
ATOM      2  C   UNL     1       4.766   6.380  17.033  0.00  0.00    +0.000 C 
ATOM      3  C   UNL     1       3.535   6.995  17.702  0.00  0.00    +0.000 C 
ATOM      4  C   UNL     1       2.944   6.191  18.828  0.00  0.00    +0.000 A 
ATOM      5  C   UNL     1       3.235   4.814  18.906  0.00  0.00    +0.000 A 
ATOM      6  C   UNL     1       2.706   4.039  19.954  0.00  0.00    +0.000 A 
ATOM      7  C   UNL     1       1.884   4.609  20.912  0.00  0.00    +0.000 A 
ATOM      8  C   UNL     1       1.591   5.965  20.843  0.00  0.00    +0.000 A 
ATOM      9  C   UNL     1       2.102   6.760  19.807  0.00  0.00    +0.000 A 
ATOM     10  C   UNL     1       4.202   4.137  17.960  0.00  0.00    +0.000 C 
ENDROOT
BRANCH   9  11
ATOM     11  O   UNL     1       1.822   8.092  19.958  0.00  0.00    +0.000 OA
ATOM     12  C   UNL     1       1.212   8.485  21.179  0.00  0.00    +0.000 C 
ENDBRANCH   9  11
BRANCH   1  13
ATOM     13  N   UNL     1       5.763   4.299  15.991  0.00  0.00    +0.000 NA
BRANCH  13  14
ATOM     14  C   UNL     1       5.563   4.096  14.539  0.00  0.00    +0.000 C 
BRANCH  14  16
ATOM     15  C   UNL     1       6.677   3.769  12.259  0.00  0.00    +0.000 C 
ATOM     16  C   UNL     1       6.752   4.438  13.624  0.00  0.00    +0.000 C 
ENDBRANCH  14  16
ENDBRANCH  13  14
BRANCH  13  17
ATOM     17  C   UNL     1       7.039   4.971  16.304  0.00  0.00    +0.000 C 
BRANCH  17  18
ATOM     18  C   UNL     1       7.769   4.499  17.570  0.00  0.00    +0.000 C 
ATOM     19  C   UNL     1       7.695   5.552  18.669  0.00  0.00    +0.000 C 
ENDBRANCH  17  18
ENDBRANCH  13  17
ENDBRANCH   1  13
TORSDOF 6
ENDMDL
MODEL 3
REMARK VINA RESULT:      -6.4      2.739      6.491
REMARK  Name = 
REMARK  9 active torsions:
REMARK  status: ('A' for Active; 'I' for Inactive)
REMARK    1  A    between atoms: C_1  and  C_2
REMARK    2  A    between atoms: C_2  and  C_3
REMARK    3  A    between atoms: C_3  and  N_4
REMARK    4  A    between atoms: N_4  and  C_5
REMARK    5  A    between atoms: N_4  and  C_8
REMARK    6  A    between atoms: C_5  and  C_6
REMARK    7  A    between atoms: C_6  and  C_7
REMARK    8  A    between atoms: C_16  and  O_17
REMARK    9  A    between atoms: O_17  and  C_18
REMARK                            x       y       z     vdW  Elec       q    Type
REMARK                         _______ _______ _______ _____ _____    ______ ____
ROOT
ATOM      1  C   UNL     1       2.560   5.275  18.642  0.00  0.00    +0.000 C 
ATOM      2  C   UNL     1       2.594   4.054  17.709  0.00  0.00    +0.000 C 
ATOM      3  C   UNL     1       3.707   4.142  16.662  0.00  0.00    +0.000 C 
ATOM      4  C   UNL     1       5.067   4.497  17.196  0.00  0.00    +0.000 A 
ATOM      5  C   UNL     1       5.161   5.135  18.450  0.00  0.00    +0.000 A 
ATOM      6  C   UNL     1       6.420   5.470  18.980  0.00  0.00    +0.000 A 
ATOM      7  C   UNL     1       7.581   5.194  18.276  0.00  0.00    +0.000 A 
ATOM      8  C   UNL     1       7.499   4.566  17.040  0.00  0.00    +0.000 A 
ATOM      9  C   UNL     1       6.257   4.225  16.487  0.00  0.00    +0.000 A 
ATOM     10  C   UNL     1       3.951   5.381  19.323  0.00  0.00    +0.000 C 
ENDROOT
BRANCH   9  11
ATOM     11  O   UNL     1       6.360   3.503  15.328  0.00  0.00    +0.000 OA
ATOM     12  C   UNL     1       6.450   4.241  14.117  0.00  0.00    +0.000 C 
ENDBRANCH   9  11
BRANCH   1  13
ATOM     13  N   UNL     1       1.462   5.200  19.663  0.00  0.00    +0.000 NA
BRANCH  13  14
ATOM     14  C   UNL     1       1.144   3.809  20.052  0.00  0.00    +0.000 C 
BRANCH  14  16
ATOM     15  C   UNL     1       2.788   2.489  21.501  0.00  0.00    +0.000 C 
ATOM     16  C   UNL     1       1.553   3.377  21.471  0.00  0.00    +0.000 C 
ENDBRANCH  14  16
ENDBRANCH  13  14
BRANCH  13  17
ATOM     17  C   UNL     1       1.646   6.090  20.825  0.00  0.00    +0.000 C 
BRANCH  17  18
ATOM     18  C   UNL     1       1.680   7.598  20.534  0.00  0.00    +0.000 C 
ATOM     19  C   UNL     1       0.879   8.374  21.572  0.00  0.00    +0.000 C 
ENDBRANCH  17  18
ENDBRANCH  13  17
ENDBRANCH   1  13
TORSDOF 6
ENDMDL
MODEL 4
REMARK VINA RESULT:      -6.4      1.716      3.422
REMARK  Name = 
REMARK  9 active torsions:
REMARK  status: ('A' for Active; 'I' for Inactive)
REMARK    1  A    between atoms: C_1  and  C_2
REMARK    2  A    between atoms: C_2  and  C_3
REMARK    3  A    between atoms: C_3  and  N_4
REMARK    4  A    between atoms: N_4  and  C_5
REMARK    5  A    between atoms: N_4  and  C_8
REMARK    6  A    between atoms: C_5  and  C_6
REMARK    7  A    between atoms: C_6  and  C_7
REMARK    8  A    between atoms: C_16  and  O_17
REMARK    9  A    between atoms: O_17  and  C_18
REMARK                            x       y       z     vdW  Elec       q    Type
REMARK                         _______ _______ _______ _____ _____    ______ ____
ROOT
ATOM      1  C   UNL     1       4.427   4.360  16.856  0.00  0.00    +0.000 C 
ATOM      2  C   UNL     1       4.071   5.771  17.351  0.00  0.00    +0.000 C 
ATOM      3  C   UNL     1       2.782   5.800  18.175  0.00  0.00    +0.000 C 
ATOM      4  C   UNL     1       2.690   4.766  19.265  0.00  0.00    +0.000 A 
ATOM      5  C   UNL     1       3.510   3.622  19.187  0.00  0.00    +0.000 A 
ATOM      6  C   UNL     1       3.454   2.644  20.197  0.00  0.00    +0.000 A 
ATOM      7  C   UNL     1       2.588   2.781  21.270  0.00  0.00    +0.000 A 
ATOM      8  C   UNL     1       1.777   3.906  21.354  0.00  0.00    +0.000 A 
ATOM      9  C   UNL     1       1.809   4.893  20.360  0.00  0.00    +0.000 A 
ATOM     10  C   UNL     1       4.550   3.445  18.104  0.00  0.00    +0.000 C 
ENDROOT
BRANCH   9  11
ATOM     11  O   UNL     1       1.044   5.989  20.660  0.00  0.00    +0.000 OA
ATOM     12  C   UNL     1       1.733   7.210  20.887  0.00  0.00    +0.000 C 
ENDBRANCH   9  11
BRANCH   1  13
ATOM     13  N   UNL     1       5.684   4.328  16.037  0.00  0.00    +0.000 NA
BRANCH  13  14
ATOM     14  C   UNL     1       5.423   4.482  14.589  0.00  0.00    +0.000 C 
BRANCH  14  16
ATOM     15  C   UNL     1       5.821   3.358  12.325  0.00  0.00    +0.000 C 
ATOM     16  C   UNL     1       6.439   3.836  13.631  0.00  0.00    +0.000 C 
ENDBRANCH  14  16
ENDBRANCH  13  14
BRANCH  13  17
ATOM     17  C   UNL     1       6.753   5.223  16.523  0.00  0.00    +0.000 C 
BRANCH  17  18
ATOM     18  C   UNL     1       7.629   4.686  17.664  0.00  0.00    +0.000 C 
ATOM     19  C   UNL     1       7.660   5.661  18.836  0.00  0.00    +0.000 C 
ENDBRANCH  17  18
ENDBRANCH  13  17
ENDBRANCH   1  13
TORSDOF 6
ENDMDL
MODEL 5
REMARK VINA RESULT:      -6.4      1.257      2.373
REMARK  Name = 
REMARK  9 active torsions:
REMARK  status: ('A' for Active; 'I' for Inactive)
REMARK    1  A    between atoms: C_1  and  C_2
REMARK    2  A    between atoms: C_2  and  C_3
REMARK    3  A    between atoms: C_3  and  N_4
REMARK    4  A    between atoms: N_4  and  C_5
REMARK    5  A    between atoms: N_4  and  C_8
REMARK    6  A    between atoms: C_5  and  C_6
REMARK    7  A    between atoms: C_6  and  C_7
REMARK    8  A    between atoms: C_16  and  O_17
REMARK    9  A    between atoms: O_17  and  C_18
REMARK                            x       y       z     vdW  Elec       q    Type
REMARK                         _______ _______ _______ _____ _____    ______ ____
ROOT
ATOM      1  C   UNL     1       5.212   5.326  17.218  0.00  0.00    +0.000 C 
ATOM      2  C   UNL     1       4.448   4.044  16.850  0.00  0.00    +0.000 C 
ATOM      3  C   UNL     1       3.789   3.381  18.061  0.00  0.00    +0.000 C 
ATOM      4  C   UNL     1       2.984   4.299  18.940  0.00  0.00    +0.000 A 
ATOM      5  C   UNL     1       3.231   5.686  18.881  0.00  0.00    +0.000 A 
ATOM      6  C   UNL     1       2.486   6.571  19.682  0.00  0.00    +0.000 A 
ATOM      7  C   UNL     1       1.514   6.095  20.548  0.00  0.00    +0.000 A 
ATOM      8  C   UNL     1       1.265   4.730  20.613  0.00  0.00    +0.000 A 
ATOM      9  C   UNL     1       1.994   3.827  19.828  0.00  0.00    +0.000 A 
ATOM     10  C   UNL     1       4.202   6.293  17.893  0.00  0.00    +0.000 C 
ENDROOT
BRANCH   9  11
ATOM     11  O   UNL     1       1.538   2.539  19.919  0.00  0.00    +0.000 OA
ATOM     12  C   UNL     1       0.647   2.100  18.904  0.00  0.00    +0.000 C 
ENDBRANCH   9  11
BRANCH   1  13
ATOM     13  N   UNL     1       5.871   5.973  16.035  0.00  0.00    +0.000 NA
BRANCH  13  14
ATOM     14  C   UNL     1       7.297   6.279  16.276  0.00  0.00    +0.000 C 
BRANCH  14  16
ATOM     15  C   UNL     1       7.860   8.361  17.653  0.00  0.00    +0.000 C 
ATOM     16  C   UNL     1       7.657   6.853  17.658  0.00  0.00    +0.000 C 
ENDBRANCH  14  16
ENDBRANCH  13  14
BRANCH  13  17
ATOM     17  C   UNL     1       5.644   5.278  14.752  0.00  0.00    +0.000 C 
BRANCH  17  18
ATOM     18  C   UNL     1       6.891   4.742  14.035  0.00  0.00    +0.000 C 
ATOM     19  C   UNL     1       6.506   3.844  12.865  0.00  0.00    +0.000 C 
ENDBRANCH  17  18
ENDBRANCH  13  17
ENDBRANCH   1  13
TORSDOF 6
ENDMDL
MODEL 6
REMARK VINA RESULT:      -6.3      1.401      1.671
REMARK  Name = 
REMARK  9 active torsions:
REMARK  status: ('A' for Active; 'I' for Inactive)
REMARK    1  A    between atoms: C_1  and  C_2
REMARK    2  A    between atoms: C_2  and  C_3
REMARK    3  A    between atoms: C_3  and  N_4
REMARK    4  A    between atoms: N_4  and  C_5
REMARK    5  A    between atoms: N_4  and  C_8
REMARK    6  A    between atoms: C_5  and  C_6
REMARK    7  A    between atoms: C_6  and  C_7
REMARK    8  A    between atoms: C_16  and  O_17
REMARK    9  A    between atoms: O_17  and  C_18
REMARK                            x       y       z     vdW  Elec       q    Type
REMARK                         _______ _______ _______ _____ _____    ______ ____
ROOT
ATOM      1  C   UNL     1       4.842   5.270  16.212  0.00  0.00    +0.000 C 
ATOM      2  C   UNL     1       4.411   6.201  17.357  0.00  0.00    +0.000 C 
ATOM      3  C   UNL     1       3.028   5.853  17.911  0.00  0.00    +0.000 C 
ATOM      4  C   UNL     1       2.811   4.400  18.237  0.00  0.00    +0.000 A 
ATOM      5  C   UNL     1       3.646   3.437  17.636  0.00  0.00    +0.000 A 
ATOM      6  C   UNL     1       3.475   2.072  17.930  0.00  0.00    +0.000 A 
ATOM      7  C   UNL     1       2.478   1.653  18.797  0.00  0.00    +0.000 A 
ATOM      8  C   UNL     1       1.650   2.596  19.393  0.00  0.00    +0.000 A 
ATOM      9  C   UNL     1       1.797   3.961  19.115  0.00  0.00    +0.000 A 
ATOM     10  C   UNL     1       4.817   3.817  16.758  0.00  0.00    +0.000 C 
ENDROOT
BRANCH   9  11
ATOM     11  O   UNL     1       0.988   4.760  19.879  0.00  0.00    +0.000 OA
ATOM     12  C   UNL     1       1.592   5.413  20.987  0.00  0.00    +0.000 C 
ENDBRANCH   9  11
BRANCH   1  13
ATOM     13  N   UNL     1       6.193   5.615  15.656  0.00  0.00    +0.000 NA
BRANCH  13  14
ATOM     14  C   UNL     1       7.121   6.120  16.692  0.00  0.00    +0.000 C 
BRANCH  14  16
ATOM     15  C   UNL     1       7.725   5.638  19.132  0.00  0.00    +0.000 C 
ATOM     16  C   UNL     1       7.642   5.093  17.713  0.00  0.00    +0.000 C 
ENDBRANCH  14  16
ENDBRANCH  13  14
BRANCH  13  17
ATOM     17  C   UNL     1       6.795   4.563  14.814  0.00  0.00    +0.000 C 
BRANCH  17  18
ATOM     18  C   UNL     1       5.915   4.001  13.688  0.00  0.00    +0.000 C 
ATOM     19  C   UNL     1       6.727   3.772  12.419  0.00  0.00    +0.000 C 
ENDBRANCH  17  18
ENDBRANCH  13  17
ENDBRANCH   1  13
TORSDOF 6
ENDMDL
MODEL 7
REMARK VINA RESULT:      -6.3      1.653      2.163
REMARK  Name = 
REMARK  9 active torsions:
REMARK  status: ('A' for Active; 'I' for Inactive)
REMARK    1  A    between atoms: C_1  and  C_2
REMARK    2  A    between atoms: C_2  and  C_3
REMARK    3  A    between atoms: C_3  and  N_4
REMARK    4  A    between atoms: N_4  and  C_5
REMARK    5  A    between atoms: N_4  and  C_8
REMARK    6  A    between atoms: C_5  and  C_6
REMARK    7  A    between atoms: C_6  and  C_7
REMARK    8  A    between atoms: C_16  and  O_17
REMARK    9  A    between atoms: O_17  and  C_18
REMARK                            x       y       z     vdW  Elec       q    Type
REMARK                         _______ _______ _______ _____ _____    ______ ____
ROOT
ATOM      1  C   UNL     1       4.727   4.663  16.966  0.00  0.00    +0.000 C 
ATOM      2  C   UNL     1       4.255   6.034  17.477  0.00  0.00    +0.000 C 
ATOM      3  C   UNL     1       2.907   5.963  18.199  0.00  0.00    +0.000 C 
ATOM      4  C   UNL     1       2.792   4.887  19.244  0.00  0.00    +0.000 A 
ATOM      5  C   UNL     1       3.678   3.792  19.193  0.00  0.00    +0.000 A 
ATOM      6  C   UNL     1       3.602   2.776  20.164  0.00  0.00    +0.000 A 
ATOM      7  C   UNL     1       2.650   2.827  21.170  0.00  0.00    +0.000 A 
ATOM      8  C   UNL     1       1.773   3.902  21.227  0.00  0.00    +0.000 A 
ATOM      9  C   UNL     1       1.825   4.926  20.271  0.00  0.00    +0.000 A 
ATOM     10  C   UNL     1       4.807   3.711  18.190  0.00  0.00    +0.000 C 
ENDROOT
BRANCH   9  11
ATOM     11  O   UNL     1       0.978   5.967  20.546  0.00  0.00    +0.000 OA
ATOM     12  C   UNL     1       1.574   7.181  20.979  0.00  0.00    +0.000 C 
ENDBRANCH   9  11
BRANCH   1  13
ATOM     13  N   UNL     1       6.042   4.730  16.246  0.00  0.00    +0.000 NA
BRANCH  13  14
ATOM     14  C   UNL     1       7.197   4.662  17.168  0.00  0.00    +0.000 C 
BRANCH  14  16
ATOM     15  C   UNL     1       7.766   5.799  19.389  0.00  0.00    +0.000 C 
ATOM     16  C   UNL     1       7.585   5.966  17.887  0.00  0.00    +0.000 C 
ENDBRANCH  14  16
ENDBRANCH  13  14
BRANCH  13  17
ATOM     17  C   UNL     1       6.164   3.799  15.108  0.00  0.00    +0.000 C 
BRANCH  17  18
ATOM     18  C   UNL     1       5.559   4.264  13.775  0.00  0.00    +0.000 C 
ATOM     19  C   UNL     1       6.080   3.425  12.614  0.00  0.00    +0.000 C 
ENDBRANCH  17  18
ENDBRANCH  13  17
ENDBRANCH   1  13
TORSDOF 6
ENDMDL
MODEL 8
REMARK VINA RESULT:      -6.3      3.314      5.205
REMARK  Name = 
REMARK  9 active torsions:
REMARK  status: ('A' for Active; 'I' for Inactive)
REMARK    1  A    between atoms: C_1  and  C_2
REMARK    2  A    between atoms: C_2  and  C_3
REMARK    3  A    between atoms: C_3  and  N_4
REMARK    4  A    between atoms: N_4  and  C_5
REMARK    5  A    between atoms: N_4  and  C_8
REMARK    6  A    between atoms: C_5  and  C_6
REMARK    7  A    between atoms: C_6  and  C_7
REMARK    8  A    between atoms: C_16  and  O_17
REMARK    9  A    between atoms: O_17  and  C_18
REMARK                            x       y       z     vdW  Elec       q    Type
REMARK                         _______ _______ _______ _____ _____    ______ ____
ROOT
ATOM      1  C   UNL     1       3.657   5.329  19.128  0.00  0.00    +0.000 C 
ATOM      2  C   UNL     1       2.470   5.125  20.083  0.00  0.00    +0.000 C 
ATOM      3  C   UNL     1       2.042   6.419  20.778  0.00  0.00    +0.000 C 
ATOM      4  C   UNL     1       1.855   7.605  19.871  0.00  0.00    +0.000 A 
ATOM      5  C   UNL     1       2.476   7.599  18.606  0.00  0.00    +0.000 A 
ATOM      6  C   UNL     1       2.311   8.689  17.732  0.00  0.00    +0.000 A 
ATOM      7  C   UNL     1       1.551   9.787  18.104  0.00  0.00    +0.000 A 
ATOM      8  C   UNL     1       0.935   9.802  19.349  0.00  0.00    +0.000 A 
ATOM      9  C   UNL     1       1.087   8.731  20.240  0.00  0.00    +0.000 A 
ATOM     10  C   UNL     1       3.239   6.401  18.086  0.00  0.00    +0.000 C 
ENDROOT
BRANCH   9  11
ATOM     11  O   UNL     1       0.315   8.849  21.366  0.00  0.00    +0.000 OA
ATOM     12  C   UNL     1       0.418  10.066  22.090  0.00  0.00    +0.000 C 
ENDBRANCH   9  11
BRANCH   1  13
ATOM     13  N   UNL     1       4.089   4.060  18.454  0.00  0.00    +0.000 NA
BRANCH  13  14
ATOM     14  C   UNL     1       3.383   2.870  18.977  0.00  0.00    +0.000 C 
BRANCH  14  16
ATOM     15  C   UNL     1       0.919   2.254  18.659  0.00  0.00    +0.000 C 
ATOM     16  C   UNL     1       2.319   2.240  18.061  0.00  0.00    +0.000 C 
ENDBRANCH  14  16
ENDBRANCH  13  14
BRANCH  13  17
ATOM     17  C   UNL     1       4.091   4.120  16.979  0.00  0.00    +0.000 C 
BRANCH  17  18
ATOM     18  C   UNL     1       5.466   4.113  16.295  0.00  0.00    +0.000 C 
ATOM     19  C   UNL     1       5.586   5.255  15.293  0.00  0.00    +0.000 C 
ENDBRANCH  17  18
ENDBRANCH  13  17
ENDBRANCH   1  13
TORSDOF 6
ENDMDL
MODEL 9
REMARK VINA RESULT:      -6.2      3.537      5.434
REMARK  Name = 
REMARK  9 active torsions:
REMARK  status: ('A' for Active; 'I' for Inactive)
REMARK    1  A    between atoms: C_1  and  C_2
REMARK    2  A    between atoms: C_2  and  C_3
REMARK    3  A    between atoms: C_3  and  N_4
REMARK    4  A    between atoms: N_4  and  C_5
REMARK    5  A    between atoms: N_4  and  C_8
REMARK    6  A    between atoms: C_5  and  C_6
REMARK    7  A    between atoms: C_6  and  C_7
REMARK    8  A    between atoms: C_16  and  O_17
REMARK    9  A    between atoms: O_17  and  C_18
REMARK                            x       y       z     vdW  Elec       q    Type
REMARK                         _______ _______ _______ _____ _____    ______ ____
ROOT
ATOM      1  C   UNL     1       3.547   5.706  19.266  0.00  0.00    +0.000 C 
ATOM      2  C   UNL     1       2.328   5.448  20.166  0.00  0.00    +0.000 C 
ATOM      3  C   UNL     1       1.820   6.719  20.850  0.00  0.00    +0.000 C 
ATOM      4  C   UNL     1       1.627   7.904  19.945  0.00  0.00    +0.000 A 
ATOM      5  C   UNL     1       2.304   7.933  18.708  0.00  0.00    +0.000 A 
ATOM      6  C   UNL     1       2.134   9.023  17.835  0.00  0.00    +0.000 A 
ATOM      7  C   UNL     1       1.317  10.088  18.181  0.00  0.00    +0.000 A 
ATOM      8  C   UNL     1       0.647  10.068  19.398  0.00  0.00    +0.000 A 
ATOM      9  C   UNL     1       0.801   8.996  20.287  0.00  0.00    +0.000 A 
ATOM     10  C   UNL     1       3.134   6.769  18.214  0.00  0.00    +0.000 C 
ENDROOT
BRANCH   9  11
ATOM     11  O   UNL     1      -0.024   9.075  21.378  0.00  0.00    +0.000 OA
ATOM     12  C   UNL     1      -0.103  10.332  22.033  0.00  0.00    +0.000 C 
ENDBRANCH   9  11
BRANCH   1  13
ATOM     13  N   UNL     1       4.057   4.459  18.603  0.00  0.00    +0.000 NA
BRANCH  13  14
ATOM     14  C   UNL     1       3.255   4.076  17.421  0.00  0.00    +0.000 C 
BRANCH  14  16
ATOM     15  C   UNL     1       3.012   1.821  18.609  0.00  0.00    +0.000 C 
ATOM     16  C   UNL     1       2.504   2.735  17.502  0.00  0.00    +0.000 C 
ENDBRANCH  14  16
ENDBRANCH  13  14
BRANCH  13  17
ATOM     17  C   UNL     1       5.508   4.461  18.332  0.00  0.00    +0.000 C 
BRANCH  17  18
ATOM     18  C   UNL     1       6.377   5.324  19.258  0.00  0.00    +0.000 C 
ATOM     19  C   UNL     1       7.674   5.732  18.570  0.00  0.00    +0.000 C 
ENDBRANCH  17  18
ENDBRANCH  13  17
ENDBRANCH   1  13
TORSDOF 6
ENDMDL
