MODEL 1
REMARK VINA RESULT:      -7.4      0.000      0.000
REMARK  Name = 
REMARK  7 active torsions:
REMARK  status: ('A' for Active; 'I' for Inactive)
REMARK    1  A    between atoms: C_1  and  O_2
REMARK    2  A    between atoms: O_2  and  C_3
REMARK    3  A    between atoms: C_8  and  O_9
REMARK    4  A    between atoms: O_9  and  C_10
REMARK    5  A    between atoms: C_10  and  C_11
REMARK    6  A    between atoms: N_13  and  N_14
REMARK    7  A    between atoms: C_17  and  C_18
REMARK                            x       y       z     vdW  Elec       q    Type
REMARK                         _______ _______ _______ _____ _____    ______ ____
ROOT
ATOM      1  C   UNL     1       4.035   2.624  18.464  0.00  0.00    +0.000 C 
ATOM      2  O   UNL     1       4.292   2.341  19.636  0.00  0.00    +0.000 OA
ATOM      3  N   UNL     1       4.862   3.389  17.639  0.00  0.00    +0.000 N 
ATOM      4  H   UNL     1       4.617   3.562  16.671  0.00  0.00    +0.000 HD
ENDROOT
BRANCH   3   5
ATOM      5  N   UNL     1       5.967   3.978  18.188  0.00  0.00    +0.000 NA
ATOM      6  C   UNL     1       6.323   5.170  17.834  0.00  0.00    +0.000 C 
ATOM      7  C   UNL     1       7.496   5.813  18.454  0.00  0.00    +0.000 C 
ATOM      8  C   UNL     1       7.504   7.076  18.015  0.00  0.00    +0.000 C 
ATOM      9  C   UNL     1       8.505   8.116  18.388  0.00  0.00    +0.000 C 
ATOM     10  C   UNL     1       6.362   7.410  17.102  0.00  0.00    +0.000 C 
ATOM     11  C   UNL     1       5.698   6.064  16.809  0.00  0.00    +0.000 C 
ENDBRANCH   3   5
BRANCH   1  12
ATOM     12  C   UNL     1       2.717   2.190  17.817  0.00  0.00    +0.000 C 
BRANCH  12  13
ATOM     13  O   UNL     1       1.852   3.295  17.612  0.00  0.00    +0.000 OA
BRANCH  13  19
ATOM     14  C   UNL     1       1.439   4.280  19.881  0.00  0.00    +0.000 A 
ATOM     15  C   UNL     1       1.624   5.414  20.690  0.00  0.00    +0.000 A 
ATOM     16  C   UNL     1       2.105   6.605  20.153  0.00  0.00    +0.000 A 
ATOM     17  C   UNL     1       2.439   6.666  18.806  0.00  0.00    +0.000 A 
ATOM     18  C   UNL     1       2.328   5.520  18.013  0.00  0.00    +0.000 A 
ATOM     19  C   UNL     1       1.850   4.310  18.538  0.00  0.00    +0.000 A 
BRANCH  14  21
ATOM     20  C   UNL     1       1.475   2.725  21.656  0.00  0.00    +0.000 C 
ATOM     21  O   UNL     1       0.898   3.137  20.414  0.00  0.00    +0.000 OA
ENDBRANCH  14  21
ENDBRANCH  13  19
ENDBRANCH  12  13
ENDBRANCH   1  12
TORSDOF 5
ENDMDL
MODEL 2
REMARK VINA RESULT:      -7.1      2.986      4.649
REMARK  Name = 
REMARK  7 active torsions:
REMARK  status: ('A' for Active; 'I' for Inactive)
REMARK    1  A    between atoms: C_1  and  O_2
REMARK    2  A    between atoms: O_2  and  C_3
REMARK    3  A    between atoms: C_8  and  O_9
REMARK    4  A    between atoms: O_9  and  C_10
REMARK    5  A    between atoms: C_10  and  C_11
REMARK    6  A    between atoms: N_13  and  N_14
REMARK    7  A    between atoms: C_17  and  C_18
REMARK                            x       y       z     vdW  Elec       q    Type
REMARK                         _______ _______ _______ _____ _____    ______ ____
ROOT
ATOM      1  C   UNL     1       7.478   5.006  18.091  0.00  0.00    +0.000 C 
ATOM      2  O   UNL     1       8.312   4.129  17.859  0.00  0.00    +0.000 OA
ATOM      3  N   UNL     1       6.950   5.865  17.125  0.00  0.00    +0.000 N 
ATOM      4  H   UNL     1       6.239   6.546  17.366  0.00  0.00    +0.000 HD
ENDROOT
BRANCH   3   5
ATOM      5  N   UNL     1       7.475   5.831  15.863  0.00  0.00    +0.000 NA
ATOM      6  C   UNL     1       7.006   5.016  14.976  0.00  0.00    +0.000 C 
ATOM      7  C   UNL     1       7.554   5.007  13.607  0.00  0.00    +0.000 C 
ATOM      8  C   UNL     1       6.764   4.196  12.894  0.00  0.00    +0.000 C 
ATOM      9  C   UNL     1       6.923   3.888  11.444  0.00  0.00    +0.000 C 
ATOM     10  C   UNL     1       5.626   3.613  13.678  0.00  0.00    +0.000 C 
ATOM     11  C   UNL     1       5.924   3.992  15.129  0.00  0.00    +0.000 C 
ENDBRANCH   3   5
BRANCH   1  12
ATOM     12  C   UNL     1       6.981   5.267  19.515  0.00  0.00    +0.000 C 
BRANCH  12  13
ATOM     13  O   UNL     1       5.607   5.620  19.527  0.00  0.00    +0.000 OA
BRANCH  13  19
ATOM     14  C   UNL     1       3.771   4.990  17.940  0.00  0.00    +0.000 A 
ATOM     15  C   UNL     1       3.005   3.923  17.438  0.00  0.00    +0.000 A 
ATOM     16  C   UNL     1       3.070   2.660  18.018  0.00  0.00    +0.000 A 
ATOM     17  C   UNL     1       3.929   2.439  19.088  0.00  0.00    +0.000 A 
ATOM     18  C   UNL     1       4.748   3.475  19.543  0.00  0.00    +0.000 A 
ATOM     19  C   UNL     1       4.700   4.754  18.967  0.00  0.00    +0.000 A 
BRANCH  14  21
ATOM     20  C   UNL     1       2.756   7.113  18.111  0.00  0.00    +0.000 C 
ATOM     21  O   UNL     1       3.640   6.243  17.399  0.00  0.00    +0.000 OA
ENDBRANCH  14  21
ENDBRANCH  13  19
ENDBRANCH  12  13
ENDBRANCH   1  12
TORSDOF 5
ENDMDL
MODEL 3
REMARK VINA RESULT:      -7.1      2.901      4.325
REMARK  Name = 
REMARK  7 active torsions:
REMARK  status: ('A' for Active; 'I' for Inactive)
REMARK    1  A    between atoms: C_1  and  O_2
REMARK    2  A    between atoms: O_2  and  C_3
REMARK    3  A    between atoms: C_8  and  O_9
REMARK    4  A    between atoms: O_9  and  C_10
REMARK    5  A    between atoms: C_10  and  C_11
REMARK    6  A    between atoms: N_13  and  N_14
REMARK    7  A    between atoms: C_17  and  C_18
REMARK                            x       y       z     vdW  Elec       q    Type
REMARK                         _______ _______ _______ _____ _____    ______ ____
ROOT
ATOM      1  C   UNL     1       6.898   5.066  18.030  0.00  0.00    +0.000 C 
ATOM      2  O   UNL     1       7.894   4.342  17.983  0.00  0.00    +0.000 OA
ATOM      3  N   UNL     1       6.393   5.781  16.941  0.00  0.00    +0.000 N 
ATOM      4  H   UNL     1       5.548   6.335  17.029  0.00  0.00    +0.000 HD
ENDROOT
BRANCH   3   5
ATOM      5  N   UNL     1       7.110   5.792  15.778  0.00  0.00    +0.000 NA
ATOM      6  C   UNL     1       6.800   4.997  14.806  0.00  0.00    +0.000 C 
ATOM      7  C   UNL     1       7.556   5.037  13.541  0.00  0.00    +0.000 C 
ATOM      8  C   UNL     1       6.903   4.237  12.690  0.00  0.00    +0.000 C 
ATOM      9  C   UNL     1       7.293   3.975  11.275  0.00  0.00    +0.000 C 
ATOM     10  C   UNL     1       5.667   3.615  13.269  0.00  0.00    +0.000 C 
ATOM     11  C   UNL     1       5.727   3.954  14.759  0.00  0.00    +0.000 C 
ENDBRANCH   3   5
BRANCH   1  12
ATOM     12  C   UNL     1       6.143   5.290  19.344  0.00  0.00    +0.000 C 
BRANCH  12  13
ATOM     13  O   UNL     1       5.416   4.134  19.726  0.00  0.00    +0.000 OA
BRANCH  13  19
ATOM     14  C   UNL     1       3.017   4.682  19.245  0.00  0.00    +0.000 A 
ATOM     15  C   UNL     1       1.889   4.325  18.485  0.00  0.00    +0.000 A 
ATOM     16  C   UNL     1       1.875   3.156  17.730  0.00  0.00    +0.000 A 
ATOM     17  C   UNL     1       3.003   2.345  17.700  0.00  0.00    +0.000 A 
ATOM     18  C   UNL     1       4.153   2.732  18.392  0.00  0.00    +0.000 A 
ATOM     19  C   UNL     1       4.187   3.910  19.154  0.00  0.00    +0.000 A 
BRANCH  14  21
ATOM     20  C   UNL     1       2.649   7.011  19.350  0.00  0.00    +0.000 C 
ATOM     21  O   UNL     1       2.985   5.802  20.036  0.00  0.00    +0.000 OA
ENDBRANCH  14  21
ENDBRANCH  13  19
ENDBRANCH  12  13
ENDBRANCH   1  12
TORSDOF 5
ENDMDL
MODEL 4
REMARK VINA RESULT:      -7.0      4.529      8.223
REMARK  Name = 
REMARK  7 active torsions:
REMARK  status: ('A' for Active; 'I' for Inactive)
REMARK    1  A    between atoms: C_1  and  O_2
REMARK    2  A    between atoms: O_2  and  C_3
REMARK    3  A    between atoms: C_8  and  O_9
REMARK    4  A    between atoms: O_9  and  C_10
REMARK    5  A    between atoms: C_10  and  C_11
REMARK    6  A    between atoms: N_13  and  N_14
REMARK    7  A    between atoms: C_17  and  C_18
REMARK                            x       y       z     vdW  Elec       q    Type
REMARK                         _______ _______ _______ _____ _____    ______ ____
ROOT
ATOM      1  C   UNL     1       7.731   7.814  17.827  0.00  0.00    +0.000 C 
ATOM      2  O   UNL     1       8.156   6.959  18.607  0.00  0.00    +0.000 OA
ATOM      3  N   UNL     1       6.791   7.566  16.824  0.00  0.00    +0.000 N 
ATOM      4  H   UNL     1       6.451   8.316  16.233  0.00  0.00    +0.000 HD
ENDROOT
BRANCH   3   5
ATOM      5  N   UNL     1       6.405   6.275  16.595  0.00  0.00    +0.000 NA
ATOM      6  C   UNL     1       5.289   5.827  17.071  0.00  0.00    +0.000 C 
ATOM      7  C   UNL     1       4.862   4.444  16.793  0.00  0.00    +0.000 C 
ATOM      8  C   UNL     1       3.615   4.336  17.265  0.00  0.00    +0.000 C 
ATOM      9  C   UNL     1       2.765   3.113  17.195  0.00  0.00    +0.000 C 
ATOM     10  C   UNL     1       3.082   5.602  17.869  0.00  0.00    +0.000 C 
ATOM     11  C   UNL     1       4.292   6.535  17.935  0.00  0.00    +0.000 C 
ENDBRANCH   3   5
BRANCH   1  12
ATOM     12  C   UNL     1       8.261   9.250  17.863  0.00  0.00    +0.000 C 
BRANCH  12  13
ATOM     13  O   UNL     1       8.967   9.512  19.064  0.00  0.00    +0.000 OA
BRANCH  13  19
ATOM     14  C   UNL     1       9.671  11.561  20.327  0.00  0.00    +0.000 A 
ATOM     15  C   UNL     1      10.477  12.712  20.287  0.00  0.00    +0.000 A 
ATOM     16  C   UNL     1      11.124  13.093  19.115  0.00  0.00    +0.000 A 
ATOM     17  C   UNL     1      10.999  12.308  17.975  0.00  0.00    +0.000 A 
ATOM     18  C   UNL     1      10.261  11.123  18.029  0.00  0.00    +0.000 A 
ATOM     19  C   UNL     1       9.606  10.720  19.203  0.00  0.00    +0.000 A 
BRANCH  14  21
ATOM     20  C   UNL     1       8.830  12.321  22.397  0.00  0.00    +0.000 C 
ATOM     21  O   UNL     1       8.986  11.241  21.471  0.00  0.00    +0.000 OA
ENDBRANCH  14  21
ENDBRANCH  13  19
ENDBRANCH  12  13
ENDBRANCH   1  12
TORSDOF 5
ENDMDL
MODEL 5
REMARK VINA RESULT:      -7.0      4.093      6.385
REMARK  Name = 
REMARK  7 active torsions:
REMARK  status: ('A' for Active; 'I' for Inactive)
REMARK    1  A    between atoms: C_1  and  O_2
REMARK    2  A    between atoms: O_2  and  C_3
REMARK    3  A    between atoms: C_8  and  O_9
REMARK    4  A    between atoms: O_9  and  C_10
REMARK    5  A    between atoms: C_10  and  C_11
REMARK    6  A    between atoms: N_13  and  N_14
REMARK    7  A    between atoms: C_17  and  C_18
REMARK                            x       y       z     vdW  Elec       q    Type
REMARK                         _______ _______ _______ _____ _____    ______ ____
ROOT
ATOM      1  C   UNL     1       7.984   7.590  18.108  0.00  0.00    +0.000 C 
ATOM      2  O   UNL     1       7.544   7.774  16.972  0.00  0.00    +0.000 OA
ATOM      3  N   UNL     1       8.632   8.567  18.868  0.00  0.00    +0.000 N 
ATOM      4  H   UNL     1       8.943   8.370  19.813  0.00  0.00    +0.000 HD
ENDROOT
BRANCH   3   5
ATOM      5  N   UNL     1       8.920   9.768  18.281  0.00  0.00    +0.000 NA
ATOM      6  C   UNL     1       9.362  10.756  18.988  0.00  0.00    +0.000 C 
ATOM      7  C   UNL     1       9.702  12.039  18.344  0.00  0.00    +0.000 C 
ATOM      8  C   UNL     1      10.280  12.788  19.289  0.00  0.00    +0.000 C 
ATOM      9  C   UNL     1      10.807  14.170  19.096  0.00  0.00    +0.000 C 
ATOM     10  C   UNL     1      10.407  12.102  20.616  0.00  0.00    +0.000 C 
ATOM     11  C   UNL     1       9.587  10.820  20.466  0.00  0.00    +0.000 C 
ENDBRANCH   3   5
BRANCH   1  12
ATOM     12  C   UNL     1       7.902   6.215  18.776  0.00  0.00    +0.000 C 
BRANCH  12  13
ATOM     13  O   UNL     1       7.802   5.178  17.813  0.00  0.00    +0.000 OA
BRANCH  13  19
ATOM     14  C   UNL     1       6.046   4.445  16.180  0.00  0.00    +0.000 A 
ATOM     15  C   UNL     1       4.765   3.881  16.050  0.00  0.00    +0.000 A 
ATOM     16  C   UNL     1       3.946   3.700  17.162  0.00  0.00    +0.000 A 
ATOM     17  C   UNL     1       4.413   4.049  18.423  0.00  0.00    +0.000 A 
ATOM     18  C   UNL     1       5.714   4.540  18.568  0.00  0.00    +0.000 A 
ATOM     19  C   UNL     1       6.554   4.725  17.460  0.00  0.00    +0.000 A 
BRANCH  14  21
ATOM     20  C   UNL     1       6.348   4.031  13.877  0.00  0.00    +0.000 C 
ATOM     21  O   UNL     1       6.809   4.681  15.065  0.00  0.00    +0.000 OA
ENDBRANCH  14  21
ENDBRANCH  13  19
ENDBRANCH  12  13
ENDBRANCH   1  12
TORSDOF 5
ENDMDL
MODEL 6
REMARK VINA RESULT:      -7.0      0.919      1.025
REMARK  Name = 
REMARK  7 active torsions:
REMARK  status: ('A' for Active; 'I' for Inactive)
REMARK    1  A    between atoms: C_1  and  O_2
REMARK    2  A    between atoms: O_2  and  C_3
REMARK    3  A    between atoms: C_8  and  O_9
REMARK    4  A    between atoms: O_9  and  C_10
REMARK    5  A    between atoms: C_10  and  C_11
REMARK    6  A    between atoms: N_13  and  N_14
REMARK    7  A    between atoms: C_17  and  C_18
REMARK                            x       y       z     vdW  Elec       q    Type
REMARK                         _______ _______ _______ _____ _____    ______ ____
ROOT
ATOM      1  C   UNL     1       4.586   2.283  19.282  0.00  0.00    +0.000 C 
ATOM      2  O   UNL     1       4.990   2.037  20.420  0.00  0.00    +0.000 OA
ATOM      3  N   UNL     1       5.148   3.242  18.438  0.00  0.00    +0.000 N 
ATOM      4  H   UNL     1       4.796   3.378  17.497  0.00  0.00    +0.000 HD
ENDROOT
BRANCH   3   5
ATOM      5  N   UNL     1       6.126   4.059  18.936  0.00  0.00    +0.000 NA
ATOM      6  C   UNL     1       6.467   5.135  18.307  0.00  0.00    +0.000 C 
ATOM      7  C   UNL     1       7.498   6.030  18.865  0.00  0.00    +0.000 C 
ATOM      8  C   UNL     1       7.507   7.120  18.090  0.00  0.00    +0.000 C 
ATOM      9  C   UNL     1       8.384   8.310  18.280  0.00  0.00    +0.000 C 
ATOM     10  C   UNL     1       6.499   7.084  16.980  0.00  0.00    +0.000 C 
ATOM     11  C   UNL     1       5.958   5.653  16.997  0.00  0.00    +0.000 C 
ENDBRANCH   3   5
BRANCH   1  12
ATOM     12  C   UNL     1       3.359   1.570  18.708  0.00  0.00    +0.000 C 
BRANCH  12  13
ATOM     13  O   UNL     1       2.160   2.245  19.050  0.00  0.00    +0.000 OA
BRANCH  13  19
ATOM     14  C   UNL     1       2.314   4.364  20.384  0.00  0.00    +0.000 A 
ATOM     15  C   UNL     1       2.439   5.762  20.305  0.00  0.00    +0.000 A 
ATOM     16  C   UNL     1       2.333   6.422  19.085  0.00  0.00    +0.000 A 
ATOM     17  C   UNL     1       2.133   5.688  17.922  0.00  0.00    +0.000 A 
ATOM     18  C   UNL     1       2.084   4.293  17.984  0.00  0.00    +0.000 A 
ATOM     19  C   UNL     1       2.194   3.610  19.204  0.00  0.00    +0.000 A 
BRANCH  14  21
ATOM     20  C   UNL     1       1.300   2.795  21.826  0.00  0.00    +0.000 C 
ATOM     21  O   UNL     1       2.352   3.738  21.604  0.00  0.00    +0.000 OA
ENDBRANCH  14  21
ENDBRANCH  13  19
ENDBRANCH  12  13
ENDBRANCH   1  12
TORSDOF 5
ENDMDL
MODEL 7
REMARK VINA RESULT:      -7.0      3.909      6.678
REMARK  Name = 
REMARK  7 active torsions:
REMARK  status: ('A' for Active; 'I' for Inactive)
REMARK    1  A    between atoms: C_1  and  O_2
REMARK    2  A    between atoms: O_2  and  C_3
REMARK    3  A    between atoms: C_8  and  O_9
REMARK    4  A    between atoms: O_9  and  C_10
REMARK    5  A    between atoms: C_10  and  C_11
REMARK    6  A    between atoms: N_13  and  N_14
REMARK    7  A    between atoms: C_17  and  C_18
REMARK                            x       y       z     vdW  Elec       q    Type
REMARK                         _______ _______ _______ _____ _____    ______ ____
ROOT
ATOM      1  C   UNL     1       2.356   8.235  18.175  0.00  0.00    +0.000 C 
ATOM      2  O   UNL     1       2.138   8.979  17.217  0.00  0.00    +0.000 OA
ATOM      3  N   UNL     1       1.780   8.389  19.438  0.00  0.00    +0.000 N 
ATOM      4  H   UNL     1       1.968   7.726  20.180  0.00  0.00    +0.000 HD
ENDROOT
BRANCH   3   5
ATOM      5  N   UNL     1       1.025   9.503  19.680  0.00  0.00    +0.000 NA
ATOM      6  C   UNL     1       0.418   9.654  20.812  0.00  0.00    +0.000 C 
ATOM      7  C   UNL     1      -0.366  10.873  21.081  0.00  0.00    +0.000 C 
ATOM      8  C   UNL     1      -0.721  10.812  22.369  0.00  0.00    +0.000 C 
ATOM      9  C   UNL     1      -1.518  11.840  23.098  0.00  0.00    +0.000 C 
ATOM     10  C   UNL     1      -0.209   9.597  23.084  0.00  0.00    +0.000 C 
ATOM     11  C   UNL     1       0.367   8.713  21.976  0.00  0.00    +0.000 C 
ENDBRANCH   3   5
BRANCH   1  12
ATOM     12  C   UNL     1       3.353   7.079  18.067  0.00  0.00    +0.000 C 
BRANCH  12  13
ATOM     13  O   UNL     1       3.194   6.157  19.133  0.00  0.00    +0.000 OA
BRANCH  13  19
ATOM     14  C   UNL     1       4.171   3.859  18.904  0.00  0.00    +0.000 A 
ATOM     15  C   UNL     1       3.875   2.506  18.666  0.00  0.00    +0.000 A 
ATOM     16  C   UNL     1       2.604   2.112  18.259  0.00  0.00    +0.000 A 
ATOM     17  C   UNL     1       1.602   3.065  18.118  0.00  0.00    +0.000 A 
ATOM     18  C   UNL     1       1.870   4.401  18.426  0.00  0.00    +0.000 A 
ATOM     19  C   UNL     1       3.144   4.815  18.842  0.00  0.00    +0.000 A 
BRANCH  14  21
ATOM     20  C   UNL     1       6.264   4.626  18.129  0.00  0.00    +0.000 C 
ATOM     21  O   UNL     1       5.448   4.234  19.236  0.00  0.00    +0.000 OA
ENDBRANCH  14  21
ENDBRANCH  13  19
ENDBRANCH  12  13
ENDBRANCH   1  12
TORSDOF 5
ENDMDL
MODEL 8
REMARK VINA RESULT:      -7.0      4.137      6.599
REMARK  Name = 
REMARK  7 active torsions:
REMARK  status: ('A' for Active; 'I' for Inactive)
REMARK    1  A    between atoms: C_1  and  O_2
REMARK    2  A    between atoms: O_2  and  C_3
REMARK    3  A    between atoms: C_8  and  O_9
REMARK    4  A    between atoms: O_9  and  C_10
REMARK    5  A    between atoms: C_10  and  C_11
REMARK    6  A    between atoms: N_13  and  N_14
REMARK    7  A    between atoms: C_17  and  C_18
REMARK                            x       y       z     vdW  Elec       q    Type
REMARK                         _______ _______ _______ _____ _____    ______ ____
ROOT
ATOM      1  C   UNL     1       2.115   8.393  18.372  0.00  0.00    +0.000 C 
ATOM      2  O   UNL     1       2.060   9.176  17.421  0.00  0.00    +0.000 OA
ATOM      3  N   UNL     1       1.491   8.607  19.603  0.00  0.00    +0.000 N 
ATOM      4  H   UNL     1       1.541   7.912  20.339  0.00  0.00    +0.000 HD
ENDROOT
BRANCH   3   5
ATOM      5  N   UNL     1       0.886   9.812  19.829  0.00  0.00    +0.000 NA
ATOM      6  C   UNL     1       0.208  10.016  20.911  0.00  0.00    +0.000 C 
ATOM      7  C   UNL     1      -0.414  11.329  21.165  0.00  0.00    +0.000 C 
ATOM      8  C   UNL     1      -0.888  11.282  22.414  0.00  0.00    +0.000 C 
ATOM      9  C   UNL     1      -1.591  12.393  23.116  0.00  0.00    +0.000 C 
ATOM     10  C   UNL     1      -0.622   9.983  23.117  0.00  0.00    +0.000 C 
ATOM     11  C   UNL     1      -0.082   9.059  22.025  0.00  0.00    +0.000 C 
ENDBRANCH   3   5
BRANCH   1  12
ATOM     12  C   UNL     1       2.946   7.110  18.293  0.00  0.00    +0.000 C 
BRANCH  12  13
ATOM     13  O   UNL     1       2.536   6.168  19.271  0.00  0.00    +0.000 OA
BRANCH  13  19
ATOM     14  C   UNL     1       1.980   3.754  19.666  0.00  0.00    +0.000 A 
ATOM     15  C   UNL     1       1.891   2.486  19.067  0.00  0.00    +0.000 A 
ATOM     16  C   UNL     1       2.377   2.264  17.782  0.00  0.00    +0.000 A 
ATOM     17  C   UNL     1       2.928   3.320  17.065  0.00  0.00    +0.000 A 
ATOM     18  C   UNL     1       2.951   4.600  17.625  0.00  0.00    +0.000 A 
ATOM     19  C   UNL     1       2.461   4.842  18.918  0.00  0.00    +0.000 A 
BRANCH  14  21
ATOM     20  C   UNL     1       1.453   2.733  21.727  0.00  0.00    +0.000 C 
ATOM     21  O   UNL     1       1.559   3.935  20.958  0.00  0.00    +0.000 OA
ENDBRANCH  14  21
ENDBRANCH  13  19
ENDBRANCH  12  13
ENDBRANCH   1  12
TORSDOF 5
ENDMDL
MODEL 9
REMARK VINA RESULT:      -7.0      4.225      6.789
REMARK  Name = 
REMARK  7 active torsions:
REMARK  status: ('A' for Active; 'I' for Inactive)
REMARK    1  A    between atoms: C_1  and  O_2
REMARK    2  A    between atoms: O_2  and  C_3
REMARK    3  A    between atoms: C_8  and  O_9
REMARK    4  A    between atoms: O_9  and  C_10
REMARK    5  A    between atoms: C_10  and  C_11
REMARK    6  A    between atoms: N_13  and  N_14
REMARK    7  A    between atoms: C_17  and  C_18
REMARK                            x       y       z     vdW  Elec       q    Type
REMARK                         _______ _______ _______ _____ _____    ______ ____
ROOT
ATOM      1  C   UNL     1       2.091   8.410  18.344  0.00  0.00    +0.000 C 
ATOM      2  O   UNL     1       2.039   9.206  17.404  0.00  0.00    +0.000 OA
ATOM      3  N   UNL     1       1.504   8.628  19.593  0.00  0.00    +0.000 N 
ATOM      4  H   UNL     1       1.549   7.923  20.319  0.00  0.00    +0.000 HD
ENDROOT
BRANCH   3   5
ATOM      5  N   UNL     1       0.942   9.849  19.847  0.00  0.00    +0.000 NA
ATOM      6  C   UNL     1       0.239  10.040  20.915  0.00  0.00    +0.000 C 
ATOM      7  C   UNL     1      -0.336  11.368  21.200  0.00  0.00    +0.000 C 
ATOM      8  C   UNL     1      -0.851  11.294  22.433  0.00  0.00    +0.000 C 
ATOM      9  C   UNL     1      -1.529  12.407  23.156  0.00  0.00    +0.000 C 
ATOM     10  C   UNL     1      -0.662   9.960  23.091  0.00  0.00    +0.000 C 
ATOM     11  C   UNL     1      -0.126   9.055  21.981  0.00  0.00    +0.000 C 
ENDBRANCH   3   5
BRANCH   1  12
ATOM     12  C   UNL     1       2.880   7.102  18.231  0.00  0.00    +0.000 C 
BRANCH  12  13
ATOM     13  O   UNL     1       3.062   6.497  19.500  0.00  0.00    +0.000 OA
BRANCH  13  19
ATOM     14  C   UNL     1       3.417   4.034  19.192  0.00  0.00    +0.000 A 
ATOM     15  C   UNL     1       2.959   2.755  19.554  0.00  0.00    +0.000 A 
ATOM     16  C   UNL     1       1.775   2.594  20.267  0.00  0.00    +0.000 A 
ATOM     17  C   UNL     1       1.050   3.714  20.656  0.00  0.00    +0.000 A 
ATOM     18  C   UNL     1       1.539   4.990  20.365  0.00  0.00    +0.000 A 
ATOM     19  C   UNL     1       2.733   5.172  19.651  0.00  0.00    +0.000 A 
BRANCH  14  21
ATOM     20  C   UNL     1       4.461   3.596  17.121  0.00  0.00    +0.000 C 
ATOM     21  O   UNL     1       4.550   4.167  18.429  0.00  0.00    +0.000 OA
ENDBRANCH  14  21
ENDBRANCH  13  19
ENDBRANCH  12  13
ENDBRANCH   1  12
TORSDOF 5
ENDMDL
