MODEL 1
REMARK VINA RESULT:      -9.0      0.000      0.000
REMARK  Name = 
REMARK  5 active torsions:
REMARK  status: ('A' for Active; 'I' for Inactive)
REMARK    1  A    between atoms: N_4  and  C_5
REMARK    2  A    between atoms: C_12  and  C_13
REMARK    3  A    between atoms: C_13  and  O_15
REMARK    4  A    between atoms: O_15  and  C_16
REMARK    5  A    between atoms: C_16  and  C_17
REMARK                            x       y       z     vdW  Elec       q    Type
REMARK                         _______ _______ _______ _____ _____    ______ ____
ROOT
ATOM      1  N   UNL     1       7.907   7.692  18.118  0.00  0.00    +0.000 N 
ATOM      2  C   UNL     1       7.491   6.631  17.411  0.00  0.00    +0.000 A 
ATOM      3  N   UNL     1       7.553   6.562  16.084  0.00  0.00    +0.000 NA
ATOM      4  N   UNL     1       7.007   5.346  15.831  0.00  0.00    +0.000 N 
ATOM      5  N   UNL     1       6.585   4.642  16.909  0.00  0.00    +0.000 NA
ATOM      6  C   UNL     1       6.919   5.443  17.935  0.00  0.00    +0.000 A 
ATOM      7  H   UNL     1       8.076   8.565  17.631  0.00  0.00    +0.000 HD
ATOM      8  H   UNL     1       7.665   7.795  19.102  0.00  0.00    +0.000 HD
ENDROOT
BRANCH   4   9
ATOM      9  C   UNL     1       6.872   4.817  14.521  0.00  0.00    +0.000 A 
ATOM     10  C   UNL     1       5.904   3.847  14.228  0.00  0.00    +0.000 A 
ATOM     11  C   UNL     1       5.788   3.362  12.923  0.00  0.00    +0.000 A 
ATOM     12  C   UNL     1       6.639   3.826  11.917  0.00  0.00    +0.000 A 
ATOM     13  C   UNL     1       7.608   4.784  12.209  0.00  0.00    +0.000 A 
ATOM     14  C   UNL     1       7.723   5.285  13.505  0.00  0.00    +0.000 A 
ENDBRANCH   4   9
BRANCH   6  15
ATOM     15  C   UNL     1       6.698   5.093  19.329  0.00  0.00    +0.000 C 
ATOM     16  O   UNL     1       7.497   5.364  20.223  0.00  0.00    +0.000 OA
BRANCH  15  17
ATOM     17  O   UNL     1       5.516   4.442  19.533  0.00  0.00    +0.000 OA
BRANCH  17  18
ATOM     18  C   UNL     1       4.339   5.112  19.071  0.00  0.00    +0.000 C 
BRANCH  18  19
ATOM     19  C   UNL     1       3.144   4.199  19.025  0.00  0.00    +0.000 A 
ATOM     20  C   UNL     1       3.172   3.078  18.187  0.00  0.00    +0.000 A 
ATOM     21  F   UNL     1       4.262   2.823  17.448  0.00  0.00    +0.000 F 
ATOM     22  C   UNL     1       2.089   2.209  18.080  0.00  0.00    +0.000 A 
ATOM     23  C   UNL     1       0.936   2.452  18.820  0.00  0.00    +0.000 A 
ATOM     24  C   UNL     1       0.881   3.560  19.665  0.00  0.00    +0.000 A 
ATOM     25  C   UNL     1       1.976   4.428  19.767  0.00  0.00    +0.000 A 
ATOM     26 CL   UNL     1       1.816   5.786  20.822  0.00  0.00    +0.000 Cl
ENDBRANCH  18  19
ENDBRANCH  17  18
ENDBRANCH  15  17
ENDBRANCH   6  15
TORSDOF 5
ENDMDL
MODEL 2
REMARK VINA RESULT:      -8.6      1.094      1.489
REMARK  Name = 
REMARK  5 active torsions:
REMARK  status: ('A' for Active; 'I' for Inactive)
REMARK    1  A    between atoms: N_4  and  C_5
REMARK    2  A    between atoms: C_12  and  C_13
REMARK    3  A    between atoms: C_13  and  O_15
REMARK    4  A    between atoms: O_15  and  C_16
REMARK    5  A    between atoms: C_16  and  C_17
REMARK                            x       y       z     vdW  Elec       q    Type
REMARK                         _______ _______ _______ _____ _____    ______ ____
ROOT
ATOM      1  N   UNL     1       7.949   7.628  18.143  0.00  0.00    +0.000 N 
ATOM      2  C   UNL     1       7.525   6.577  17.427  0.00  0.00    +0.000 A 
ATOM      3  N   UNL     1       7.572   6.525  16.098  0.00  0.00    +0.000 NA
ATOM      4  N   UNL     1       7.023   5.313  15.835  0.00  0.00    +0.000 N 
ATOM      5  N   UNL     1       6.612   4.595  16.909  0.00  0.00    +0.000 NA
ATOM      6  C   UNL     1       6.958   5.383  17.941  0.00  0.00    +0.000 A 
ATOM      7  H   UNL     1       8.113   8.508  17.666  0.00  0.00    +0.000 HD
ATOM      8  H   UNL     1       7.718   7.718  19.131  0.00  0.00    +0.000 HD
ENDROOT
BRANCH   4   9
ATOM      9  C   UNL     1       6.874   4.801  14.520  0.00  0.00    +0.000 A 
ATOM     10  C   UNL     1       7.730   5.202  13.486  0.00  0.00    +0.000 A 
ATOM     11  C   UNL     1       7.565   4.664  12.207  0.00  0.00    +0.000 A 
ATOM     12  C   UNL     1       6.545   3.743  11.953  0.00  0.00    +0.000 A 
ATOM     13  C   UNL     1       5.687   3.351  12.978  0.00  0.00    +0.000 A 
ATOM     14  C   UNL     1       5.852   3.872  14.261  0.00  0.00    +0.000 A 
ENDBRANCH   4   9
BRANCH   6  15
ATOM     15  C   UNL     1       6.751   5.014  19.332  0.00  0.00    +0.000 C 
ATOM     16  O   UNL     1       7.514   5.352  20.236  0.00  0.00    +0.000 OA
BRANCH  15  17
ATOM     17  O   UNL     1       5.627   4.264  19.524  0.00  0.00    +0.000 OA
BRANCH  17  18
ATOM     18  C   UNL     1       4.411   4.992  19.724  0.00  0.00    +0.000 C 
BRANCH  18  19
ATOM     19  C   UNL     1       3.197   4.187  19.349  0.00  0.00    +0.000 A 
ATOM     20  C   UNL     1       3.060   2.884  19.845  0.00  0.00    +0.000 A 
ATOM     21  F   UNL     1       4.001   2.375  20.652  0.00  0.00    +0.000 F 
ATOM     22  C   UNL     1       1.972   2.080  19.515  0.00  0.00    +0.000 A 
ATOM     23  C   UNL     1       0.985   2.570  18.666  0.00  0.00    +0.000 A 
ATOM     24  C   UNL     1       1.094   3.865  18.160  0.00  0.00    +0.000 A 
ATOM     25  C   UNL     1       2.191   4.668  18.498  0.00  0.00    +0.000 A 
ATOM     26 CL   UNL     1       2.256   6.252  17.812  0.00  0.00    +0.000 Cl
ENDBRANCH  18  19
ENDBRANCH  17  18
ENDBRANCH  15  17
ENDBRANCH   6  15
TORSDOF 5
ENDMDL
MODEL 3
REMARK VINA RESULT:      -8.6      0.671      1.194
REMARK  Name = 
REMARK  5 active torsions:
REMARK  status: ('A' for Active; 'I' for Inactive)
REMARK    1  A    between atoms: N_4  and  C_5
REMARK    2  A    between atoms: C_12  and  C_13
REMARK    3  A    between atoms: C_13  and  O_15
REMARK    4  A    between atoms: O_15  and  C_16
REMARK    5  A    between atoms: C_16  and  C_17
REMARK                            x       y       z     vdW  Elec       q    Type
REMARK                         _______ _______ _______ _____ _____    ______ ____
ROOT
ATOM      1  N   UNL     1       7.928   7.590  18.110  0.00  0.00    +0.000 N 
ATOM      2  C   UNL     1       7.423   6.584  17.383  0.00  0.00    +0.000 A 
ATOM      3  N   UNL     1       7.577   6.478  16.065  0.00  0.00    +0.000 NA
ATOM      4  N   UNL     1       6.885   5.346  15.782  0.00  0.00    +0.000 N 
ATOM      5  N   UNL     1       6.284   4.732  16.831  0.00  0.00    +0.000 NA
ATOM      6  C   UNL     1       6.648   5.500  17.872  0.00  0.00    +0.000 A 
ATOM      7  H   UNL     1       8.257   8.421  17.629  0.00  0.00    +0.000 HD
ATOM      8  H   UNL     1       7.628   7.748  19.070  0.00  0.00    +0.000 HD
ENDROOT
BRANCH   4   9
ATOM      9  C   UNL     1       6.779   4.813  14.472  0.00  0.00    +0.000 A 
ATOM     10  C   UNL     1       7.691   5.169  13.469  0.00  0.00    +0.000 A 
ATOM     11  C   UNL     1       7.567   4.611  12.194  0.00  0.00    +0.000 A 
ATOM     12  C   UNL     1       6.533   3.714  11.912  0.00  0.00    +0.000 A 
ATOM     13  C   UNL     1       5.621   3.365  12.906  0.00  0.00    +0.000 A 
ATOM     14  C   UNL     1       5.744   3.907  14.185  0.00  0.00    +0.000 A 
ENDBRANCH   4   9
BRANCH   6  15
ATOM     15  C   UNL     1       6.271   5.215  19.247  0.00  0.00    +0.000 C 
ATOM     16  O   UNL     1       7.062   5.277  20.185  0.00  0.00    +0.000 OA
BRANCH  15  17
ATOM     17  O   UNL     1       4.955   4.880  19.380  0.00  0.00    +0.000 OA
BRANCH  17  18
ATOM     18  C   UNL     1       4.682   3.509  19.687  0.00  0.00    +0.000 C 
BRANCH  18  19
ATOM     19  C   UNL     1       3.246   3.142  19.430  0.00  0.00    +0.000 A 
ATOM     20  C   UNL     1       2.945   2.218  18.422  0.00  0.00    +0.000 A 
ATOM     21  F   UNL     1       3.935   1.663  17.708  0.00  0.00    +0.000 F 
ATOM     22  C   UNL     1       1.635   1.856  18.120  0.00  0.00    +0.000 A 
ATOM     23  C   UNL     1       0.582   2.424  18.830  0.00  0.00    +0.000 A 
ATOM     24  C   UNL     1       0.852   3.345  19.841  0.00  0.00    +0.000 A 
ATOM     25  C   UNL     1       2.173   3.703  20.139  0.00  0.00    +0.000 A 
ATOM     26 CL   UNL     1       2.417   4.865  21.394  0.00  0.00    +0.000 Cl
ENDBRANCH  18  19
ENDBRANCH  17  18
ENDBRANCH  15  17
ENDBRANCH   6  15
TORSDOF 5
ENDMDL
MODEL 4
REMARK VINA RESULT:      -8.4      2.630      6.309
REMARK  Name = 
REMARK  5 active torsions:
REMARK  status: ('A' for Active; 'I' for Inactive)
REMARK    1  A    between atoms: N_4  and  C_5
REMARK    2  A    between atoms: C_12  and  C_13
REMARK    3  A    between atoms: C_13  and  O_15
REMARK    4  A    between atoms: O_15  and  C_16
REMARK    5  A    between atoms: C_16  and  C_17
REMARK                            x       y       z     vdW  Elec       q    Type
REMARK                         _______ _______ _______ _____ _____    ______ ____
ROOT
ATOM      1  N   UNL     1       7.903   5.571  19.698  0.00  0.00    +0.000 N 
ATOM      2  C   UNL     1       6.636   5.503  19.266  0.00  0.00    +0.000 A 
ATOM      3  N   UNL     1       5.685   4.805  19.883  0.00  0.00    +0.000 NA
ATOM      4  N   UNL     1       4.609   5.010  19.082  0.00  0.00    +0.000 N 
ATOM      5  N   UNL     1       4.816   5.778  17.985  0.00  0.00    +0.000 NA
ATOM      6  C   UNL     1       6.108   6.128  18.107  0.00  0.00    +0.000 A 
ATOM      7  H   UNL     1       8.217   4.902  20.393  0.00  0.00    +0.000 HD
ATOM      8  H   UNL     1       8.642   5.942  19.103  0.00  0.00    +0.000 HD
ENDROOT
BRANCH   4   9
ATOM      9  C   UNL     1       3.329   4.462  19.353  0.00  0.00    +0.000 A 
ATOM     10  C   UNL     1       2.687   4.694  20.576  0.00  0.00    +0.000 A 
ATOM     11  C   UNL     1       1.418   4.154  20.803  0.00  0.00    +0.000 A 
ATOM     12  C   UNL     1       0.797   3.374  19.824  0.00  0.00    +0.000 A 
ATOM     13  C   UNL     1       1.438   3.136  18.610  0.00  0.00    +0.000 A 
ATOM     14  C   UNL     1       2.697   3.682  18.370  0.00  0.00    +0.000 A 
ENDBRANCH   4   9
BRANCH   6  15
ATOM     15  C   UNL     1       6.792   7.002  17.168  0.00  0.00    +0.000 C 
ATOM     16  O   UNL     1       7.386   8.022  17.513  0.00  0.00    +0.000 OA
BRANCH  15  17
ATOM     17  O   UNL     1       6.709   6.568  15.877  0.00  0.00    +0.000 OA
BRANCH  17  18
ATOM     18  C   UNL     1       7.469   5.398  15.556  0.00  0.00    +0.000 C 
BRANCH  18  19
ATOM     19  C   UNL     1       6.994   4.740  14.289  0.00  0.00    +0.000 A 
ATOM     20  C   UNL     1       7.694   4.966  13.098  0.00  0.00    +0.000 A 
ATOM     21  F   UNL     1       8.780   5.752  13.099  0.00  0.00    +0.000 F 
ATOM     22  C   UNL     1       7.290   4.406  11.888  0.00  0.00    +0.000 A 
ATOM     23  C   UNL     1       6.158   3.599  11.846  0.00  0.00    +0.000 A 
ATOM     24  C   UNL     1       5.443   3.355  13.018  0.00  0.00    +0.000 A 
ATOM     25  C   UNL     1       5.856   3.922  14.231  0.00  0.00    +0.000 A 
ATOM     26 CL   UNL     1       4.903   3.583  15.631  0.00  0.00    +0.000 Cl
ENDBRANCH  18  19
ENDBRANCH  17  18
ENDBRANCH  15  17
ENDBRANCH   6  15
TORSDOF 5
ENDMDL
MODEL 5
REMARK VINA RESULT:      -8.3      1.866      2.274
REMARK  Name = 
REMARK  5 active torsions:
REMARK  status: ('A' for Active; 'I' for Inactive)
REMARK    1  A    between atoms: N_4  and  C_5
REMARK    2  A    between atoms: C_12  and  C_13
REMARK    3  A    between atoms: C_13  and  O_15
REMARK    4  A    between atoms: O_15  and  C_16
REMARK    5  A    between atoms: C_16  and  C_17
REMARK                            x       y       z     vdW  Elec       q    Type
REMARK                         _______ _______ _______ _____ _____    ______ ____
ROOT
ATOM      1  N   UNL     1       7.476   6.309  18.598  0.00  0.00    +0.000 N 
ATOM      2  C   UNL     1       6.822   5.895  17.504  0.00  0.00    +0.000 A 
ATOM      3  N   UNL     1       7.430   5.500  16.388  0.00  0.00    +0.000 NA
ATOM      4  N   UNL     1       6.384   5.209  15.574  0.00  0.00    +0.000 N 
ATOM      5  N   UNL     1       5.148   5.409  16.093  0.00  0.00    +0.000 NA
ATOM      6  C   UNL     1       5.414   5.820  17.344  0.00  0.00    +0.000 A 
ATOM      7  H   UNL     1       8.460   6.543  18.517  0.00  0.00    +0.000 HD
ATOM      8  H   UNL     1       6.988   6.788  19.353  0.00  0.00    +0.000 HD
ENDROOT
BRANCH   4   9
ATOM      9  C   UNL     1       6.546   4.722  14.252  0.00  0.00    +0.000 A 
ATOM     10  C   UNL     1       5.706   3.726  13.739  0.00  0.00    +0.000 A 
ATOM     11  C   UNL     1       5.883   3.282  12.425  0.00  0.00    +0.000 A 
ATOM     12  C   UNL     1       6.900   3.817  11.630  0.00  0.00    +0.000 A 
ATOM     13  C   UNL     1       7.742   4.802  12.142  0.00  0.00    +0.000 A 
ATOM     14  C   UNL     1       7.564   5.260  13.446  0.00  0.00    +0.000 A 
ENDBRANCH   4   9
BRANCH   6  15
ATOM     15  C   UNL     1       4.382   6.127  18.322  0.00  0.00    +0.000 C 
ATOM     16  O   UNL     1       3.367   6.764  18.048  0.00  0.00    +0.000 OA
BRANCH  15  17
ATOM     17  O   UNL     1       4.660   5.632  19.562  0.00  0.00    +0.000 OA
BRANCH  17  18
ATOM     18  C   UNL     1       4.590   4.209  19.702  0.00  0.00    +0.000 C 
BRANCH  18  19
ATOM     19  C   UNL     1       3.187   3.688  19.543  0.00  0.00    +0.000 A 
ATOM     20  C   UNL     1       2.221   4.022  20.500  0.00  0.00    +0.000 A 
ATOM     21  F   UNL     1       2.550   4.807  21.536  0.00  0.00    +0.000 F 
ATOM     22  C   UNL     1       0.913   3.552  20.423  0.00  0.00    +0.000 A 
ATOM     23  C   UNL     1       0.540   2.722  19.370  0.00  0.00    +0.000 A 
ATOM     24  C   UNL     1       1.481   2.376  18.401  0.00  0.00    +0.000 A 
ATOM     25  C   UNL     1       2.795   2.854  18.486  0.00  0.00    +0.000 A 
ATOM     26 CL   UNL     1       3.901   2.361  17.254  0.00  0.00    +0.000 Cl
ENDBRANCH  18  19
ENDBRANCH  17  18
ENDBRANCH  15  17
ENDBRANCH   6  15
TORSDOF 5
ENDMDL
MODEL 6
REMARK VINA RESULT:      -8.2      1.196      1.483
REMARK  Name = 
REMARK  5 active torsions:
REMARK  status: ('A' for Active; 'I' for Inactive)
REMARK    1  A    between atoms: N_4  and  C_5
REMARK    2  A    between atoms: C_12  and  C_13
REMARK    3  A    between atoms: C_13  and  O_15
REMARK    4  A    between atoms: O_15  and  C_16
REMARK    5  A    between atoms: C_16  and  C_17
REMARK                            x       y       z     vdW  Elec       q    Type
REMARK                         _______ _______ _______ _____ _____    ______ ____
ROOT
ATOM      1  N   UNL     1       7.724   5.234  18.981  0.00  0.00    +0.000 N 
ATOM      2  C   UNL     1       7.062   5.150  17.818  0.00  0.00    +0.000 A 
ATOM      3  N   UNL     1       7.641   4.829  16.664  0.00  0.00    +0.000 NA
ATOM      4  N   UNL     1       6.606   4.899  15.790  0.00  0.00    +0.000 N 
ATOM      5  N   UNL     1       5.407   5.261  16.309  0.00  0.00    +0.000 NA
ATOM      6  C   UNL     1       5.679   5.395  17.618  0.00  0.00    +0.000 A 
ATOM      7  H   UNL     1       8.737   5.270  18.963  0.00  0.00    +0.000 HD
ATOM      8  H   UNL     1       7.298   5.672  19.797  0.00  0.00    +0.000 HD
ENDROOT
BRANCH   4   9
ATOM      9  C   UNL     1       6.742   4.615  14.407  0.00  0.00    +0.000 A 
ATOM     10  C   UNL     1       5.956   3.634  13.788  0.00  0.00    +0.000 A 
ATOM     11  C   UNL     1       6.104   3.393  12.420  0.00  0.00    +0.000 A 
ATOM     12  C   UNL     1       7.039   4.113  11.672  0.00  0.00    +0.000 A 
ATOM     13  C   UNL     1       7.828   5.083  12.288  0.00  0.00    +0.000 A 
ATOM     14  C   UNL     1       7.677   5.340  13.650  0.00  0.00    +0.000 A 
ENDBRANCH   4   9
BRANCH   6  15
ATOM     15  C   UNL     1       4.676   5.742  18.612  0.00  0.00    +0.000 C 
ATOM     16  O   UNL     1       3.765   6.539  18.395  0.00  0.00    +0.000 OA
BRANCH  15  17
ATOM     17  O   UNL     1       4.851   5.088  19.796  0.00  0.00    +0.000 OA
BRANCH  17  18
ATOM     18  C   UNL     1       4.754   3.660  19.748  0.00  0.00    +0.000 C 
BRANCH  18  19
ATOM     19  C   UNL     1       3.362   3.194  19.418  0.00  0.00    +0.000 A 
ATOM     20  C   UNL     1       3.131   2.536  18.204  0.00  0.00    +0.000 A 
ATOM     21  F   UNL     1       4.148   2.318  17.358  0.00  0.00    +0.000 F 
ATOM     22  C   UNL     1       1.861   2.103  17.830  0.00  0.00    +0.000 A 
ATOM     23  C   UNL     1       0.780   2.327  18.676  0.00  0.00    +0.000 A 
ATOM     24  C   UNL     1       0.982   2.978  19.892  0.00  0.00    +0.000 A 
ATOM     25  C   UNL     1       2.262   3.410  20.261  0.00  0.00    +0.000 A 
ATOM     26 CL   UNL     1       2.419   4.224  21.777  0.00  0.00    +0.000 Cl
ENDBRANCH  18  19
ENDBRANCH  17  18
ENDBRANCH  15  17
ENDBRANCH   6  15
TORSDOF 5
ENDMDL
MODEL 7
REMARK VINA RESULT:      -8.2      1.715      2.140
REMARK  Name = 
REMARK  5 active torsions:
REMARK  status: ('A' for Active; 'I' for Inactive)
REMARK    1  A    between atoms: N_4  and  C_5
REMARK    2  A    between atoms: C_12  and  C_13
REMARK    3  A    between atoms: C_13  and  O_15
REMARK    4  A    between atoms: O_15  and  C_16
REMARK    5  A    between atoms: C_16  and  C_17
REMARK                            x       y       z     vdW  Elec       q    Type
REMARK                         _______ _______ _______ _____ _____    ______ ____
ROOT
ATOM      1  N   UNL     1       4.435   7.079  17.766  0.00  0.00    +0.000 N 
ATOM      2  C   UNL     1       5.160   6.197  17.063  0.00  0.00    +0.000 A 
ATOM      3  N   UNL     1       5.212   6.180  15.734  0.00  0.00    +0.000 NA
ATOM      4  N   UNL     1       6.027   5.123  15.489  0.00  0.00    +0.000 N 
ATOM      5  N   UNL     1       6.485   4.454  16.575  0.00  0.00    +0.000 NA
ATOM      6  C   UNL     1       5.960   5.153  17.596  0.00  0.00    +0.000 A 
ATOM      7  H   UNL     1       3.726   7.620  17.282  0.00  0.00    +0.000 HD
ATOM      8  H   UNL     1       4.259   6.942  18.759  0.00  0.00    +0.000 HD
ENDROOT
BRANCH   4   9
ATOM      9  C   UNL     1       6.396   4.719  14.180  0.00  0.00    +0.000 A 
ATOM     10  C   UNL     1       7.500   5.286  13.531  0.00  0.00    +0.000 A 
ATOM     11  C   UNL     1       7.845   4.851  12.248  0.00  0.00    +0.000 A 
ATOM     12  C   UNL     1       7.086   3.868  11.607  0.00  0.00    +0.000 A 
ATOM     13  C   UNL     1       5.982   3.310  12.248  0.00  0.00    +0.000 A 
ATOM     14  C   UNL     1       5.639   3.728  13.533  0.00  0.00    +0.000 A 
ENDBRANCH   4   9
BRANCH   6  15
ATOM     15  C   UNL     1       6.207   4.836  18.993  0.00  0.00    +0.000 C 
ATOM     16  O   UNL     1       6.850   5.568  19.743  0.00  0.00    +0.000 OA
BRANCH  15  17
ATOM     17  O   UNL     1       5.649   3.652  19.378  0.00  0.00    +0.000 OA
BRANCH  17  18
ATOM     18  C   UNL     1       4.467   3.255  18.674  0.00  0.00    +0.000 C 
BRANCH  18  19
ATOM     19  C   UNL     1       3.254   3.233  19.563  0.00  0.00    +0.000 A 
ATOM     20  C   UNL     1       3.315   2.557  20.787  0.00  0.00    +0.000 A 
ATOM     21  F   UNL     1       4.451   1.949  21.159  0.00  0.00    +0.000 F 
ATOM     22  C   UNL     1       2.219   2.480  21.643  0.00  0.00    +0.000 A 
ATOM     23  C   UNL     1       1.020   3.085  21.283  0.00  0.00    +0.000 A 
ATOM     24  C   UNL     1       0.931   3.767  20.070  0.00  0.00    +0.000 A 
ATOM     25  C   UNL     1       2.038   3.841  19.215  0.00  0.00    +0.000 A 
ATOM     26 CL   UNL     1       1.836   4.689  17.725  0.00  0.00    +0.000 Cl
ENDBRANCH  18  19
ENDBRANCH  17  18
ENDBRANCH  15  17
ENDBRANCH   6  15
TORSDOF 5
ENDMDL
MODEL 8
REMARK VINA RESULT:      -8.2      2.995      5.238
REMARK  Name = 
REMARK  5 active torsions:
REMARK  status: ('A' for Active; 'I' for Inactive)
REMARK    1  A    between atoms: N_4  and  C_5
REMARK    2  A    between atoms: C_12  and  C_13
REMARK    3  A    between atoms: C_13  and  O_15
REMARK    4  A    between atoms: O_15  and  C_16
REMARK    5  A    between atoms: C_16  and  C_17
REMARK                            x       y       z     vdW  Elec       q    Type
REMARK                         _______ _______ _______ _____ _____    ______ ____
ROOT
ATOM      1  N   UNL     1       6.108   6.842  16.288  0.00  0.00    +0.000 N 
ATOM      2  C   UNL     1       6.977   7.331  17.184  0.00  0.00    +0.000 A 
ATOM      3  N   UNL     1       7.369   8.603  17.211  0.00  0.00    +0.000 NA
ATOM      4  N   UNL     1       8.247   8.614  18.245  0.00  0.00    +0.000 N 
ATOM      5  N   UNL     1       8.455   7.429  18.868  0.00  0.00    +0.000 NA
ATOM      6  C   UNL     1       7.621   6.601  18.216  0.00  0.00    +0.000 A 
ATOM      7  H   UNL     1       5.898   7.393  15.462  0.00  0.00    +0.000 HD
ATOM      8  H   UNL     1       5.985   5.838  16.169  0.00  0.00    +0.000 HD
ENDROOT
BRANCH   4   9
ATOM      9  C   UNL     1       8.925   9.786  18.670  0.00  0.00    +0.000 A 
ATOM     10  C   UNL     1       9.420  10.712  17.743  0.00  0.00    +0.000 A 
ATOM     11  C   UNL     1      10.066  11.865  18.197  0.00  0.00    +0.000 A 
ATOM     12  C   UNL     1      10.233  12.088  19.567  0.00  0.00    +0.000 A 
ATOM     13  C   UNL     1       9.748  11.164  20.489  0.00  0.00    +0.000 A 
ATOM     14  C   UNL     1       9.090  10.018  20.046  0.00  0.00    +0.000 A 
ENDBRANCH   4   9
BRANCH   6  15
ATOM     15  C   UNL     1       7.457   5.198  18.560  0.00  0.00    +0.000 C 
ATOM     16  O   UNL     1       8.256   4.327  18.221  0.00  0.00    +0.000 OA
BRANCH  15  17
ATOM     17  O   UNL     1       6.333   4.957  19.296  0.00  0.00    +0.000 OA
BRANCH  17  18
ATOM     18  C   UNL     1       5.303   4.204  18.646  0.00  0.00    +0.000 C 
BRANCH  18  19
ATOM     19  C   UNL     1       4.063   4.087  19.490  0.00  0.00    +0.000 A 
ATOM     20  C   UNL     1       3.841   2.914  20.220  0.00  0.00    +0.000 A 
ATOM     21  F   UNL     1       4.736   1.917  20.170  0.00  0.00    +0.000 F 
ATOM     22  C   UNL     1       2.701   2.735  21.000  0.00  0.00    +0.000 A 
ATOM     23  C   UNL     1       1.744   3.742  21.062  0.00  0.00    +0.000 A 
ATOM     24  C   UNL     1       1.941   4.923  20.347  0.00  0.00    +0.000 A 
ATOM     25  C   UNL     1       3.091   5.095  19.565  0.00  0.00    +0.000 A 
ATOM     26 CL   UNL     1       3.245   6.580  18.697  0.00  0.00    +0.000 Cl
ENDBRANCH  18  19
ENDBRANCH  17  18
ENDBRANCH  15  17
ENDBRANCH   6  15
TORSDOF 5
ENDMDL
MODEL 9
REMARK VINA RESULT:      -8.2      1.275      1.810
REMARK  Name = 
REMARK  5 active torsions:
REMARK  status: ('A' for Active; 'I' for Inactive)
REMARK    1  A    between atoms: N_4  and  C_5
REMARK    2  A    between atoms: C_12  and  C_13
REMARK    3  A    between atoms: C_13  and  O_15
REMARK    4  A    between atoms: O_15  and  C_16
REMARK    5  A    between atoms: C_16  and  C_17
REMARK                            x       y       z     vdW  Elec       q    Type
REMARK                         _______ _______ _______ _____ _____    ______ ____
ROOT
ATOM      1  N   UNL     1       7.939   5.087  19.127  0.00  0.00    +0.000 N 
ATOM      2  C   UNL     1       7.215   4.968  18.005  0.00  0.00    +0.000 A 
ATOM      3  N   UNL     1       7.750   4.783  16.800  0.00  0.00    +0.000 NA
ATOM      4  N   UNL     1       6.657   4.752  15.998  0.00  0.00    +0.000 N 
ATOM      5  N   UNL     1       5.460   4.924  16.610  0.00  0.00    +0.000 NA
ATOM      6  C   UNL     1       5.802   5.033  17.905  0.00  0.00    +0.000 A 
ATOM      7  H   UNL     1       8.935   5.260  19.048  0.00  0.00    +0.000 HD
ATOM      8  H   UNL     1       7.518   5.424  19.991  0.00  0.00    +0.000 HD
ENDROOT
BRANCH   4   9
ATOM      9  C   UNL     1       6.733   4.554  14.596  0.00  0.00    +0.000 A 
ATOM     10  C   UNL     1       7.654   5.263  13.813  0.00  0.00    +0.000 A 
ATOM     11  C   UNL     1       7.714   5.029  12.437  0.00  0.00    +0.000 A 
ATOM     12  C   UNL     1       6.852   4.108  11.838  0.00  0.00    +0.000 A 
ATOM     13  C   UNL     1       5.929   3.409  12.614  0.00  0.00    +0.000 A 
ATOM     14  C   UNL     1       5.871   3.625  13.989  0.00  0.00    +0.000 A 
ENDBRANCH   4   9
BRANCH   6  15
ATOM     15  C   UNL     1       4.833   5.194  18.978  0.00  0.00    +0.000 C 
ATOM     16  O   UNL     1       3.877   5.964  18.908  0.00  0.00    +0.000 OA
BRANCH  15  17
ATOM     17  O   UNL     1       5.095   4.400  20.056  0.00  0.00    +0.000 OA
BRANCH  17  18
ATOM     18  C   UNL     1       4.757   3.016  19.918  0.00  0.00    +0.000 C 
BRANCH  18  19
ATOM     19  C   UNL     1       3.321   2.818  19.517  0.00  0.00    +0.000 A 
ATOM     20  C   UNL     1       3.028   2.354  18.229  0.00  0.00    +0.000 A 
ATOM     21  F   UNL     1       4.025   2.082  17.374  0.00  0.00    +0.000 F 
ATOM     22  C   UNL     1       1.719   2.174  17.789  0.00  0.00    +0.000 A 
ATOM     23  C   UNL     1       0.660   2.462  18.644  0.00  0.00    +0.000 A 
ATOM     24  C   UNL     1       0.922   2.923  19.933  0.00  0.00    +0.000 A 
ATOM     25  C   UNL     1       2.242   3.101  20.368  0.00  0.00    +0.000 A 
ATOM     26 CL   UNL     1       2.476   3.692  21.973  0.00  0.00    +0.000 Cl
ENDBRANCH  18  19
ENDBRANCH  17  18
ENDBRANCH  15  17
ENDBRANCH   6  15
TORSDOF 5
ENDMDL
