MODEL 1
REMARK VINA RESULT:      -7.5      0.000      0.000
REMARK  Name = 
REMARK  6 active torsions:
REMARK  status: ('A' for Active; 'I' for Inactive)
REMARK    1  A    between atoms: C_1  and  C_2
REMARK    2  A    between atoms: C_9  and  C_10
REMARK    3  A    between atoms: C_10  and  C_11
REMARK    4  A    between atoms: C_10  and  N_21
REMARK    5  A    between atoms: N_15  and  C_16
REMARK    6  A    between atoms: N_24  and  C_25
REMARK                            x       y       z     vdW  Elec       q    Type
REMARK                         _______ _______ _______ _____ _____    ______ ____
ROOT
ATOM      1  C   UNL     1       0.837  11.699  20.284  0.00  0.00    +0.000 C 
ENDROOT
BRANCH   1  10
ATOM      2  C   UNL     1      -6.027  12.052  17.138  0.00  0.00    +0.000 C 
ATOM      3  C   UNL     1      -4.650  11.457  17.209  0.00  0.00    +0.000 A 
ATOM      4  C   UNL     1      -4.309  10.339  16.436  0.00  0.00    +0.000 A 
ATOM      5  C   UNL     1      -3.013   9.822  16.470  0.00  0.00    +0.000 A 
ATOM      6  C   UNL     1      -2.066  10.406  17.305  0.00  0.00    +0.000 A 
ATOM      7  N   UNL     1      -0.750   9.922  17.317  0.00  0.00    +0.000 N 
ATOM      8  C   UNL     1       0.233  10.422  18.125  0.00  0.00    +0.000 A 
ATOM      9  O   UNL     1       1.397  10.047  18.012  0.00  0.00    +0.000 OA
ATOM     10  C   UNL     1      -0.176  11.433  19.152  0.00  0.00    +0.000 A 
ATOM     11  C   UNL     1      -1.421  11.947  19.098  0.00  0.00    +0.000 A 
ATOM     12  C   UNL     1      -2.404  11.476  18.126  0.00  0.00    +0.000 A 
ATOM     13  C   UNL     1      -3.691  12.018  18.064  0.00  0.00    +0.000 A 
ATOM     14  H   UNL     1      -0.463   9.208  16.659  0.00  0.00    +0.000 HD
ENDBRANCH   1  10
BRANCH   1  15
ATOM     15  N   UNL     1       1.238  13.135  20.428  0.00  0.00    +0.000 NA
ATOM     16  C   UNL     1       1.261  13.908  19.169  0.00  0.00    +0.000 C 
ATOM     17  C   UNL     1       1.883  15.327  19.309  0.00  0.00    +0.000 C 
ATOM     18  N   UNL     1       3.220  15.364  19.932  0.00  0.00    +0.000 NA
ATOM     19  C   UNL     1       4.248  14.807  19.052  0.00  0.00    +0.000 C 
ATOM     20  C   UNL     1       3.152  14.649  21.219  0.00  0.00    +0.000 C 
ATOM     21  C   UNL     1       2.552  13.230  21.123  0.00  0.00    +0.000 C 
ENDBRANCH   1  15
BRANCH   1  22
ATOM     22  C   UNL     1       0.445  10.971  21.577  0.00  0.00    +0.000 A 
ATOM     23  N   UNL     1       1.156   9.968  22.084  0.00  0.00    +0.000 NA
ATOM     24  N   UNL     1       0.649   9.673  23.308  0.00  0.00    +0.000 NA
ATOM     25  N   UNL     1      -0.371  10.457  23.585  0.00  0.00    +0.000 NA
ATOM     26  N   UNL     1      -0.506  11.288  22.527  0.00  0.00    +0.000 N 
BRANCH  26  27
ATOM     27  C   UNL     1      -1.523  12.302  22.649  0.00  0.00    +0.000 C 
ATOM     28  C   UNL     1      -2.771  11.903  23.423  0.00  0.00    +0.000 C 
ATOM     29  C   UNL     1      -3.384  13.208  23.895  0.00  0.00    +0.000 C 
ATOM     30  C   UNL     1      -2.292  14.270  23.847  0.00  0.00    +0.000 C 
ATOM     31  C   UNL     1      -1.060  13.635  23.220  0.00  0.00    +0.000 C 
ENDBRANCH  26  27
ENDBRANCH   1  22
TORSDOF 4
ENDMDL
MODEL 2
REMARK VINA RESULT:      -7.5      2.683      5.489
REMARK  Name = 
REMARK  6 active torsions:
REMARK  status: ('A' for Active; 'I' for Inactive)
REMARK    1  A    between atoms: C_1  and  C_2
REMARK    2  A    between atoms: C_9  and  C_10
REMARK    3  A    between atoms: C_10  and  C_11
REMARK    4  A    between atoms: C_10  and  N_21
REMARK    5  A    between atoms: N_15  and  C_16
REMARK    6  A    between atoms: N_24  and  C_25
REMARK                            x       y       z     vdW  Elec       q    Type
REMARK                         _______ _______ _______ _____ _____    ______ ____
ROOT
ATOM      1  C   UNL     1      -0.568  12.629  20.480  0.00  0.00    +0.000 C 
ENDROOT
BRANCH   1  10
ATOM      2  C   UNL     1       3.095   6.630  17.698  0.00  0.00    +0.000 C 
ATOM      3  C   UNL     1       2.365   7.312  18.818  0.00  0.00    +0.000 A 
ATOM      4  C   UNL     1       2.025   6.614  19.986  0.00  0.00    +0.000 A 
ATOM      5  C   UNL     1       1.391   7.268  21.044  0.00  0.00    +0.000 A 
ATOM      6  C   UNL     1       1.066   8.615  20.918  0.00  0.00    +0.000 A 
ATOM      7  N   UNL     1       0.466   9.292  21.990  0.00  0.00    +0.000 N 
ATOM      8  C   UNL     1       0.093  10.607  21.940  0.00  0.00    +0.000 A 
ATOM      9  O   UNL     1      -0.316  11.187  22.942  0.00  0.00    +0.000 OA
ATOM     10  C   UNL     1       0.197  11.297  20.614  0.00  0.00    +0.000 A 
ATOM     11  C   UNL     1       0.834  10.670  19.604  0.00  0.00    +0.000 A 
ATOM     12  C   UNL     1       1.338   9.307  19.744  0.00  0.00    +0.000 A 
ATOM     13  C   UNL     1       2.008   8.663  18.699  0.00  0.00    +0.000 A 
ATOM     14  H   UNL     1       0.348   8.832  22.883  0.00  0.00    +0.000 HD
ENDBRANCH   1  10
BRANCH   1  15
ATOM     15  N   UNL     1       0.039  13.592  19.506  0.00  0.00    +0.000 NA
ATOM     16  C   UNL     1       1.480  13.854  19.699  0.00  0.00    +0.000 C 
ATOM     17  C   UNL     1       2.037  15.010  18.819  0.00  0.00    +0.000 C 
ATOM     18  N   UNL     1       1.292  16.280  18.913  0.00  0.00    +0.000 NA
ATOM     19  C   UNL     1       1.486  16.933  20.208  0.00  0.00    +0.000 C 
ATOM     20  C   UNL     1      -0.131  16.003  18.646  0.00  0.00    +0.000 C 
ATOM     21  C   UNL     1      -0.728  14.868  19.506  0.00  0.00    +0.000 C 
ENDBRANCH   1  15
BRANCH   1  22
ATOM     22  C   UNL     1      -2.081  12.404  20.359  0.00  0.00    +0.000 A 
ATOM     23  N   UNL     1      -2.943  12.779  21.299  0.00  0.00    +0.000 NA
ATOM     24  N   UNL     1      -4.197  12.605  20.810  0.00  0.00    +0.000 NA
ATOM     25  N   UNL     1      -4.151  12.118  19.587  0.00  0.00    +0.000 NA
ATOM     26  N   UNL     1      -2.839  12.002  19.277  0.00  0.00    +0.000 N 
BRANCH  26  27
ATOM     27  C   UNL     1      -2.546  11.561  17.937  0.00  0.00    +0.000 C 
ATOM     28  C   UNL     1      -1.879  10.198  17.816  0.00  0.00    +0.000 C 
ATOM     29  C   UNL     1      -2.190   9.724  16.408  0.00  0.00    +0.000 C 
ATOM     30  C   UNL     1      -3.395  10.517  15.915  0.00  0.00    +0.000 C 
ATOM     31  C   UNL     1      -3.723  11.561  16.971  0.00  0.00    +0.000 C 
ENDBRANCH  26  27
ENDBRANCH   1  22
TORSDOF 4
ENDMDL
MODEL 3
REMARK VINA RESULT:      -7.4      2.944      5.852
REMARK  Name = 
REMARK  6 active torsions:
REMARK  status: ('A' for Active; 'I' for Inactive)
REMARK    1  A    between atoms: C_1  and  C_2
REMARK    2  A    between atoms: C_9  and  C_10
REMARK    3  A    between atoms: C_10  and  C_11
REMARK    4  A    between atoms: C_10  and  N_21
REMARK    5  A    between atoms: N_15  and  C_16
REMARK    6  A    between atoms: N_24  and  C_25
REMARK                            x       y       z     vdW  Elec       q    Type
REMARK                         _______ _______ _______ _____ _____    ______ ____
ROOT
ATOM      1  C   UNL     1       0.347  11.044  19.144  0.00  0.00    +0.000 C 
ENDROOT
BRANCH   1  10
ATOM      2  C   UNL     1       4.861   5.618  16.435  0.00  0.00    +0.000 C 
ATOM      3  C   UNL     1       3.929   6.138  17.492  0.00  0.00    +0.000 A 
ATOM      4  C   UNL     1       3.497   5.311  18.539  0.00  0.00    +0.000 A 
ATOM      5  C   UNL     1       2.670   5.816  19.545  0.00  0.00    +0.000 A 
ATOM      6  C   UNL     1       2.249   7.140  19.484  0.00  0.00    +0.000 A 
ATOM      7  N   UNL     1       1.453   7.669  20.511  0.00  0.00    +0.000 N 
ATOM      8  C   UNL     1       0.977   8.951  20.515  0.00  0.00    +0.000 A 
ATOM      9  O   UNL     1       0.388   9.403  21.492  0.00  0.00    +0.000 OA
ATOM     10  C   UNL     1       1.200   9.766  19.278  0.00  0.00    +0.000 A 
ATOM     11  C   UNL     1       2.020   9.284  18.321  0.00  0.00    +0.000 A 
ATOM     12  C   UNL     1       2.617   7.956  18.420  0.00  0.00    +0.000 A 
ATOM     13  C   UNL     1       3.475   7.463  17.433  0.00  0.00    +0.000 A 
ATOM     14  H   UNL     1       1.255   7.120  21.337  0.00  0.00    +0.000 HD
ENDBRANCH   1  10
BRANCH   1  15
ATOM     15  N   UNL     1      -1.104  10.791  18.873  0.00  0.00    +0.000 NA
ATOM     16  C   UNL     1      -1.387   9.619  18.020  0.00  0.00    +0.000 C 
ATOM     17  C   UNL     1      -2.875   9.501  17.579  0.00  0.00    +0.000 C 
ATOM     18  N   UNL     1      -3.436  10.712  16.950  0.00  0.00    +0.000 NA
ATOM     19  C   UNL     1      -2.875  10.947  15.619  0.00  0.00    +0.000 C 
ATOM     20  C   UNL     1      -3.205  11.853  17.853  0.00  0.00    +0.000 C 
ATOM     21  C   UNL     1      -1.738  12.014  18.307  0.00  0.00    +0.000 C 
ENDBRANCH   1  15
BRANCH   1  22
ATOM     22  C   UNL     1       0.665  12.055  20.253  0.00  0.00    +0.000 A 
ATOM     23  N   UNL     1       1.792  12.760  20.286  0.00  0.00    +0.000 NA
ATOM     24  N   UNL     1       1.682  13.681  21.278  0.00  0.00    +0.000 NA
ATOM     25  N   UNL     1       0.517  13.569  21.881  0.00  0.00    +0.000 NA
ATOM     26  N   UNL     1      -0.143  12.573  21.246  0.00  0.00    +0.000 N 
BRANCH  26  27
ATOM     27  C   UNL     1      -1.492  12.329  21.691  0.00  0.00    +0.000 C 
ATOM     28  C   UNL     1      -1.638  11.768  23.098  0.00  0.00    +0.000 C 
ATOM     29  C   UNL     1      -3.047  12.129  23.530  0.00  0.00    +0.000 C 
ATOM     30  C   UNL     1      -3.516  13.276  22.643  0.00  0.00    +0.000 C 
ATOM     31  C   UNL     1      -2.443  13.513  21.591  0.00  0.00    +0.000 C 
ENDBRANCH  26  27
ENDBRANCH   1  22
TORSDOF 4
ENDMDL
MODEL 4
REMARK VINA RESULT:      -7.4      2.830      6.527
REMARK  Name = 
REMARK  6 active torsions:
REMARK  status: ('A' for Active; 'I' for Inactive)
REMARK    1  A    between atoms: C_1  and  C_2
REMARK    2  A    between atoms: C_9  and  C_10
REMARK    3  A    between atoms: C_10  and  C_11
REMARK    4  A    between atoms: C_10  and  N_21
REMARK    5  A    between atoms: N_15  and  C_16
REMARK    6  A    between atoms: N_24  and  C_25
REMARK                            x       y       z     vdW  Elec       q    Type
REMARK                         _______ _______ _______ _____ _____    ______ ____
ROOT
ATOM      1  C   UNL     1      -0.026  11.142  19.147  0.00  0.00    +0.000 C 
ENDROOT
BRANCH   1  10
ATOM      2  C   UNL     1       4.923   6.127  16.409  0.00  0.00    +0.000 C 
ATOM      3  C   UNL     1       3.967   6.571  17.479  0.00  0.00    +0.000 A 
ATOM      4  C   UNL     1       3.634   5.722  18.543  0.00  0.00    +0.000 A 
ATOM      5  C   UNL     1       2.784   6.160  19.560  0.00  0.00    +0.000 A 
ATOM      6  C   UNL     1       2.239   7.438  19.493  0.00  0.00    +0.000 A 
ATOM      7  N   UNL     1       1.417   7.904  20.529  0.00  0.00    +0.000 N 
ATOM      8  C   UNL     1       0.823   9.136  20.528  0.00  0.00    +0.000 A 
ATOM      9  O   UNL     1       0.213   9.544  21.512  0.00  0.00    +0.000 OA
ATOM     10  C   UNL     1       0.945   9.952  19.278  0.00  0.00    +0.000 A 
ATOM     11  C   UNL     1       1.787   9.536  18.310  0.00  0.00    +0.000 A 
ATOM     12  C   UNL     1       2.508   8.271  18.412  0.00  0.00    +0.000 A 
ATOM     13  C   UNL     1       3.390   7.847  17.414  0.00  0.00    +0.000 A 
ATOM     14  H   UNL     1       1.287   7.350  21.366  0.00  0.00    +0.000 HD
ENDBRANCH   1  10
BRANCH   1  15
ATOM     15  N   UNL     1      -1.454  10.751  18.918  0.00  0.00    +0.000 NA
ATOM     16  C   UNL     1      -1.663   9.722  17.879  0.00  0.00    +0.000 C 
ATOM     17  C   UNL     1      -3.157   9.489  17.511  0.00  0.00    +0.000 C 
ATOM     18  N   UNL     1      -3.909  10.707  17.154  0.00  0.00    +0.000 NA
ATOM     19  C   UNL     1      -3.491  11.248  15.860  0.00  0.00    +0.000 C 
ATOM     20  C   UNL     1      -3.743  11.689  18.240  0.00  0.00    +0.000 C 
ATOM     21  C   UNL     1      -2.274  11.960  18.629  0.00  0.00    +0.000 C 
ENDBRANCH   1  15
BRANCH   1  22
ATOM     22  C   UNL     1       0.223  12.199  20.231  0.00  0.00    +0.000 A 
ATOM     23  N   UNL     1      -0.546  12.322  21.309  0.00  0.00    +0.000 NA
ATOM     24  N   UNL     1       0.045  13.213  22.145  0.00  0.00    +0.000 NA
ATOM     25  N   UNL     1       1.163  13.666  21.619  0.00  0.00    +0.000 NA
ATOM     26  N   UNL     1       1.306  13.033  20.432  0.00  0.00    +0.000 N 
BRANCH  26  27
ATOM     27  C   UNL     1       2.520  13.315  19.710  0.00  0.00    +0.000 C 
ATOM     28  C   UNL     1       2.344  13.852  18.296  0.00  0.00    +0.000 C 
ATOM     29  C   UNL     1       3.637  14.580  17.981  0.00  0.00    +0.000 C 
ATOM     30  C   UNL     1       4.319  14.897  19.307  0.00  0.00    +0.000 C 
ATOM     31  C   UNL     1       3.504  14.241  20.411  0.00  0.00    +0.000 C 
ENDBRANCH  26  27
ENDBRANCH   1  22
TORSDOF 4
ENDMDL
MODEL 5
REMARK VINA RESULT:      -7.3      6.471      8.783
REMARK  Name = 
REMARK  6 active torsions:
REMARK  status: ('A' for Active; 'I' for Inactive)
REMARK    1  A    between atoms: C_1  and  C_2
REMARK    2  A    between atoms: C_9  and  C_10
REMARK    3  A    between atoms: C_10  and  C_11
REMARK    4  A    between atoms: C_10  and  N_21
REMARK    5  A    between atoms: N_15  and  C_16
REMARK    6  A    between atoms: N_24  and  C_25
REMARK                            x       y       z     vdW  Elec       q    Type
REMARK                         _______ _______ _______ _____ _____    ______ ____
ROOT
ATOM      1  C   UNL     1       3.124   5.499  17.830  0.00  0.00    +0.000 C 
ENDROOT
BRANCH   1  10
ATOM      2  C   UNL     1      -0.091   9.556  23.339  0.00  0.00    +0.000 C 
ATOM      3  C   UNL     1       0.442   9.442  21.940  0.00  0.00    +0.000 A 
ATOM      4  C   UNL     1       0.273  10.484  21.019  0.00  0.00    +0.000 A 
ATOM      5  C   UNL     1       0.816  10.392  19.735  0.00  0.00    +0.000 A 
ATOM      6  C   UNL     1       1.499   9.239  19.364  0.00  0.00    +0.000 A 
ATOM      7  N   UNL     1       2.084   9.151  18.093  0.00  0.00    +0.000 N 
ATOM      8  C   UNL     1       2.750   8.045  17.641  0.00  0.00    +0.000 A 
ATOM      9  O   UNL     1       3.348   8.062  16.569  0.00  0.00    +0.000 OA
ATOM     10  C   UNL     1       2.709   6.822  18.505  0.00  0.00    +0.000 A 
ATOM     11  C   UNL     1       2.207   6.925  19.753  0.00  0.00    +0.000 A 
ATOM     12  C   UNL     1       1.622   8.169  20.244  0.00  0.00    +0.000 A 
ATOM     13  C   UNL     1       1.113   8.277  21.542  0.00  0.00    +0.000 A 
ATOM     14  H   UNL     1       2.086   9.953  17.476  0.00  0.00    +0.000 HD
ENDBRANCH   1  10
BRANCH   1  15
ATOM     15  N   UNL     1       4.587   5.195  17.918  0.00  0.00    +0.000 NA
ATOM     16  C   UNL     1       5.299   5.855  19.032  0.00  0.00    +0.000 C 
ATOM     17  C   UNL     1       6.846   5.696  18.977  0.00  0.00    +0.000 C 
ATOM     18  N   UNL     1       7.468   6.087  17.698  0.00  0.00    +0.000 NA
ATOM     19  C   UNL     1       7.431   7.535  17.492  0.00  0.00    +0.000 C 
ATOM     20  C   UNL     1       6.789   5.360  16.611  0.00  0.00    +0.000 C 
ATOM     21  C   UNL     1       5.251   5.500  16.621  0.00  0.00    +0.000 C 
ENDBRANCH   1  15
BRANCH   1  22
ATOM     22  C   UNL     1       2.168   4.355  18.192  0.00  0.00    +0.000 A 
ATOM     23  N   UNL     1       1.077   4.074  17.486  0.00  0.00    +0.000 NA
ATOM     24  N   UNL     1       0.561   2.910  17.956  0.00  0.00    +0.000 NA
ATOM     25  N   UNL     1       1.293   2.451  18.950  0.00  0.00    +0.000 NA
ATOM     26  N   UNL     1       2.313   3.327  19.103  0.00  0.00    +0.000 N 
BRANCH  26  27
ATOM     27  C   UNL     1       3.300   2.976  20.094  0.00  0.00    +0.000 C 
ATOM     28  C   UNL     1       2.775   2.259  21.330  0.00  0.00    +0.000 C 
ATOM     29  C   UNL     1       3.971   1.520  21.901  0.00  0.00    +0.000 C 
ATOM     30  C   UNL     1       5.003   1.390  20.787  0.00  0.00    +0.000 C 
ATOM     31  C   UNL     1       4.484   2.168  19.587  0.00  0.00    +0.000 C 
ENDBRANCH  26  27
ENDBRANCH   1  22
TORSDOF 4
ENDMDL
MODEL 6
REMARK VINA RESULT:      -7.3      2.280      3.981
REMARK  Name = 
REMARK  6 active torsions:
REMARK  status: ('A' for Active; 'I' for Inactive)
REMARK    1  A    between atoms: C_1  and  C_2
REMARK    2  A    between atoms: C_9  and  C_10
REMARK    3  A    between atoms: C_10  and  C_11
REMARK    4  A    between atoms: C_10  and  N_21
REMARK    5  A    between atoms: N_15  and  C_16
REMARK    6  A    between atoms: N_24  and  C_25
REMARK                            x       y       z     vdW  Elec       q    Type
REMARK                         _______ _______ _______ _____ _____    ______ ____
ROOT
ATOM      1  C   UNL     1      -0.445  12.466  20.370  0.00  0.00    +0.000 C 
ENDROOT
BRANCH   1  10
ATOM      2  C   UNL     1      -7.774  12.888  22.172  0.00  0.00    +0.000 C 
ATOM      3  C   UNL     1      -6.686  12.573  21.186  0.00  0.00    +0.000 A 
ATOM      4  C   UNL     1      -6.981  11.962  19.959  0.00  0.00    +0.000 A 
ATOM      5  C   UNL     1      -5.971  11.718  19.028  0.00  0.00    +0.000 A 
ATOM      6  C   UNL     1      -4.658  12.053  19.340  0.00  0.00    +0.000 A 
ATOM      7  N   UNL     1      -3.640  11.850  18.396  0.00  0.00    +0.000 N 
ATOM      8  C   UNL     1      -2.323  12.130  18.632  0.00  0.00    +0.000 A 
ATOM      9  O   UNL     1      -1.489  12.049  17.735  0.00  0.00    +0.000 OA
ATOM     10  C   UNL     1      -1.947  12.526  20.027  0.00  0.00    +0.000 A 
ATOM     11  C   UNL     1      -2.929  12.786  20.915  0.00  0.00    +0.000 A 
ATOM     12  C   UNL     1      -4.337  12.601  20.577  0.00  0.00    +0.000 A 
ATOM     13  C   UNL     1      -5.354  12.882  21.495  0.00  0.00    +0.000 A 
ATOM     14  H   UNL     1      -3.867  11.542  17.460  0.00  0.00    +0.000 HD
ENDBRANCH   1  10
BRANCH   1  15
ATOM     15  N   UNL     1       0.190  13.804  20.591  0.00  0.00    +0.000 NA
ATOM     16  C   UNL     1      -0.117  14.821  19.565  0.00  0.00    +0.000 C 
ATOM     17  C   UNL     1       0.718  16.127  19.699  0.00  0.00    +0.000 C 
ATOM     18  N   UNL     1       2.178  15.929  19.771  0.00  0.00    +0.000 NA
ATOM     19  C   UNL     1       2.734  15.494  18.489  0.00  0.00    +0.000 C 
ATOM     20  C   UNL     1       2.463  14.966  20.848  0.00  0.00    +0.000 C 
ATOM     21  C   UNL     1       1.663  13.649  20.748  0.00  0.00    +0.000 C 
ENDBRANCH   1  15
BRANCH   1  22
ATOM     22  C   UNL     1      -0.147  11.389  21.422  0.00  0.00    +0.000 A 
ATOM     23  N   UNL     1      -0.420  11.547  22.713  0.00  0.00    +0.000 NA
ATOM     24  N   UNL     1      -0.208  10.360  23.335  0.00  0.00    +0.000 NA
ATOM     25  N   UNL     1       0.204   9.456  22.471  0.00  0.00    +0.000 NA
ATOM     26  N   UNL     1       0.232  10.070  21.266  0.00  0.00    +0.000 N 
BRANCH  26  27
ATOM     27  C   UNL     1       0.578   9.237  20.142  0.00  0.00    +0.000 C 
ATOM     28  C   UNL     1       1.148   9.959  18.930  0.00  0.00    +0.000 C 
ATOM     29  C   UNL     1       1.931   8.905  18.169  0.00  0.00    +0.000 C 
ATOM     30  C   UNL     1       2.234   7.770  19.140  0.00  0.00    +0.000 C 
ATOM     31  C   UNL     1       1.518   8.079  20.446  0.00  0.00    +0.000 C 
ENDBRANCH  26  27
ENDBRANCH   1  22
TORSDOF 4
ENDMDL
MODEL 7
REMARK VINA RESULT:      -7.3      2.892      5.260
REMARK  Name = 
REMARK  6 active torsions:
REMARK  status: ('A' for Active; 'I' for Inactive)
REMARK    1  A    between atoms: C_1  and  C_2
REMARK    2  A    between atoms: C_9  and  C_10
REMARK    3  A    between atoms: C_10  and  C_11
REMARK    4  A    between atoms: C_10  and  N_21
REMARK    5  A    between atoms: N_15  and  C_16
REMARK    6  A    between atoms: N_24  and  C_25
REMARK                            x       y       z     vdW  Elec       q    Type
REMARK                         _______ _______ _______ _____ _____    ______ ____
ROOT
ATOM      1  C   UNL     1      -0.204  11.443  19.113  0.00  0.00    +0.000 C 
ENDROOT
BRANCH   1  10
ATOM      2  C   UNL     1       4.475   5.949  16.863  0.00  0.00    +0.000 C 
ATOM      3  C   UNL     1       3.559   6.547  17.892  0.00  0.00    +0.000 A 
ATOM      4  C   UNL     1       3.210   5.832  19.046  0.00  0.00    +0.000 A 
ATOM      5  C   UNL     1       2.399   6.414  20.022  0.00  0.00    +0.000 A 
ATOM      6  C   UNL     1       1.908   7.700  19.825  0.00  0.00    +0.000 A 
ATOM      7  N   UNL     1       1.126   8.310  20.816  0.00  0.00    +0.000 N 
ATOM      8  C   UNL     1       0.585   9.560  20.691  0.00  0.00    +0.000 A 
ATOM      9  O   UNL     1       0.011  10.098  21.633  0.00  0.00    +0.000 OA
ATOM     10  C   UNL     1       0.718  10.231  19.358  0.00  0.00    +0.000 A 
ATOM     11  C   UNL     1       1.524   9.678  18.430  0.00  0.00    +0.000 A 
ATOM     12  C   UNL     1       2.192   8.400  18.657  0.00  0.00    +0.000 A 
ATOM     13  C   UNL     1       3.036   7.833  17.698  0.00  0.00    +0.000 A 
ATOM     14  H   UNL     1       0.988   7.855  21.709  0.00  0.00    +0.000 HD
ENDBRANCH   1  10
BRANCH   1  15
ATOM     15  N   UNL     1       0.502  12.659  18.596  0.00  0.00    +0.000 NA
ATOM     16  C   UNL     1       1.929  12.759  18.961  0.00  0.00    +0.000 C 
ATOM     17  C   UNL     1       2.582  14.123  18.598  0.00  0.00    +0.000 C 
ATOM     18  N   UNL     1       1.864  15.311  19.097  0.00  0.00    +0.000 NA
ATOM     19  C   UNL     1       1.973  15.445  20.550  0.00  0.00    +0.000 C 
ATOM     20  C   UNL     1       0.460  15.223  18.657  0.00  0.00    +0.000 C 
ATOM     21  C   UNL     1      -0.230  13.888  19.009  0.00  0.00    +0.000 C 
ENDBRANCH   1  15
BRANCH   1  22
ATOM     22  C   UNL     1      -1.488  11.039  18.378  0.00  0.00    +0.000 A 
ATOM     23  N   UNL     1      -1.530  10.053  17.486  0.00  0.00    +0.000 NA
ATOM     24  N   UNL     1      -2.830   9.834  17.164  0.00  0.00    +0.000 NA
ATOM     25  N   UNL     1      -3.613  10.663  17.822  0.00  0.00    +0.000 NA
ATOM     26  N   UNL     1      -2.799  11.412  18.601  0.00  0.00    +0.000 N 
BRANCH  26  27
ATOM     27  C   UNL     1      -3.456  12.344  19.483  0.00  0.00    +0.000 C 
ATOM     28  C   UNL     1      -4.976  12.264  19.523  0.00  0.00    +0.000 C 
ATOM     29  C   UNL     1      -5.373  12.876  20.853  0.00  0.00    +0.000 C 
ATOM     30  C   UNL     1      -4.147  12.841  21.758  0.00  0.00    +0.000 C 
ATOM     31  C   UNL     1      -2.978  12.333  20.927  0.00  0.00    +0.000 C 
ENDBRANCH  26  27
ENDBRANCH   1  22
TORSDOF 4
ENDMDL
MODEL 8
REMARK VINA RESULT:      -7.2      1.137      1.431
REMARK  Name = 
REMARK  6 active torsions:
REMARK  status: ('A' for Active; 'I' for Inactive)
REMARK    1  A    between atoms: C_1  and  C_2
REMARK    2  A    between atoms: C_9  and  C_10
REMARK    3  A    between atoms: C_10  and  C_11
REMARK    4  A    between atoms: C_10  and  N_21
REMARK    5  A    between atoms: N_15  and  C_16
REMARK    6  A    between atoms: N_24  and  C_25
REMARK                            x       y       z     vdW  Elec       q    Type
REMARK                         _______ _______ _______ _____ _____    ______ ____
ROOT
ATOM      1  C   UNL     1      -0.100  11.799  20.070  0.00  0.00    +0.000 C 
ENDROOT
BRANCH   1  10
ATOM      2  C   UNL     1      -7.484  13.129  19.146  0.00  0.00    +0.000 C 
ATOM      3  C   UNL     1      -6.242  12.355  18.808  0.00  0.00    +0.000 A 
ATOM      4  C   UNL     1      -6.304  11.218  17.990  0.00  0.00    +0.000 A 
ATOM      5  C   UNL     1      -5.138  10.533  17.640  0.00  0.00    +0.000 A 
ATOM      6  C   UNL     1      -3.914  10.967  18.137  0.00  0.00    +0.000 A 
ATOM      7  N   UNL     1      -2.733  10.312  17.759  0.00  0.00    +0.000 N 
ATOM      8  C   UNL     1      -1.494  10.660  18.222  0.00  0.00    +0.000 A 
ATOM      9  O   UNL     1      -0.480  10.136  17.768  0.00  0.00    +0.000 OA
ATOM     10  C   UNL     1      -1.434  11.694  19.304  0.00  0.00    +0.000 A 
ATOM     11  C   UNL     1      -2.558  12.370  19.619  0.00  0.00    +0.000 A 
ATOM     12  C   UNL     1      -3.842  12.055  19.000  0.00  0.00    +0.000 A 
ATOM     13  C   UNL     1      -5.003  12.764  19.320  0.00  0.00    +0.000 A 
ATOM     14  H   UNL     1      -2.757   9.581  17.060  0.00  0.00    +0.000 HD
ENDBRANCH   1  10
BRANCH   1  15
ATOM     15  N   UNL     1       0.530  13.157  20.028  0.00  0.00    +0.000 NA
ATOM     16  C   UNL     1       0.602  13.773  18.688  0.00  0.00    +0.000 C 
ATOM     17  C   UNL     1       1.447  15.079  18.636  0.00  0.00    +0.000 C 
ATOM     18  N   UNL     1       2.806  14.966  19.198  0.00  0.00    +0.000 NA
ATOM     19  C   UNL     1       3.681  14.156  18.351  0.00  0.00    +0.000 C 
ATOM     20  C   UNL     1       2.700  14.417  20.561  0.00  0.00    +0.000 C 
ATOM     21  C   UNL     1       1.879  13.113  20.657  0.00  0.00    +0.000 C 
ENDBRANCH   1  15
BRANCH   1  22
ATOM     22  C   UNL     1      -0.186  11.132  21.449  0.00  0.00    +0.000 A 
ATOM     23  N   UNL     1       0.627  10.150  21.828  0.00  0.00    +0.000 NA
ATOM     24  N   UNL     1       0.412   9.913  23.147  0.00  0.00    +0.000 NA
ATOM     25  N   UNL     1      -0.525  10.713  23.611  0.00  0.00    +0.000 NA
ATOM     26  N   UNL     1      -0.900  11.496  22.574  0.00  0.00    +0.000 N 
BRANCH  26  27
ATOM     27  C   UNL     1      -1.870  12.519  22.876  0.00  0.00    +0.000 C 
ATOM     28  C   UNL     1      -3.085  12.068  23.675  0.00  0.00    +0.000 C 
ATOM     29  C   UNL     1      -3.620  13.326  24.333  0.00  0.00    +0.000 C 
ATOM     30  C   UNL     1      -2.493  14.352  24.342  0.00  0.00    +0.000 C 
ATOM     31  C   UNL     1      -1.325  13.759  23.569  0.00  0.00    +0.000 C 
ENDBRANCH  26  27
ENDBRANCH   1  22
TORSDOF 4
ENDMDL
MODEL 9
REMARK VINA RESULT:      -7.2      3.149      5.287
REMARK  Name = 
REMARK  6 active torsions:
REMARK  status: ('A' for Active; 'I' for Inactive)
REMARK    1  A    between atoms: C_1  and  C_2
REMARK    2  A    between atoms: C_9  and  C_10
REMARK    3  A    between atoms: C_10  and  C_11
REMARK    4  A    between atoms: C_10  and  N_21
REMARK    5  A    between atoms: N_15  and  C_16
REMARK    6  A    between atoms: N_24  and  C_25
REMARK                            x       y       z     vdW  Elec       q    Type
REMARK                         _______ _______ _______ _____ _____    ______ ____
ROOT
ATOM      1  C   UNL     1       0.524  10.884  19.994  0.00  0.00    +0.000 C 
ENDROOT
BRANCH   1  10
ATOM      2  C   UNL     1       4.145   5.007  16.910  0.00  0.00    +0.000 C 
ATOM      3  C   UNL     1       3.360   5.615  18.037  0.00  0.00    +0.000 A 
ATOM      4  C   UNL     1       2.906   4.827  19.104  0.00  0.00    +0.000 A 
ATOM      5  C   UNL     1       2.220   5.408  20.173  0.00  0.00    +0.000 A 
ATOM      6  C   UNL     1       1.959   6.774  20.156  0.00  0.00    +0.000 A 
ATOM      7  N   UNL     1       1.308   7.375  21.243  0.00  0.00    +0.000 N 
ATOM      8  C   UNL     1       0.992   8.705  21.294  0.00  0.00    +0.000 A 
ATOM      9  O   UNL     1       0.532   9.206  22.316  0.00  0.00    +0.000 OA
ATOM     10  C   UNL     1       1.223   9.510  20.052  0.00  0.00    +0.000 A 
ATOM     11  C   UNL     1       1.909   8.952  19.034  0.00  0.00    +0.000 A 
ATOM     12  C   UNL     1       2.346   7.560  19.076  0.00  0.00    +0.000 A 
ATOM     13  C   UNL     1       3.067   6.986  18.025  0.00  0.00    +0.000 A 
ATOM     14  H   UNL     1       1.104   6.839  22.076  0.00  0.00    +0.000 HD
ENDBRANCH   1  10
BRANCH   1  15
ATOM     15  N   UNL     1       1.460  12.046  19.857  0.00  0.00    +0.000 NA
ATOM     16  C   UNL     1       1.248  13.138  20.828  0.00  0.00    +0.000 C 
ATOM     17  C   UNL     1       2.084  14.417  20.533  0.00  0.00    +0.000 C 
ATOM     18  N   UNL     1       1.952  14.947  19.162  0.00  0.00    +0.000 NA
ATOM     19  C   UNL     1       0.634  15.539  18.930  0.00  0.00    +0.000 C 
ATOM     20  C   UNL     1       2.238  13.856  18.214  0.00  0.00    +0.000 C 
ATOM     21  C   UNL     1       1.421  12.570  18.464  0.00  0.00    +0.000 C 
ENDBRANCH   1  15
BRANCH   1  22
ATOM     22  C   UNL     1      -0.681  10.866  19.044  0.00  0.00    +0.000 A 
ATOM     23  N   UNL     1      -0.770  10.038  18.007  0.00  0.00    +0.000 NA
ATOM     24  N   UNL     1      -2.020  10.149  17.490  0.00  0.00    +0.000 NA
ATOM     25  N   UNL     1      -2.721  11.034  18.166  0.00  0.00    +0.000 NA
ATOM     26  N   UNL     1      -1.912  11.482  19.153  0.00  0.00    +0.000 N 
BRANCH  26  27
ATOM     27  C   UNL     1      -2.506  12.411  20.082  0.00  0.00    +0.000 C 
ATOM     28  C   UNL     1      -4.012  12.601  19.960  0.00  0.00    +0.000 C 
ATOM     29  C   UNL     1      -4.460  13.120  21.313  0.00  0.00    +0.000 C 
ATOM     30  C   UNL     1      -3.375  12.762  22.322  0.00  0.00    +0.000 C 
ATOM     31  C   UNL     1      -2.215  12.150  21.552  0.00  0.00    +0.000 C 
ENDBRANCH  26  27
ENDBRANCH   1  22
TORSDOF 4
ENDMDL
