MODEL 1
REMARK VINA RESULT:      -7.0      0.000      0.000
REMARK  Name = 
REMARK  1 active torsions:
REMARK  status: ('A' for Active; 'I' for Inactive)
REMARK    1  A    between atoms: C_13  and  C_14
REMARK                            x       y       z     vdW  Elec       q    Type
REMARK                         _______ _______ _______ _____ _____    ______ ____
ROOT
ATOM      1  O   UNL     1       5.167   3.175  19.685  0.00  0.00    +0.000 OA
ATOM      2  C   UNL     1       4.299   3.998  19.394  0.00  0.00    +0.000 C 
ATOM      3  N   UNL     1       4.442   4.999  18.473  0.00  0.00    +0.000 N 
ATOM      4  C   UNL     1       5.579   5.120  17.726  0.00  0.00    +0.000 A 
ATOM      5  N   UNL     1       6.497   4.226  17.465  0.00  0.00    +0.000 NA
ATOM      6  C   UNL     1       7.506   4.804  16.723  0.00  0.00    +0.000 A 
ATOM      7  C   UNL     1       7.316   6.132  16.402  0.00  0.00    +0.000 A 
ATOM      8  S   UNL     1       5.812   6.666  17.033  0.00  0.00    +0.000 S 
ATOM      9  N   UNL     1       3.077   3.983  20.044  0.00  0.00    +0.000 N 
ATOM     10  C   UNL     1       2.842   3.076  21.151  0.00  0.00    +0.000 C 
ATOM     11  C   UNL     1       1.446   2.550  20.904  0.00  0.00    +0.000 C 
ATOM     12  C   UNL     1       0.721   3.742  20.287  0.00  0.00    +0.000 C 
ATOM     13  C   UNL     1       1.814   4.521  19.533  0.00  0.00    +0.000 C 
ATOM     14  H   UNL     1       3.899   5.842  18.593  0.00  0.00    +0.000 HD
ENDROOT
BRANCH  13  15
ATOM     15  C   UNL     1       1.667   6.016  19.744  0.00  0.00    +0.000 A 
ATOM     16  C   UNL     1       1.448   6.557  21.020  0.00  0.00    +0.000 A 
ATOM     17  C   UNL     1       1.319   7.934  21.200  0.00  0.00    +0.000 A 
ATOM     18  C   UNL     1       1.390   8.798  20.109  0.00  0.00    +0.000 A 
ATOM     19  C   UNL     1       1.636   8.277  18.831  0.00  0.00    +0.000 A 
ATOM     20  C   UNL     1       1.739   6.891  18.648  0.00  0.00    +0.000 A 
ATOM     21  O   UNL     1       1.797   9.027  17.693  0.00  0.00    +0.000 OA
ATOM     22  C   UNL     1       2.545  10.224  17.924  0.00  0.00    +0.000 C 
ATOM     23  C   UNL     1       1.645  11.360  18.379  0.00  0.00    +0.000 C 
ATOM     24  C   UNL     1       0.615  10.896  19.394  0.00  0.00    +0.000 C 
ATOM     25  O   UNL     1       1.227  10.122  20.424  0.00  0.00    +0.000 OA
ENDBRANCH  13  15
TORSDOF 1
ENDMDL
MODEL 2
REMARK VINA RESULT:      -6.8      7.574      9.925
REMARK  Name = 
REMARK  1 active torsions:
REMARK  status: ('A' for Active; 'I' for Inactive)
REMARK    1  A    between atoms: C_13  and  C_14
REMARK                            x       y       z     vdW  Elec       q    Type
REMARK                         _______ _______ _______ _____ _____    ______ ____
ROOT
ATOM      1  O   UNL     1      -5.614  12.190  17.137  0.00  0.00    +0.000 OA
ATOM      2  C   UNL     1      -4.666  11.781  17.808  0.00  0.00    +0.000 C 
ATOM      3  N   UNL     1      -4.593  11.825  19.173  0.00  0.00    +0.000 N 
ATOM      4  C   UNL     1      -5.639  12.277  19.928  0.00  0.00    +0.000 A 
ATOM      5  N   UNL     1      -6.902  12.387  19.608  0.00  0.00    +0.000 NA
ATOM      6  C   UNL     1      -7.594  12.955  20.657  0.00  0.00    +0.000 A 
ATOM      7  C   UNL     1      -6.842  13.236  21.778  0.00  0.00    +0.000 A 
ATOM      8  S   UNL     1      -5.216  12.751  21.515  0.00  0.00    +0.000 S 
ATOM      9  N   UNL     1      -3.543  11.263  17.186  0.00  0.00    +0.000 N 
ATOM     10  C   UNL     1      -3.418  11.298  15.743  0.00  0.00    +0.000 C 
ATOM     11  C   UNL     1      -2.857   9.939  15.390  0.00  0.00    +0.000 C 
ATOM     12  C   UNL     1      -1.938   9.618  16.565  0.00  0.00    +0.000 C 
ATOM     13  C   UNL     1      -2.580  10.328  17.772  0.00  0.00    +0.000 C 
ATOM     14  H   UNL     1      -3.681  11.880  19.603  0.00  0.00    +0.000 HD
ENDROOT
BRANCH  13  15
ATOM     15  C   UNL     1      -1.529  11.004  18.633  0.00  0.00    +0.000 A 
ATOM     16  C   UNL     1      -0.990  10.370  19.763  0.00  0.00    +0.000 A 
ATOM     17  C   UNL     1      -0.022  11.002  20.542  0.00  0.00    +0.000 A 
ATOM     18  C   UNL     1       0.417  12.285  20.220  0.00  0.00    +0.000 A 
ATOM     19  C   UNL     1      -0.090  12.921  19.079  0.00  0.00    +0.000 A 
ATOM     20  C   UNL     1      -1.083  12.296  18.312  0.00  0.00    +0.000 A 
ATOM     21  O   UNL     1       0.312  14.150  18.619  0.00  0.00    +0.000 OA
ATOM     22  C   UNL     1       1.722  14.352  18.747  0.00  0.00    +0.000 C 
ATOM     23  C   UNL     1       2.080  14.902  20.117  0.00  0.00    +0.000 C 
ATOM     24  C   UNL     1       1.303  14.213  21.225  0.00  0.00    +0.000 C 
ATOM     25  O   UNL     1       1.355  12.795  21.080  0.00  0.00    +0.000 OA
ENDBRANCH  13  15
TORSDOF 1
ENDMDL
MODEL 3
REMARK VINA RESULT:      -6.8      3.413      5.856
REMARK  Name = 
REMARK  1 active torsions:
REMARK  status: ('A' for Active; 'I' for Inactive)
REMARK    1  A    between atoms: C_13  and  C_14
REMARK                            x       y       z     vdW  Elec       q    Type
REMARK                         _______ _______ _______ _____ _____    ______ ____
ROOT
ATOM      1  O   UNL     1       7.905   6.440  15.138  0.00  0.00    +0.000 OA
ATOM      2  C   UNL     1       7.211   5.745  15.881  0.00  0.00    +0.000 C 
ATOM      3  N   UNL     1       6.442   4.689  15.477  0.00  0.00    +0.000 N 
ATOM      4  C   UNL     1       6.441   4.265  14.179  0.00  0.00    +0.000 A 
ATOM      5  N   UNL     1       7.328   4.474  13.241  0.00  0.00    +0.000 NA
ATOM      6  C   UNL     1       6.888   3.914  12.059  0.00  0.00    +0.000 A 
ATOM      7  C   UNL     1       5.679   3.255  12.132  0.00  0.00    +0.000 A 
ATOM      8  S   UNL     1       5.085   3.320  13.741  0.00  0.00    +0.000 S 
ATOM      9  N   UNL     1       7.135   6.031  17.234  0.00  0.00    +0.000 N 
ATOM     10  C   UNL     1       7.775   7.215  17.773  0.00  0.00    +0.000 C 
ATOM     11  C   UNL     1       8.408   6.734  19.060  0.00  0.00    +0.000 C 
ATOM     12  C   UNL     1       7.423   5.687  19.571  0.00  0.00    +0.000 C 
ATOM     13  C   UNL     1       6.787   5.091  18.302  0.00  0.00    +0.000 C 
ATOM     14  H   UNL     1       5.619   4.460  16.018  0.00  0.00    +0.000 HD
ENDROOT
BRANCH  13  15
ATOM     15  C   UNL     1       5.291   4.902  18.474  0.00  0.00    +0.000 A 
ATOM     16  C   UNL     1       4.396   5.971  18.321  0.00  0.00    +0.000 A 
ATOM     17  C   UNL     1       3.023   5.782  18.478  0.00  0.00    +0.000 A 
ATOM     18  C   UNL     1       2.517   4.526  18.807  0.00  0.00    +0.000 A 
ATOM     19  C   UNL     1       3.395   3.441  18.937  0.00  0.00    +0.000 A 
ATOM     20  C   UNL     1       4.776   3.638  18.805  0.00  0.00    +0.000 A 
ATOM     21  O   UNL     1       3.014   2.146  19.188  0.00  0.00    +0.000 OA
ATOM     22  C   UNL     1       1.824   1.776  18.486  0.00  0.00    +0.000 C 
ATOM     23  C   UNL     1       0.579   2.149  19.273  0.00  0.00    +0.000 C 
ATOM     24  C   UNL     1       0.697   3.526  19.903  0.00  0.00    +0.000 C 
ATOM     25  O   UNL     1       1.154   4.484  18.952  0.00  0.00    +0.000 OA
ENDBRANCH  13  15
TORSDOF 1
ENDMDL
MODEL 4
REMARK VINA RESULT:      -6.7      0.961      1.869
REMARK  Name = 
REMARK  1 active torsions:
REMARK  status: ('A' for Active; 'I' for Inactive)
REMARK    1  A    between atoms: C_13  and  C_14
REMARK                            x       y       z     vdW  Elec       q    Type
REMARK                         _______ _______ _______ _____ _____    ______ ____
ROOT
ATOM      1  O   UNL     1       5.205   3.298  19.670  0.00  0.00    +0.000 OA
ATOM      2  C   UNL     1       4.319   4.078  19.319  0.00  0.00    +0.000 C 
ATOM      3  N   UNL     1       4.418   4.963  18.281  0.00  0.00    +0.000 N 
ATOM      4  C   UNL     1       5.524   4.998  17.479  0.00  0.00    +0.000 A 
ATOM      5  N   UNL     1       6.437   4.082  17.290  0.00  0.00    +0.000 NA
ATOM      6  C   UNL     1       7.412   4.571  16.445  0.00  0.00    +0.000 A 
ATOM      7  C   UNL     1       7.199   5.851  15.977  0.00  0.00    +0.000 A 
ATOM      8  S   UNL     1       5.717   6.452  16.600  0.00  0.00    +0.000 S 
ATOM      9  N   UNL     1       3.124   4.136  20.015  0.00  0.00    +0.000 N 
ATOM     10  C   UNL     1       2.941   3.366  21.229  0.00  0.00    +0.000 C 
ATOM     11  C   UNL     1       1.540   2.810  21.103  0.00  0.00    +0.000 C 
ATOM     12  C   UNL     1       0.781   3.918  20.379  0.00  0.00    +0.000 C 
ATOM     13  C   UNL     1       1.838   4.606  19.494  0.00  0.00    +0.000 C 
ATOM     14  H   UNL     1       3.874   5.813  18.322  0.00  0.00    +0.000 HD
ENDROOT
BRANCH  13  15
ATOM     15  C   UNL     1       1.688   6.115  19.533  0.00  0.00    +0.000 A 
ATOM     16  C   UNL     1       2.010   6.911  18.423  0.00  0.00    +0.000 A 
ATOM     17  C   UNL     1       1.863   8.297  18.471  0.00  0.00    +0.000 A 
ATOM     18  C   UNL     1       1.406   8.919  19.631  0.00  0.00    +0.000 A 
ATOM     19  C   UNL     1       1.052   8.136  20.740  0.00  0.00    +0.000 A 
ATOM     20  C   UNL     1       1.227   6.746  20.699  0.00  0.00    +0.000 A 
ATOM     21  O   UNL     1       0.526   8.623  21.911  0.00  0.00    +0.000 OA
ATOM     22  C   UNL     1      -0.413   9.679  21.695  0.00  0.00    +0.000 C 
ATOM     23  C   UNL     1       0.282  11.028  21.610  0.00  0.00    +0.000 C 
ATOM     24  C   UNL     1       1.556  10.958  20.785  0.00  0.00    +0.000 C 
ATOM     25  O   UNL     1       1.327  10.285  19.549  0.00  0.00    +0.000 OA
ENDBRANCH  13  15
TORSDOF 1
ENDMDL
MODEL 5
REMARK VINA RESULT:      -6.5      6.860     10.382
REMARK  Name = 
REMARK  1 active torsions:
REMARK  status: ('A' for Active; 'I' for Inactive)
REMARK    1  A    between atoms: C_13  and  C_14
REMARK                            x       y       z     vdW  Elec       q    Type
REMARK                         _______ _______ _______ _____ _____    ______ ____
ROOT
ATOM      1  O   UNL     1      -6.137  12.987  22.638  0.00  0.00    +0.000 OA
ATOM      2  C   UNL     1      -5.003  12.924  22.162  0.00  0.00    +0.000 C 
ATOM      3  N   UNL     1      -4.716  12.688  20.846  0.00  0.00    +0.000 N 
ATOM      4  C   UNL     1      -5.707  12.571  19.911  0.00  0.00    +0.000 A 
ATOM      5  N   UNL     1      -6.946  12.982  19.965  0.00  0.00    +0.000 NA
ATOM      6  C   UNL     1      -7.612  12.591  18.822  0.00  0.00    +0.000 A 
ATOM      7  C   UNL     1      -6.846  11.912  17.897  0.00  0.00    +0.000 A 
ATOM      8  S   UNL     1      -5.233  11.780  18.471  0.00  0.00    +0.000 S 
ATOM      9  N   UNL     1      -3.894  13.056  22.980  0.00  0.00    +0.000 N 
ATOM     10  C   UNL     1      -4.047  13.156  24.418  0.00  0.00    +0.000 C 
ATOM     11  C   UNL     1      -3.069  14.239  24.816  0.00  0.00    +0.000 C 
ATOM     12  C   UNL     1      -1.909  14.044  23.845  0.00  0.00    +0.000 C 
ATOM     13  C   UNL     1      -2.555  13.483  22.565  0.00  0.00    +0.000 C 
ATOM     14  H   UNL     1      -3.839  12.242  20.618  0.00  0.00    +0.000 HD
ENDROOT
BRANCH  13  15
ATOM     15  C   UNL     1      -1.721  12.361  21.975  0.00  0.00    +0.000 A 
ATOM     16  C   UNL     1      -1.247  11.306  22.770  0.00  0.00    +0.000 A 
ATOM     17  C   UNL     1      -0.485  10.279  22.213  0.00  0.00    +0.000 A 
ATOM     18  C   UNL     1      -0.168  10.292  20.856  0.00  0.00    +0.000 A 
ATOM     19  C   UNL     1      -0.657  11.323  20.043  0.00  0.00    +0.000 A 
ATOM     20  C   UNL     1      -1.400  12.369  20.608  0.00  0.00    +0.000 A 
ATOM     21  O   UNL     1      -0.473  11.409  18.685  0.00  0.00    +0.000 OA
ATOM     22  C   UNL     1      -0.569  10.139  18.035  0.00  0.00    +0.000 C 
ATOM     23  C   UNL     1       0.768   9.417  18.031  0.00  0.00    +0.000 C 
ATOM     24  C   UNL     1       1.482   9.539  19.365  0.00  0.00    +0.000 C 
ATOM     25  O   UNL     1       0.602   9.235  20.445  0.00  0.00    +0.000 OA
ENDBRANCH  13  15
TORSDOF 1
ENDMDL
MODEL 6
REMARK VINA RESULT:      -6.5      8.417     10.551
REMARK  Name = 
REMARK  1 active torsions:
REMARK  status: ('A' for Active; 'I' for Inactive)
REMARK    1  A    between atoms: C_13  and  C_14
REMARK                            x       y       z     vdW  Elec       q    Type
REMARK                         _______ _______ _______ _____ _____    ______ ____
ROOT
ATOM      1  O   UNL     1       4.577  13.689  22.895  0.00  0.00    +0.000 OA
ATOM      2  C   UNL     1       5.751  13.703  22.526  0.00  0.00    +0.000 C 
ATOM      3  N   UNL     1       6.261  14.526  21.559  0.00  0.00    +0.000 N 
ATOM      4  C   UNL     1       5.489  15.480  20.958  0.00  0.00    +0.000 A 
ATOM      5  N   UNL     1       4.371  16.019  21.370  0.00  0.00    +0.000 NA
ATOM      6  C   UNL     1       3.902  16.894  20.412  0.00  0.00    +0.000 A 
ATOM      7  C   UNL     1       4.699  17.029  19.295  0.00  0.00    +0.000 A 
ATOM      8  S   UNL     1       6.094  16.043  19.461  0.00  0.00    +0.000 S 
ATOM      9  N   UNL     1       6.665  12.815  23.067  0.00  0.00    +0.000 N 
ATOM     10  C   UNL     1       6.231  11.783  23.989  0.00  0.00    +0.000 C 
ATOM     11  C   UNL     1       7.294  11.783  25.064  0.00  0.00    +0.000 C 
ATOM     12  C   UNL     1       8.574  12.106  24.299  0.00  0.00    +0.000 C 
ATOM     13  C   UNL     1       8.118  12.990  23.124  0.00  0.00    +0.000 C 
ATOM     14  H   UNL     1       7.062  14.208  21.032  0.00  0.00    +0.000 HD
ENDROOT
BRANCH  13  15
ATOM     15  C   UNL     1       8.823  12.600  21.838  0.00  0.00    +0.000 A 
ATOM     16  C   UNL     1       8.904  11.261  21.426  0.00  0.00    +0.000 A 
ATOM     17  C   UNL     1       9.552  10.918  20.239  0.00  0.00    +0.000 A 
ATOM     18  C   UNL     1      10.143  11.900  19.448  0.00  0.00    +0.000 A 
ATOM     19  C   UNL     1      10.047  13.245  19.831  0.00  0.00    +0.000 A 
ATOM     20  C   UNL     1       9.420  13.586  21.037  0.00  0.00    +0.000 A 
ATOM     21  O   UNL     1      10.526  14.306  19.104  0.00  0.00    +0.000 OA
ATOM     22  C   UNL     1      10.323  14.146  17.697  0.00  0.00    +0.000 C 
ATOM     23  C   UNL     1      11.464  13.373  17.058  0.00  0.00    +0.000 C 
ATOM     24  C   UNL     1      11.892  12.189  17.907  0.00  0.00    +0.000 C 
ATOM     25  O   UNL     1      10.762  11.423  18.321  0.00  0.00    +0.000 OA
ENDBRANCH  13  15
TORSDOF 1
ENDMDL
MODEL 7
REMARK VINA RESULT:      -6.4      6.290      9.482
REMARK  Name = 
REMARK  1 active torsions:
REMARK  status: ('A' for Active; 'I' for Inactive)
REMARK    1  A    between atoms: C_13  and  C_14
REMARK                            x       y       z     vdW  Elec       q    Type
REMARK                         _______ _______ _______ _____ _____    ______ ____
ROOT
ATOM      1  O   UNL     1      -5.776  12.321  18.438  0.00  0.00    +0.000 OA
ATOM      2  C   UNL     1      -4.679  12.387  18.993  0.00  0.00    +0.000 C 
ATOM      3  N   UNL     1      -3.516  11.864  18.498  0.00  0.00    +0.000 N 
ATOM      4  C   UNL     1      -3.470  11.271  17.268  0.00  0.00    +0.000 A 
ATOM      5  N   UNL     1      -4.296  11.389  16.261  0.00  0.00    +0.000 NA
ATOM      6  C   UNL     1      -3.897  10.554  15.238  0.00  0.00    +0.000 A 
ATOM      7  C   UNL     1      -2.745   9.836  15.477  0.00  0.00    +0.000 A 
ATOM      8  S   UNL     1      -2.129  10.238  17.029  0.00  0.00    +0.000 S 
ATOM      9  N   UNL     1      -4.559  12.989  20.234  0.00  0.00    +0.000 N 
ATOM     10  C   UNL     1      -5.735  13.448  20.946  0.00  0.00    +0.000 C 
ATOM     11  C   UNL     1      -5.322  14.791  21.507  0.00  0.00    +0.000 C 
ATOM     12  C   UNL     1      -3.844  14.601  21.833  0.00  0.00    +0.000 C 
ATOM     13  C   UNL     1      -3.341  13.574  20.801  0.00  0.00    +0.000 C 
ATOM     14  H   UNL     1      -2.800  11.582  19.152  0.00  0.00    +0.000 HD
ENDROOT
BRANCH  13  15
ATOM     15  C   UNL     1      -2.425  12.551  21.446  0.00  0.00    +0.000 A 
ATOM     16  C   UNL     1      -2.526  12.235  22.809  0.00  0.00    +0.000 A 
ATOM     17  C   UNL     1      -1.680  11.290  23.387  0.00  0.00    +0.000 A 
ATOM     18  C   UNL     1      -0.706  10.651  22.622  0.00  0.00    +0.000 A 
ATOM     19  C   UNL     1      -0.611  10.934  21.252  0.00  0.00    +0.000 A 
ATOM     20  C   UNL     1      -1.443  11.905  20.678  0.00  0.00    +0.000 A 
ATOM     21  O   UNL     1       0.257  10.323  20.381  0.00  0.00    +0.000 OA
ATOM     22  C   UNL     1       0.399   8.923  20.638  0.00  0.00    +0.000 C 
ATOM     23  C   UNL     1       1.476   8.658  21.677  0.00  0.00    +0.000 C 
ATOM     24  C   UNL     1       1.404   9.643  22.831  0.00  0.00    +0.000 C 
ATOM     25  O   UNL     1       0.069   9.761  23.319  0.00  0.00    +0.000 OA
ENDBRANCH  13  15
TORSDOF 1
ENDMDL
MODEL 8
REMARK VINA RESULT:      -6.2      6.907      8.705
REMARK  Name = 
REMARK  1 active torsions:
REMARK  status: ('A' for Active; 'I' for Inactive)
REMARK    1  A    between atoms: C_13  and  C_14
REMARK                            x       y       z     vdW  Elec       q    Type
REMARK                         _______ _______ _______ _____ _____    ______ ____
ROOT
ATOM      1  O   UNL     1       0.685  15.660  21.536  0.00  0.00    +0.000 OA
ATOM      2  C   UNL     1       0.565  14.504  21.131  0.00  0.00    +0.000 C 
ATOM      3  N   UNL     1       1.354  13.919  20.180  0.00  0.00    +0.000 N 
ATOM      4  C   UNL     1       2.423  14.577  19.640  0.00  0.00    +0.000 A 
ATOM      5  N   UNL     1       3.083  15.605  20.106  0.00  0.00    +0.000 NA
ATOM      6  C   UNL     1       4.049  15.983  19.197  0.00  0.00    +0.000 A 
ATOM      7  C   UNL     1       4.127  15.205  18.060  0.00  0.00    +0.000 A 
ATOM      8  S   UNL     1       2.965  13.944  18.146  0.00  0.00    +0.000 S 
ATOM      9  N   UNL     1      -0.455  13.699  21.610  0.00  0.00    +0.000 N 
ATOM     10  C   UNL     1      -1.459  14.237  22.505  0.00  0.00    +0.000 C 
ATOM     11  C   UNL     1      -1.640  13.154  23.546  0.00  0.00    +0.000 C 
ATOM     12  C   UNL     1      -1.451  11.864  22.754  0.00  0.00    +0.000 C 
ATOM     13  C   UNL     1      -0.469  12.234  21.627  0.00  0.00    +0.000 C 
ATOM     14  H   UNL     1       0.959  13.180  19.616  0.00  0.00    +0.000 HD
ENDROOT
BRANCH  13  15
ATOM     15  C   UNL     1      -0.893  11.620  20.306  0.00  0.00    +0.000 A 
ATOM     16  C   UNL     1      -0.132  10.615  19.689  0.00  0.00    +0.000 A 
ATOM     17  C   UNL     1      -0.536  10.056  18.477  0.00  0.00    +0.000 A 
ATOM     18  C   UNL     1      -1.698  10.498  17.848  0.00  0.00    +0.000 A 
ATOM     19  C   UNL     1      -2.485  11.482  18.465  0.00  0.00    +0.000 A 
ATOM     20  C   UNL     1      -2.063  12.061  19.669  0.00  0.00    +0.000 A 
ATOM     21  O   UNL     1      -3.682  11.948  17.982  0.00  0.00    +0.000 OA
ATOM     22  C   UNL     1      -4.488  10.913  17.415  0.00  0.00    +0.000 C 
ATOM     23  C   UNL     1      -4.147  10.685  15.952  0.00  0.00    +0.000 C 
ATOM     24  C   UNL     1      -2.647  10.704  15.710  0.00  0.00    +0.000 C 
ATOM     25  O   UNL     1      -1.968   9.880  16.655  0.00  0.00    +0.000 OA
ENDBRANCH  13  15
TORSDOF 1
ENDMDL
MODEL 9
REMARK VINA RESULT:      -6.2      2.716      6.158
REMARK  Name = 
REMARK  1 active torsions:
REMARK  status: ('A' for Active; 'I' for Inactive)
REMARK    1  A    between atoms: C_13  and  C_14
REMARK                            x       y       z     vdW  Elec       q    Type
REMARK                         _______ _______ _______ _____ _____    ______ ____
ROOT
ATOM      1  O   UNL     1       1.087   5.325  20.772  0.00  0.00    +0.000 OA
ATOM      2  C   UNL     1       2.112   5.267  20.093  0.00  0.00    +0.000 C 
ATOM      3  N   UNL     1       2.645   6.308  19.385  0.00  0.00    +0.000 N 
ATOM      4  C   UNL     1       2.097   7.559  19.438  0.00  0.00    +0.000 A 
ATOM      5  N   UNL     1       1.300   8.075  20.337  0.00  0.00    +0.000 NA
ATOM      6  C   UNL     1       0.939   9.350  19.955  0.00  0.00    +0.000 A 
ATOM      7  C   UNL     1       1.500   9.795  18.777  0.00  0.00    +0.000 A 
ATOM      8  S   UNL     1       2.534   8.581  18.139  0.00  0.00    +0.000 S 
ATOM      9  N   UNL     1       2.801   4.072  19.968  0.00  0.00    +0.000 N 
ATOM     10  C   UNL     1       2.266   2.851  20.538  0.00  0.00    +0.000 C 
ATOM     11  C   UNL     1       3.470   2.179  21.160  0.00  0.00    +0.000 C 
ATOM     12  C   UNL     1       4.609   2.543  20.212  0.00  0.00    +0.000 C 
ATOM     13  C   UNL     1       4.219   3.918  19.637  0.00  0.00    +0.000 C 
ATOM     14  H   UNL     1       3.190   6.099  18.560  0.00  0.00    +0.000 HD
ENDROOT
BRANCH  13  15
ATOM     15  C   UNL     1       4.502   3.990  18.148  0.00  0.00    +0.000 A 
ATOM     16  C   UNL     1       3.490   3.776  17.200  0.00  0.00    +0.000 A 
ATOM     17  C   UNL     1       3.763   3.850  15.835  0.00  0.00    +0.000 A 
ATOM     18  C   UNL     1       5.054   4.123  15.387  0.00  0.00    +0.000 A 
ATOM     19  C   UNL     1       6.071   4.367  16.321  0.00  0.00    +0.000 A 
ATOM     20  C   UNL     1       5.801   4.266  17.692  0.00  0.00    +0.000 A 
ATOM     21  O   UNL     1       7.361   4.715  16.006  0.00  0.00    +0.000 OA
ATOM     22  C   UNL     1       7.434   5.622  14.903  0.00  0.00    +0.000 C 
ATOM     23  C   UNL     1       7.457   4.881  13.577  0.00  0.00    +0.000 C 
ATOM     24  C   UNL     1       6.467   3.729  13.554  0.00  0.00    +0.000 C 
ATOM     25  O   UNL     1       5.187   4.147  14.023  0.00  0.00    +0.000 OA
ENDBRANCH  13  15
TORSDOF 1
ENDMDL
