MODEL 1
REMARK VINA RESULT:      -6.5      0.000      0.000
REMARK  Name = 
REMARK  10 active torsions:
REMARK  status: ('A' for Active; 'I' for Inactive)
REMARK    1  A    between atoms: C_1  and  O_2
REMARK    2  A    between atoms: O_2  and  C_3
REMARK    3  A    between atoms: C_10  and  C_11
REMARK    4  A    between atoms: C_10  and  C_12
REMARK    5  A    between atoms: C_13  and  C_14
REMARK    6  A    between atoms: C_20  and  C_21
REMARK    7  A    between atoms: C_24  and  O_25
REMARK    8  A    between atoms: O_25  and  C_26
REMARK    9  A    between atoms: C_26  and  C_27
REMARK   10  A    between atoms: C_27  and  N_28
REMARK                            x       y       z     vdW  Elec       q    Type
REMARK                         _______ _______ _______ _____ _____    ______ ____
ROOT
ATOM      1  C   UNL     1      -3.242  10.296  16.353  0.00  0.00    +0.000 A 
ATOM      2  C   UNL     1      -2.090  10.998  16.702  0.00  0.00    +0.000 A 
ATOM      3  C   UNL     1      -2.066  11.807  17.841  0.00  0.00    +0.000 A 
ATOM      4  C   UNL     1      -3.204  11.931  18.649  0.00  0.00    +0.000 A 
ATOM      5  C   UNL     1      -4.359  11.244  18.282  0.00  0.00    +0.000 A 
ATOM      6  C   UNL     1      -4.379  10.423  17.150  0.00  0.00    +0.000 A 
ATOM      7  O   UNL     1      -5.508  11.274  19.018  0.00  0.00    +0.000 OA
ATOM      8  C   UNL     1      -5.678  12.402  19.912  0.00  0.00    +0.000 C 
ATOM      9  C   UNL     1      -6.301  13.541  19.088  0.00  0.00    +0.000 C 
ATOM     10  C   UNL     1      -6.719  11.894  20.926  0.00  0.00    +0.000 C 
ATOM     11  C   UNL     1      -4.365  12.867  20.549  0.00  0.00    +0.000 C 
ATOM     12  C   UNL     1      -3.176  12.688  19.919  0.00  0.00    +0.000 C 
ENDROOT
BRANCH  11  13
ATOM     13  C   UNL     1      -4.417  13.523  21.881  0.00  0.00    +0.000 A 
ATOM     14  C   UNL     1      -4.657  14.898  21.989  0.00  0.00    +0.000 A 
ATOM     15  C   UNL     1      -4.542  15.539  23.224  0.00  0.00    +0.000 A 
ATOM     16  C   UNL     1      -4.186  14.815  24.360  0.00  0.00    +0.000 A 
ATOM     17  C   UNL     1      -3.963  13.442  24.268  0.00  0.00    +0.000 A 
ATOM     18  C   UNL     1      -4.081  12.799  23.036  0.00  0.00    +0.000 A 
ENDBRANCH  11  13
BRANCH  12  19
ATOM     19  C   UNL     1      -1.921  13.133  20.555  0.00  0.00    +0.000 A 
ATOM     20  C   UNL     1      -1.559  14.470  20.410  0.00  0.00    +0.000 A 
ATOM     21  C   UNL     1      -0.370  14.929  20.953  0.00  0.00    +0.000 A 
ATOM     22  C   UNL     1       0.470  14.072  21.679  0.00  0.00    +0.000 A 
ATOM     23  C   UNL     1       0.098  12.738  21.846  0.00  0.00    +0.000 A 
ATOM     24  C   UNL     1      -1.095  12.266  21.283  0.00  0.00    +0.000 A 
BRANCH  22  25
ATOM     25  O   UNL     1       1.665  14.457  22.254  0.00  0.00    +0.000 OA
BRANCH  25  26
ATOM     26  C   UNL     1       2.072  15.763  21.841  0.00  0.00    +0.000 C 
BRANCH  26  27
ATOM     27  C   UNL     1       3.573  15.894  21.576  0.00  0.00    +0.000 C 
BRANCH  27  28
ATOM     28  N   UNL     1       3.842  16.078  20.130  0.00  0.00    +0.000 NA
ATOM     29  C   UNL     1       4.439  14.884  19.505  0.00  0.00    +0.000 C 
ATOM     30  C   UNL     1       4.775  15.125  18.034  0.00  0.00    +0.000 C 
ATOM     31  C   UNL     1       3.548  15.575  17.258  0.00  0.00    +0.000 C 
ATOM     32  C   UNL     1       2.894  16.766  17.950  0.00  0.00    +0.000 C 
ATOM     33  C   UNL     1       2.616  16.479  19.426  0.00  0.00    +0.000 C 
ENDBRANCH  27  28
ENDBRANCH  26  27
ENDBRANCH  25  26
ENDBRANCH  22  25
ENDBRANCH  12  19
BRANCH   1  35
ATOM     34  C   UNL     1      -3.643  10.064  14.028  0.00  0.00    +0.000 C 
ATOM     35  O   UNL     1      -3.130   9.517  15.237  0.00  0.00    +0.000 OA
ENDBRANCH   1  35
TORSDOF 7
ENDMDL
MODEL 2
REMARK VINA RESULT:      -6.4      2.071      2.634
REMARK  Name = 
REMARK  10 active torsions:
REMARK  status: ('A' for Active; 'I' for Inactive)
REMARK    1  A    between atoms: C_1  and  O_2
REMARK    2  A    between atoms: O_2  and  C_3
REMARK    3  A    between atoms: C_10  and  C_11
REMARK    4  A    between atoms: C_10  and  C_12
REMARK    5  A    between atoms: C_13  and  C_14
REMARK    6  A    between atoms: C_20  and  C_21
REMARK    7  A    between atoms: C_24  and  O_25
REMARK    8  A    between atoms: O_25  and  C_26
REMARK    9  A    between atoms: C_26  and  C_27
REMARK   10  A    between atoms: C_27  and  N_28
REMARK                            x       y       z     vdW  Elec       q    Type
REMARK                         _______ _______ _______ _____ _____    ______ ____
ROOT
ATOM      1  C   UNL     1      -3.144  10.491  17.017  0.00  0.00    +0.000 A 
ATOM      2  C   UNL     1      -2.364  11.513  17.556  0.00  0.00    +0.000 A 
ATOM      3  C   UNL     1      -2.847  12.303  18.602  0.00  0.00    +0.000 A 
ATOM      4  C   UNL     1      -4.130  12.086  19.122  0.00  0.00    +0.000 A 
ATOM      5  C   UNL     1      -4.913  11.078  18.564  0.00  0.00    +0.000 A 
ATOM      6  C   UNL     1      -4.424  10.277  17.527  0.00  0.00    +0.000 A 
ATOM      7  O   UNL     1      -6.160  10.766  19.021  0.00  0.00    +0.000 OA
ATOM      8  C   UNL     1      -6.859  11.800  19.760  0.00  0.00    +0.000 C 
ATOM      9  C   UNL     1      -7.573  12.687  18.727  0.00  0.00    +0.000 C 
ATOM     10  C   UNL     1      -7.916  11.011  20.554  0.00  0.00    +0.000 C 
ATOM     11  C   UNL     1      -5.929  12.647  20.632  0.00  0.00    +0.000 C 
ATOM     12  C   UNL     1      -4.626  12.830  20.301  0.00  0.00    +0.000 C 
ENDROOT
BRANCH  11  13
ATOM     13  C   UNL     1      -6.484  13.271  21.861  0.00  0.00    +0.000 A 
ATOM     14  C   UNL     1      -6.385  12.620  23.097  0.00  0.00    +0.000 A 
ATOM     15  C   UNL     1      -7.049  13.128  24.216  0.00  0.00    +0.000 A 
ATOM     16  C   UNL     1      -7.816  14.286  24.112  0.00  0.00    +0.000 A 
ATOM     17  C   UNL     1      -7.907  14.952  22.890  0.00  0.00    +0.000 A 
ATOM     18  C   UNL     1      -7.242  14.449  21.772  0.00  0.00    +0.000 A 
ENDBRANCH  11  13
BRANCH  12  19
ATOM     19  C   UNL     1      -3.743  13.640  21.162  0.00  0.00    +0.000 A 
ATOM     20  C   UNL     1      -3.793  15.025  21.020  0.00  0.00    +0.000 A 
ATOM     21  C   UNL     1      -2.956  15.830  21.776  0.00  0.00    +0.000 A 
ATOM     22  C   UNL     1      -2.071  15.272  22.711  0.00  0.00    +0.000 A 
ATOM     23  C   UNL     1      -2.037  13.887  22.872  0.00  0.00    +0.000 A 
ATOM     24  C   UNL     1      -2.869  13.070  22.096  0.00  0.00    +0.000 A 
BRANCH  22  25
ATOM     25  O   UNL     1      -1.212  16.008  23.504  0.00  0.00    +0.000 OA
BRANCH  25  26
ATOM     26  C   UNL     1       0.147  15.903  23.077  0.00  0.00    +0.000 C 
BRANCH  26  27
ATOM     27  C   UNL     1       0.407  16.469  21.679  0.00  0.00    +0.000 C 
BRANCH  27  28
ATOM     28  N   UNL     1       0.914  15.417  20.767  0.00  0.00    +0.000 NA
ATOM     29  C   UNL     1       1.312  14.189  21.478  0.00  0.00    +0.000 C 
ATOM     30  C   UNL     1       1.899  13.150  20.525  0.00  0.00    +0.000 C 
ATOM     31  C   UNL     1       0.928  12.823  19.403  0.00  0.00    +0.000 C 
ATOM     32  C   UNL     1       0.465  14.105  18.717  0.00  0.00    +0.000 C 
ATOM     33  C   UNL     1      -0.078  15.119  19.725  0.00  0.00    +0.000 C 
ENDBRANCH  27  28
ENDBRANCH  26  27
ENDBRANCH  25  26
ENDBRANCH  22  25
ENDBRANCH  12  19
BRANCH   1  35
ATOM     34  C   UNL     1      -2.912  10.110  14.689  0.00  0.00    +0.000 C 
ATOM     35  O   UNL     1      -2.548   9.771  16.022  0.00  0.00    +0.000 OA
ENDBRANCH   1  35
TORSDOF 7
ENDMDL
MODEL 3
REMARK VINA RESULT:      -6.4      4.200      7.357
REMARK  Name = 
REMARK  10 active torsions:
REMARK  status: ('A' for Active; 'I' for Inactive)
REMARK    1  A    between atoms: C_1  and  O_2
REMARK    2  A    between atoms: O_2  and  C_3
REMARK    3  A    between atoms: C_10  and  C_11
REMARK    4  A    between atoms: C_10  and  C_12
REMARK    5  A    between atoms: C_13  and  C_14
REMARK    6  A    between atoms: C_20  and  C_21
REMARK    7  A    between atoms: C_24  and  O_25
REMARK    8  A    between atoms: O_25  and  C_26
REMARK    9  A    between atoms: C_26  and  C_27
REMARK   10  A    between atoms: C_27  and  N_28
REMARK                            x       y       z     vdW  Elec       q    Type
REMARK                         _______ _______ _______ _____ _____    ______ ____
ROOT
ATOM      1  C   UNL     1      -2.640  14.877  23.164  0.00  0.00    +0.000 A 
ATOM      2  C   UNL     1      -1.544  14.024  23.052  0.00  0.00    +0.000 A 
ATOM      3  C   UNL     1      -1.468  13.094  22.012  0.00  0.00    +0.000 A 
ATOM      4  C   UNL     1      -2.499  12.999  21.067  0.00  0.00    +0.000 A 
ATOM      5  C   UNL     1      -3.602  13.839  21.198  0.00  0.00    +0.000 A 
ATOM      6  C   UNL     1      -3.671  14.780  22.231  0.00  0.00    +0.000 A 
ATOM      7  O   UNL     1      -4.640  13.847  20.313  0.00  0.00    +0.000 OA
ATOM      8  C   UNL     1      -4.825  12.649  19.517  0.00  0.00    +0.000 C 
ATOM      9  C   UNL     1      -5.681  11.682  20.352  0.00  0.00    +0.000 C 
ATOM     10  C   UNL     1      -5.658  13.146  18.322  0.00  0.00    +0.000 C 
ATOM     11  C   UNL     1      -3.506  11.982  19.122  0.00  0.00    +0.000 C 
ATOM     12  C   UNL     1      -2.396  12.105  19.893  0.00  0.00    +0.000 C 
ENDROOT
BRANCH  11  13
ATOM     13  C   UNL     1      -3.461  11.189  17.866  0.00  0.00    +0.000 A 
ATOM     14  C   UNL     1      -3.705   9.810  17.885  0.00  0.00    +0.000 A 
ATOM     15  C   UNL     1      -3.501   9.042  16.736  0.00  0.00    +0.000 A 
ATOM     16  C   UNL     1      -3.053   9.643  15.561  0.00  0.00    +0.000 A 
ATOM     17  C   UNL     1      -2.825  11.018  15.525  0.00  0.00    +0.000 A 
ATOM     18  C   UNL     1      -3.032  11.787  16.670  0.00  0.00    +0.000 A 
ENDBRANCH  11  13
BRANCH  12  19
ATOM     19  C   UNL     1      -1.130  11.463  19.487  0.00  0.00    +0.000 A 
ATOM     20  C   UNL     1      -0.230  12.219  18.742  0.00  0.00    +0.000 A 
ATOM     21  C   UNL     1       0.955  11.652  18.301  0.00  0.00    +0.000 A 
ATOM     22  C   UNL     1       1.280  10.325  18.620  0.00  0.00    +0.000 A 
ATOM     23  C   UNL     1       0.391   9.573  19.387  0.00  0.00    +0.000 A 
ATOM     24  C   UNL     1      -0.816  10.139  19.819  0.00  0.00    +0.000 A 
BRANCH  22  25
ATOM     25  O   UNL     1       2.443   9.692  18.223  0.00  0.00    +0.000 OA
BRANCH  25  26
ATOM     26  C   UNL     1       2.209   8.356  17.773  0.00  0.00    +0.000 C 
BRANCH  26  27
ATOM     27  C   UNL     1       3.403   7.418  17.958  0.00  0.00    +0.000 C 
BRANCH  27  28
ATOM     28  N   UNL     1       3.021   6.222  18.745  0.00  0.00    +0.000 NA
ATOM     29  C   UNL     1       2.201   6.553  19.925  0.00  0.00    +0.000 C 
ATOM     30  C   UNL     1       1.884   5.313  20.758  0.00  0.00    +0.000 C 
ATOM     31  C   UNL     1       1.200   4.248  19.918  0.00  0.00    +0.000 C 
ATOM     32  C   UNL     1       2.018   3.960  18.663  0.00  0.00    +0.000 C 
ATOM     33  C   UNL     1       2.335   5.242  17.891  0.00  0.00    +0.000 C 
ENDBRANCH  27  28
ENDBRANCH  26  27
ENDBRANCH  25  26
ENDBRANCH  22  25
ENDBRANCH  12  19
BRANCH   1  35
ATOM     34  C   UNL     1      -2.849  15.234  25.499  0.00  0.00    +0.000 C 
ATOM     35  O   UNL     1      -2.582  15.760  24.204  0.00  0.00    +0.000 OA
ENDBRANCH   1  35
TORSDOF 7
ENDMDL
MODEL 4
REMARK VINA RESULT:      -6.3      0.721      1.162
REMARK  Name = 
REMARK  10 active torsions:
REMARK  status: ('A' for Active; 'I' for Inactive)
REMARK    1  A    between atoms: C_1  and  O_2
REMARK    2  A    between atoms: O_2  and  C_3
REMARK    3  A    between atoms: C_10  and  C_11
REMARK    4  A    between atoms: C_10  and  C_12
REMARK    5  A    between atoms: C_13  and  C_14
REMARK    6  A    between atoms: C_20  and  C_21
REMARK    7  A    between atoms: C_24  and  O_25
REMARK    8  A    between atoms: O_25  and  C_26
REMARK    9  A    between atoms: C_26  and  C_27
REMARK   10  A    between atoms: C_27  and  N_28
REMARK                            x       y       z     vdW  Elec       q    Type
REMARK                         _______ _______ _______ _____ _____    ______ ____
ROOT
ATOM      1  C   UNL     1      -3.868  10.618  16.237  0.00  0.00    +0.000 A 
ATOM      2  C   UNL     1      -2.629  11.186  16.526  0.00  0.00    +0.000 A 
ATOM      3  C   UNL     1      -2.423  11.874  17.725  0.00  0.00    +0.000 A 
ATOM      4  C   UNL     1      -3.464  12.010  18.654  0.00  0.00    +0.000 A 
ATOM      5  C   UNL     1      -4.706  11.458  18.348  0.00  0.00    +0.000 A 
ATOM      6  C   UNL     1      -4.908  10.757  17.154  0.00  0.00    +0.000 A 
ATOM      7  O   UNL     1      -5.772  11.508  19.198  0.00  0.00    +0.000 OA
ATOM      8  C   UNL     1      -5.753  12.552  20.204  0.00  0.00    +0.000 C 
ATOM      9  C   UNL     1      -6.347  13.813  19.554  0.00  0.00    +0.000 C 
ATOM     10  C   UNL     1      -6.735  12.033  21.269  0.00  0.00    +0.000 C 
ATOM     11  C   UNL     1      -4.350  12.844  20.740  0.00  0.00    +0.000 C 
ATOM     12  C   UNL     1      -3.247  12.633  19.978  0.00  0.00    +0.000 C 
ENDROOT
BRANCH  11  13
ATOM     13  C   UNL     1      -4.215  13.368  22.124  0.00  0.00    +0.000 A 
ATOM     14  C   UNL     1      -4.290  14.743  22.376  0.00  0.00    +0.000 A 
ATOM     15  C   UNL     1      -4.000  15.244  23.647  0.00  0.00    +0.000 A 
ATOM     16  C   UNL     1      -3.632  14.379  24.675  0.00  0.00    +0.000 A 
ATOM     17  C   UNL     1      -3.572  13.006  24.441  0.00  0.00    +0.000 A 
ATOM     18  C   UNL     1      -3.865  12.503  23.173  0.00  0.00    +0.000 A 
ENDBRANCH  11  13
BRANCH  12  19
ATOM     19  C   UNL     1      -1.902  12.910  20.518  0.00  0.00    +0.000 A 
ATOM     20  C   UNL     1      -1.438  14.221  20.461  0.00  0.00    +0.000 A 
ATOM     21  C   UNL     1      -0.166  14.528  20.918  0.00  0.00    +0.000 A 
ATOM     22  C   UNL     1       0.660  13.537  21.469  0.00  0.00    +0.000 A 
ATOM     23  C   UNL     1       0.188  12.227  21.549  0.00  0.00    +0.000 A 
ATOM     24  C   UNL     1      -1.091  11.911  21.071  0.00  0.00    +0.000 A 
BRANCH  22  25
ATOM     25  O   UNL     1       1.935  13.766  21.950  0.00  0.00    +0.000 OA
BRANCH  25  26
ATOM     26  C   UNL     1       2.434  15.052  21.579  0.00  0.00    +0.000 C 
BRANCH  26  27
ATOM     27  C   UNL     1       3.470  15.018  20.454  0.00  0.00    +0.000 C 
BRANCH  27  28
ATOM     28  N   UNL     1       2.890  15.512  19.183  0.00  0.00    +0.000 NA
ATOM     29  C   UNL     1       2.177  16.792  19.342  0.00  0.00    +0.000 C 
ATOM     30  C   UNL     1       1.526  17.242  18.036  0.00  0.00    +0.000 C 
ATOM     31  C   UNL     1       2.550  17.339  16.917  0.00  0.00    +0.000 C 
ATOM     32  C   UNL     1       3.333  16.035  16.805  0.00  0.00    +0.000 C 
ATOM     33  C   UNL     1       3.930  15.618  18.150  0.00  0.00    +0.000 C 
ENDBRANCH  27  28
ENDBRANCH  26  27
ENDBRANCH  25  26
ENDBRANCH  22  25
ENDBRANCH  12  19
BRANCH   1  35
ATOM     34  C   UNL     1      -2.730   9.877  14.293  0.00  0.00    +0.000 C 
ATOM     35  O   UNL     1      -3.933   9.946  15.049  0.00  0.00    +0.000 OA
ENDBRANCH   1  35
TORSDOF 7
ENDMDL
MODEL 5
REMARK VINA RESULT:      -6.3      4.435      7.952
REMARK  Name = 
REMARK  10 active torsions:
REMARK  status: ('A' for Active; 'I' for Inactive)
REMARK    1  A    between atoms: C_1  and  O_2
REMARK    2  A    between atoms: O_2  and  C_3
REMARK    3  A    between atoms: C_10  and  C_11
REMARK    4  A    between atoms: C_10  and  C_12
REMARK    5  A    between atoms: C_13  and  C_14
REMARK    6  A    between atoms: C_20  and  C_21
REMARK    7  A    between atoms: C_24  and  O_25
REMARK    8  A    between atoms: O_25  and  C_26
REMARK    9  A    between atoms: C_26  and  C_27
REMARK   10  A    between atoms: C_27  and  N_28
REMARK                            x       y       z     vdW  Elec       q    Type
REMARK                         _______ _______ _______ _____ _____    ______ ____
ROOT
ATOM      1  C   UNL     1      -4.085  13.773  23.207  0.00  0.00    +0.000 A 
ATOM      2  C   UNL     1      -3.863  12.647  22.417  0.00  0.00    +0.000 A 
ATOM      3  C   UNL     1      -2.739  12.566  21.590  0.00  0.00    +0.000 A 
ATOM      4  C   UNL     1      -1.818  13.622  21.538  0.00  0.00    +0.000 A 
ATOM      5  C   UNL     1      -2.058  14.753  22.315  0.00  0.00    +0.000 A 
ATOM      6  C   UNL     1      -3.176  14.828  23.152  0.00  0.00    +0.000 A 
ATOM      7  O   UNL     1      -1.207  15.819  22.359  0.00  0.00    +0.000 OA
ATOM      8  C   UNL     1      -0.308  15.980  21.232  0.00  0.00    +0.000 C 
ATOM      9  C   UNL     1      -1.072  16.769  20.156  0.00  0.00    +0.000 C 
ATOM     10  C   UNL     1       0.812  16.870  21.801  0.00  0.00    +0.000 C 
ATOM     11  C   UNL     1       0.185  14.648  20.662  0.00  0.00    +0.000 C 
ATOM     12  C   UNL     1      -0.564  13.520  20.761  0.00  0.00    +0.000 C 
ENDROOT
BRANCH  11  13
ATOM     13  C   UNL     1       1.510  14.611  19.991  0.00  0.00    +0.000 A 
ATOM     14  C   UNL     1       2.673  14.349  20.725  0.00  0.00    +0.000 A 
ATOM     15  C   UNL     1       3.928  14.478  20.127  0.00  0.00    +0.000 A 
ATOM     16  C   UNL     1       4.034  14.868  18.793  0.00  0.00    +0.000 A 
ATOM     17  C   UNL     1       2.882  15.113  18.047  0.00  0.00    +0.000 A 
ATOM     18  C   UNL     1       1.626  14.982  18.642  0.00  0.00    +0.000 A 
ENDBRANCH  11  13
BRANCH  12  19
ATOM     19  C   UNL     1      -0.065  12.243  20.215  0.00  0.00    +0.000 A 
ATOM     20  C   UNL     1      -0.418  11.916  18.908  0.00  0.00    +0.000 A 
ATOM     21  C   UNL     1      -0.010  10.710  18.361  0.00  0.00    +0.000 A 
ATOM     22  C   UNL     1       0.784   9.817  19.096  0.00  0.00    +0.000 A 
ATOM     23  C   UNL     1       1.158  10.154  20.397  0.00  0.00    +0.000 A 
ATOM     24  C   UNL     1       0.732  11.364  20.959  0.00  0.00    +0.000 A 
BRANCH  22  25
ATOM     25  O   UNL     1       1.234   8.602  18.618  0.00  0.00    +0.000 OA
BRANCH  25  26
ATOM     26  C   UNL     1       1.932   7.850  19.613  0.00  0.00    +0.000 C 
BRANCH  26  27
ATOM     27  C   UNL     1       2.975   6.885  19.048  0.00  0.00    +0.000 C 
BRANCH  27  28
ATOM     28  N   UNL     1       2.607   5.478  19.337  0.00  0.00    +0.000 NA
ATOM     29  C   UNL     1       1.805   5.340  20.565  0.00  0.00    +0.000 C 
ATOM     30  C   UNL     1       1.503   3.876  20.881  0.00  0.00    +0.000 C 
ATOM     31  C   UNL     1       0.809   3.195  19.712  0.00  0.00    +0.000 C 
ATOM     32  C   UNL     1       1.608   3.403  18.430  0.00  0.00    +0.000 C 
ATOM     33  C   UNL     1       1.911   4.883  18.188  0.00  0.00    +0.000 C 
ENDBRANCH  27  28
ENDBRANCH  26  27
ENDBRANCH  25  26
ENDBRANCH  22  25
ENDBRANCH  12  19
BRANCH   1  35
ATOM     34  C   UNL     1      -6.288  12.945  23.497  0.00  0.00    +0.000 C 
ATOM     35  O   UNL     1      -5.201  13.718  23.993  0.00  0.00    +0.000 OA
ENDBRANCH   1  35
TORSDOF 7
ENDMDL
MODEL 6
REMARK VINA RESULT:      -6.2      4.223      6.839
REMARK  Name = 
REMARK  10 active torsions:
REMARK  status: ('A' for Active; 'I' for Inactive)
REMARK    1  A    between atoms: C_1  and  O_2
REMARK    2  A    between atoms: O_2  and  C_3
REMARK    3  A    between atoms: C_10  and  C_11
REMARK    4  A    between atoms: C_10  and  C_12
REMARK    5  A    between atoms: C_13  and  C_14
REMARK    6  A    between atoms: C_20  and  C_21
REMARK    7  A    between atoms: C_24  and  O_25
REMARK    8  A    between atoms: O_25  and  C_26
REMARK    9  A    between atoms: C_26  and  C_27
REMARK   10  A    between atoms: C_27  and  N_28
REMARK                            x       y       z     vdW  Elec       q    Type
REMARK                         _______ _______ _______ _____ _____    ______ ____
ROOT
ATOM      1  C   UNL     1       2.048  16.550  18.509  0.00  0.00    +0.000 A 
ATOM      2  C   UNL     1       2.387  15.281  18.976  0.00  0.00    +0.000 A 
ATOM      3  C   UNL     1       1.454  14.502  19.665  0.00  0.00    +0.000 A 
ATOM      4  C   UNL     1       0.161  14.988  19.904  0.00  0.00    +0.000 A 
ATOM      5  C   UNL     1      -0.164  16.265  19.453  0.00  0.00    +0.000 A 
ATOM      6  C   UNL     1       0.765  17.039  18.752  0.00  0.00    +0.000 A 
ATOM      7  O   UNL     1      -1.404  16.815  19.607  0.00  0.00    +0.000 OA
ATOM      8  C   UNL     1      -2.232  16.266  20.663  0.00  0.00    +0.000 C 
ATOM      9  C   UNL     1      -1.858  17.006  21.959  0.00  0.00    +0.000 C 
ATOM     10  C   UNL     1      -3.655  16.680  20.246  0.00  0.00    +0.000 C 
ATOM     11  C   UNL     1      -2.051  14.757  20.845  0.00  0.00    +0.000 C 
ATOM     12  C   UNL     1      -0.881  14.145  20.529  0.00  0.00    +0.000 C 
ENDROOT
BRANCH  11  13
ATOM     13  C   UNL     1      -3.190  13.966  21.379  0.00  0.00    +0.000 A 
ATOM     14  C   UNL     1      -4.099  13.350  20.510  0.00  0.00    +0.000 A 
ATOM     15  C   UNL     1      -5.256  12.749  21.010  0.00  0.00    +0.000 A 
ATOM     16  C   UNL     1      -5.516  12.757  22.379  0.00  0.00    +0.000 A 
ATOM     17  C   UNL     1      -4.609  13.351  23.255  0.00  0.00    +0.000 A 
ATOM     18  C   UNL     1      -3.451  13.949  22.758  0.00  0.00    +0.000 A 
ENDBRANCH  11  13
BRANCH  12  19
ATOM     19  C   UNL     1      -0.732  12.687  20.701  0.00  0.00    +0.000 A 
ATOM     20  C   UNL     1      -0.400  12.214  21.968  0.00  0.00    +0.000 A 
ATOM     21  C   UNL     1      -0.208  10.857  22.174  0.00  0.00    +0.000 A 
ATOM     22  C   UNL     1      -0.372   9.939  21.126  0.00  0.00    +0.000 A 
ATOM     23  C   UNL     1      -0.727  10.408  19.861  0.00  0.00    +0.000 A 
ATOM     24  C   UNL     1      -0.905  11.781  19.646  0.00  0.00    +0.000 A 
BRANCH  22  25
ATOM     25  O   UNL     1      -0.204   8.574  21.255  0.00  0.00    +0.000 OA
BRANCH  25  26
ATOM     26  C   UNL     1       1.173   8.199  21.321  0.00  0.00    +0.000 C 
BRANCH  26  27
ATOM     27  C   UNL     1       1.827   7.985  19.955  0.00  0.00    +0.000 C 
BRANCH  27  28
ATOM     28  N   UNL     1       2.441   6.639  19.865  0.00  0.00    +0.000 NA
ATOM     29  C   UNL     1       1.658   5.608  20.570  0.00  0.00    +0.000 C 
ATOM     30  C   UNL     1       2.348   4.246  20.526  0.00  0.00    +0.000 C 
ATOM     31  C   UNL     1       2.625   3.817  19.095  0.00  0.00    +0.000 C 
ATOM     32  C   UNL     1       3.374   4.918  18.350  0.00  0.00    +0.000 C 
ATOM     33  C   UNL     1       2.654   6.264  18.461  0.00  0.00    +0.000 C 
ENDBRANCH  27  28
ENDBRANCH  26  27
ENDBRANCH  25  26
ENDBRANCH  22  25
ENDBRANCH  12  19
BRANCH   1  35
ATOM     34  C   UNL     1       4.374  16.845  18.157  0.00  0.00    +0.000 C 
ATOM     35  O   UNL     1       3.036  17.198  17.825  0.00  0.00    +0.000 OA
ENDBRANCH   1  35
TORSDOF 7
ENDMDL
MODEL 7
REMARK VINA RESULT:      -6.2      0.960      1.439
REMARK  Name = 
REMARK  10 active torsions:
REMARK  status: ('A' for Active; 'I' for Inactive)
REMARK    1  A    between atoms: C_1  and  O_2
REMARK    2  A    between atoms: O_2  and  C_3
REMARK    3  A    between atoms: C_10  and  C_11
REMARK    4  A    between atoms: C_10  and  C_12
REMARK    5  A    between atoms: C_13  and  C_14
REMARK    6  A    between atoms: C_20  and  C_21
REMARK    7  A    between atoms: C_24  and  O_25
REMARK    8  A    between atoms: O_25  and  C_26
REMARK    9  A    between atoms: C_26  and  C_27
REMARK   10  A    between atoms: C_27  and  N_28
REMARK                            x       y       z     vdW  Elec       q    Type
REMARK                         _______ _______ _______ _____ _____    ______ ____
ROOT
ATOM      1  C   UNL     1      -3.775  10.415  16.129  0.00  0.00    +0.000 A 
ATOM      2  C   UNL     1      -2.500  10.925  16.362  0.00  0.00    +0.000 A 
ATOM      3  C   UNL     1      -2.222  11.645  17.527  0.00  0.00    +0.000 A 
ATOM      4  C   UNL     1      -3.226  11.872  18.478  0.00  0.00    +0.000 A 
ATOM      5  C   UNL     1      -4.504  11.377  18.228  0.00  0.00    +0.000 A 
ATOM      6  C   UNL     1      -4.778  10.645  17.069  0.00  0.00    +0.000 A 
ATOM      7  O   UNL     1      -5.540  11.516  19.105  0.00  0.00    +0.000 OA
ATOM      8  C   UNL     1      -5.436  12.595  20.069  0.00  0.00    +0.000 C 
ATOM      9  C   UNL     1      -5.980  13.861  19.388  0.00  0.00    +0.000 C 
ATOM     10  C   UNL     1      -6.411  12.168  21.181  0.00  0.00    +0.000 C 
ATOM     11  C   UNL     1      -4.003  12.829  20.555  0.00  0.00    +0.000 C 
ATOM     12  C   UNL     1      -2.936  12.531  19.770  0.00  0.00    +0.000 C 
ENDROOT
BRANCH  11  13
ATOM     13  C   UNL     1      -3.799  13.396  21.913  0.00  0.00    +0.000 A 
ATOM     14  C   UNL     1      -3.651  12.553  23.021  0.00  0.00    +0.000 A 
ATOM     15  C   UNL     1      -3.625  13.083  24.313  0.00  0.00    +0.000 A 
ATOM     16  C   UNL     1      -3.748  14.457  24.509  0.00  0.00    +0.000 A 
ATOM     17  C   UNL     1      -3.877  15.308  23.412  0.00  0.00    +0.000 A 
ATOM     18  C   UNL     1      -3.899  14.780  22.121  0.00  0.00    +0.000 A 
ENDBRANCH  11  13
BRANCH  12  19
ATOM     19  C   UNL     1      -1.563  12.754  20.262  0.00  0.00    +0.000 A 
ATOM     20  C   UNL     1      -0.993  14.006  20.047  0.00  0.00    +0.000 A 
ATOM     21  C   UNL     1       0.308  14.255  20.453  0.00  0.00    +0.000 A 
ATOM     22  C   UNL     1       1.060  13.269  21.109  0.00  0.00    +0.000 A 
ATOM     23  C   UNL     1       0.483  12.021  21.347  0.00  0.00    +0.000 A 
ATOM     24  C   UNL     1      -0.827  11.761  20.922  0.00  0.00    +0.000 A 
BRANCH  22  25
ATOM     25  O   UNL     1       2.358  13.443  21.548  0.00  0.00    +0.000 OA
BRANCH  25  26
ATOM     26  C   UNL     1       2.799  14.796  21.417  0.00  0.00    +0.000 C 
BRANCH  26  27
ATOM     27  C   UNL     1       4.303  14.984  21.625  0.00  0.00    +0.000 C 
BRANCH  27  28
ATOM     28  N   UNL     1       4.979  15.311  20.347  0.00  0.00    +0.000 NA
ATOM     29  C   UNL     1       6.394  14.898  20.329  0.00  0.00    +0.000 C 
ATOM     30  C   UNL     1       7.086  15.312  19.032  0.00  0.00    +0.000 C 
ATOM     31  C   UNL     1       6.355  14.760  17.819  0.00  0.00    +0.000 C 
ATOM     32  C   UNL     1       4.877  15.131  17.881  0.00  0.00    +0.000 C 
ATOM     33  C   UNL     1       4.249  14.724  19.215  0.00  0.00    +0.000 C 
ENDBRANCH  27  28
ENDBRANCH  26  27
ENDBRANCH  25  26
ENDBRANCH  22  25
ENDBRANCH  12  19
BRANCH   1  35
ATOM     34  C   UNL     1      -3.050  10.069  13.898  0.00  0.00    +0.000 C 
ATOM     35  O   UNL     1      -3.911   9.704  14.970  0.00  0.00    +0.000 OA
ENDBRANCH   1  35
TORSDOF 7
ENDMDL
MODEL 8
REMARK VINA RESULT:      -6.2      0.760      1.390
REMARK  Name = 
REMARK  10 active torsions:
REMARK  status: ('A' for Active; 'I' for Inactive)
REMARK    1  A    between atoms: C_1  and  O_2
REMARK    2  A    between atoms: O_2  and  C_3
REMARK    3  A    between atoms: C_10  and  C_11
REMARK    4  A    between atoms: C_10  and  C_12
REMARK    5  A    between atoms: C_13  and  C_14
REMARK    6  A    between atoms: C_20  and  C_21
REMARK    7  A    between atoms: C_24  and  O_25
REMARK    8  A    between atoms: O_25  and  C_26
REMARK    9  A    between atoms: C_26  and  C_27
REMARK   10  A    between atoms: C_27  and  N_28
REMARK                            x       y       z     vdW  Elec       q    Type
REMARK                         _______ _______ _______ _____ _____    ______ ____
ROOT
ATOM      1  C   UNL     1      -3.316  10.214  16.172  0.00  0.00    +0.000 A 
ATOM      2  C   UNL     1      -2.127  10.869  16.489  0.00  0.00    +0.000 A 
ATOM      3  C   UNL     1      -2.034  11.661  17.637  0.00  0.00    +0.000 A 
ATOM      4  C   UNL     1      -3.139  11.815  18.486  0.00  0.00    +0.000 A 
ATOM      5  C   UNL     1      -4.330  11.175  18.150  0.00  0.00    +0.000 A 
ATOM      6  C   UNL     1      -4.419  10.371  17.009  0.00  0.00    +0.000 A 
ATOM      7  O   UNL     1      -5.451  11.236  18.926  0.00  0.00    +0.000 OA
ATOM      8  C   UNL     1      -5.549  12.357  19.841  0.00  0.00    +0.000 C 
ATOM      9  C   UNL     1      -6.158  13.529  19.053  0.00  0.00    +0.000 C 
ATOM     10  C   UNL     1      -6.572  11.873  20.884  0.00  0.00    +0.000 C 
ATOM     11  C   UNL     1      -4.199  12.766  20.436  0.00  0.00    +0.000 C 
ATOM     12  C   UNL     1      -3.039  12.553  19.763  0.00  0.00    +0.000 C 
ENDROOT
BRANCH  11  13
ATOM     13  C   UNL     1      -4.181  13.405  21.777  0.00  0.00    +0.000 A 
ATOM     14  C   UNL     1      -3.953  12.640  22.928  0.00  0.00    +0.000 A 
ATOM     15  C   UNL     1      -4.100  13.210  24.194  0.00  0.00    +0.000 A 
ATOM     16  C   UNL     1      -4.474  14.546  24.323  0.00  0.00    +0.000 A 
ATOM     17  C   UNL     1      -4.684  15.323  23.185  0.00  0.00    +0.000 A 
ATOM     18  C   UNL     1      -4.535  14.756  21.919  0.00  0.00    +0.000 A 
ENDBRANCH  11  13
BRANCH  12  19
ATOM     19  C   UNL     1      -1.748  12.944  20.361  0.00  0.00    +0.000 A 
ATOM     20  C   UNL     1      -1.351  14.273  20.234  0.00  0.00    +0.000 A 
ATOM     21  C   UNL     1      -0.128  14.683  20.742  0.00  0.00    +0.000 A 
ATOM     22  C   UNL     1       0.712  13.782  21.412  0.00  0.00    +0.000 A 
ATOM     23  C   UNL     1       0.306  12.456  21.561  0.00  0.00    +0.000 A 
ATOM     24  C   UNL     1      -0.921  12.034  21.033  0.00  0.00    +0.000 A 
BRANCH  22  25
ATOM     25  O   UNL     1       1.940  14.117  21.950  0.00  0.00    +0.000 OA
BRANCH  25  26
ATOM     26  C   UNL     1       2.954  14.248  20.951  0.00  0.00    +0.000 C 
BRANCH  26  27
ATOM     27  C   UNL     1       3.718  15.572  21.010  0.00  0.00    +0.000 C 
BRANCH  27  28
ATOM     28  N   UNL     1       3.164  16.547  20.040  0.00  0.00    +0.000 NA
ATOM     29  C   UNL     1       2.687  15.909  18.800  0.00  0.00    +0.000 C 
ATOM     30  C   UNL     1       2.191  16.941  17.789  0.00  0.00    +0.000 C 
ATOM     31  C   UNL     1       1.104  17.818  18.388  0.00  0.00    +0.000 C 
ATOM     32  C   UNL     1       1.579  18.419  19.707  0.00  0.00    +0.000 C 
ATOM     33  C   UNL     1       2.097  17.342  20.663  0.00  0.00    +0.000 C 
ENDBRANCH  27  28
ENDBRANCH  26  27
ENDBRANCH  25  26
ENDBRANCH  22  25
ENDBRANCH  12  19
BRANCH   1  35
ATOM     34  C   UNL     1      -3.854  10.007  13.872  0.00  0.00    +0.000 C 
ATOM     35  O   UNL     1      -3.270   9.447  15.043  0.00  0.00    +0.000 OA
ENDBRANCH   1  35
TORSDOF 7
ENDMDL
MODEL 9
REMARK VINA RESULT:      -6.2      4.435      7.689
REMARK  Name = 
REMARK  10 active torsions:
REMARK  status: ('A' for Active; 'I' for Inactive)
REMARK    1  A    between atoms: C_1  and  O_2
REMARK    2  A    between atoms: O_2  and  C_3
REMARK    3  A    between atoms: C_10  and  C_11
REMARK    4  A    between atoms: C_10  and  C_12
REMARK    5  A    between atoms: C_13  and  C_14
REMARK    6  A    between atoms: C_20  and  C_21
REMARK    7  A    between atoms: C_24  and  O_25
REMARK    8  A    between atoms: O_25  and  C_26
REMARK    9  A    between atoms: C_26  and  C_27
REMARK   10  A    between atoms: C_27  and  N_28
REMARK                            x       y       z     vdW  Elec       q    Type
REMARK                         _______ _______ _______ _____ _____    ______ ____
ROOT
ATOM      1  C   UNL     1      -4.681  14.047  22.714  0.00  0.00    +0.000 A 
ATOM      2  C   UNL     1      -4.387  12.843  22.077  0.00  0.00    +0.000 A 
ATOM      3  C   UNL     1      -3.180  12.674  21.395  0.00  0.00    +0.000 A 
ATOM      4  C   UNL     1      -2.245  13.717  21.334  0.00  0.00    +0.000 A 
ATOM      5  C   UNL     1      -2.555  14.925  21.955  0.00  0.00    +0.000 A 
ATOM      6  C   UNL     1      -3.758  15.090  22.649  0.00  0.00    +0.000 A 
ATOM      7  O   UNL     1      -1.701  15.989  21.981  0.00  0.00    +0.000 OA
ATOM      8  C   UNL     1      -0.681  16.028  20.951  0.00  0.00    +0.000 C 
ATOM      9  C   UNL     1      -1.310  16.698  19.719  0.00  0.00    +0.000 C 
ATOM     10  C   UNL     1       0.381  16.972  21.544  0.00  0.00    +0.000 C 
ATOM     11  C   UNL     1      -0.144  14.642  20.584  0.00  0.00    +0.000 C 
ATOM     12  C   UNL     1      -0.914  13.531  20.718  0.00  0.00    +0.000 C 
ENDROOT
BRANCH  11  13
ATOM     13  C   UNL     1       1.246  14.533  20.073  0.00  0.00    +0.000 A 
ATOM     14  C   UNL     1       2.311  14.292  20.951  0.00  0.00    +0.000 A 
ATOM     15  C   UNL     1       3.629  14.354  20.494  0.00  0.00    +0.000 A 
ATOM     16  C   UNL     1       3.896  14.656  19.160  0.00  0.00    +0.000 A 
ATOM     17  C   UNL     1       2.844  14.879  18.273  0.00  0.00    +0.000 A 
ATOM     18  C   UNL     1       1.526  14.814  18.726  0.00  0.00    +0.000 A 
ENDBRANCH  11  13
BRANCH  12  19
ATOM     19  C   UNL     1      -0.374  12.203  20.369  0.00  0.00    +0.000 A 
ATOM     20  C   UNL     1       0.177  11.438  21.394  0.00  0.00    +0.000 A 
ATOM     21  C   UNL     1       0.734  10.201  21.113  0.00  0.00    +0.000 A 
ATOM     22  C   UNL     1       0.728   9.687  19.808  0.00  0.00    +0.000 A 
ATOM     23  C   UNL     1       0.156  10.442  18.784  0.00  0.00    +0.000 A 
ATOM     24  C   UNL     1      -0.393  11.701  19.062  0.00  0.00    +0.000 A 
BRANCH  22  25
ATOM     25  O   UNL     1       1.257   8.462  19.452  0.00  0.00    +0.000 OA
BRANCH  25  26
ATOM     26  C   UNL     1       1.879   7.796  20.553  0.00  0.00    +0.000 C 
BRANCH  26  27
ATOM     27  C   UNL     1       1.783   6.271  20.494  0.00  0.00    +0.000 C 
BRANCH  27  28
ATOM     28  N   UNL     1       2.217   5.764  19.170  0.00  0.00    +0.000 NA
ATOM     29  C   UNL     1       3.676   5.850  18.977  0.00  0.00    +0.000 C 
ATOM     30  C   UNL     1       4.088   5.392  17.580  0.00  0.00    +0.000 C 
ATOM     31  C   UNL     1       3.597   3.982  17.297  0.00  0.00    +0.000 C 
ATOM     32  C   UNL     1       2.099   3.881  17.568  0.00  0.00    +0.000 C 
ATOM     33  C   UNL     1       1.743   4.388  18.967  0.00  0.00    +0.000 C 
ENDBRANCH  27  28
ENDBRANCH  26  27
ENDBRANCH  25  26
ENDBRANCH  22  25
ENDBRANCH  12  19
BRANCH   1  35
ATOM     34  C   UNL     1      -6.380  15.363  23.715  0.00  0.00    +0.000 C 
ATOM     35  O   UNL     1      -5.878  14.077  23.371  0.00  0.00    +0.000 OA
ENDBRANCH   1  35
TORSDOF 7
ENDMDL
