MODEL 1
REMARK VINA RESULT:      -7.6      0.000      0.000
REMARK  Name = 
REMARK  4 active torsions:
REMARK  status: ('A' for Active; 'I' for Inactive)
REMARK    1  A    between atoms: N_1  and  S_2
REMARK    2  A    between atoms: S_2  and  C_5
REMARK    3  A    between atoms: C_8  and  N_9
REMARK    4  A    between atoms: C_13  and  C_14
REMARK                            x       y       z     vdW  Elec       q    Type
REMARK                         _______ _______ _______ _____ _____    ______ ____
ROOT
ATOM      1  C   UNL     1       1.404   9.020  19.416  0.00  0.00    +0.000 A 
ATOM      2  C   UNL     1       1.765   8.701  18.108  0.00  0.00    +0.000 A 
ATOM      3  C   UNL     1       2.261   7.420  17.819  0.00  0.00    +0.000 A 
ATOM      4  C   UNL     1       2.431   6.447  18.823  0.00  0.00    +0.000 A 
ATOM      5  C   UNL     1       2.076   6.817  20.132  0.00  0.00    +0.000 A 
ATOM      6  C   UNL     1       1.550   8.075  20.432  0.00  0.00    +0.000 A 
ENDROOT
BRANCH   4   7
ATOM      7  N   UNL     1       2.923   5.164  18.517  0.00  0.00    +0.000 N 
ATOM      8  C   UNL     1       1.959   4.097  18.296  0.00  0.00    +0.000 C 
ATOM      9  C   UNL     1       2.632   3.302  17.173  0.00  0.00    +0.000 C 
ATOM     10  N   UNL     1       4.043   3.758  17.095  0.00  0.00    +0.000 NA
ATOM     11  C   UNL     1       4.097   4.819  17.868  0.00  0.00    +0.000 C 
BRANCH  11  12
ATOM     12  C   UNL     1       5.399   5.523  18.038  0.00  0.00    +0.000 A 
ATOM     13  C   UNL     1       5.733   6.575  17.176  0.00  0.00    +0.000 A 
ATOM     14  C   UNL     1       6.913   7.292  17.380  0.00  0.00    +0.000 A 
ATOM     15  C   UNL     1       7.752   6.946  18.435  0.00  0.00    +0.000 A 
ATOM     16  F   UNL     1       8.873   7.649  18.643  0.00  0.00    +0.000 F 
ATOM     17  C   UNL     1       7.445   5.885  19.280  0.00  0.00    +0.000 A 
ATOM     18  C   UNL     1       6.271   5.161  19.075  0.00  0.00    +0.000 A 
ENDBRANCH  11  12
ENDBRANCH   4   7
BRANCH   1  19
ATOM     19  S   UNL     1       0.773  10.621  19.808  0.00  0.00    +0.000 S 
ATOM     20  O   UNL     1      -0.660  10.606  19.659  0.00  0.00    +0.000 OA
ATOM     21  O   UNL     1       1.611  11.631  19.197  0.00  0.00    +0.000 OA
BRANCH  19  22
ATOM     22  N   UNL     1       1.080  10.742  21.455  0.00  0.00    +0.000 NA
ATOM     23  H   UNL     1       1.735  11.513  21.610  0.00  0.00    +0.000 HD
ATOM     24  H   UNL     1       1.422   9.847  21.809  0.00  0.00    +0.000 HD
ENDBRANCH  19  22
ENDBRANCH   1  19
TORSDOF 4
ENDMDL
MODEL 2
REMARK VINA RESULT:      -7.6      0.750      1.354
REMARK  Name = 
REMARK  4 active torsions:
REMARK  status: ('A' for Active; 'I' for Inactive)
REMARK    1  A    between atoms: N_1  and  S_2
REMARK    2  A    between atoms: S_2  and  C_5
REMARK    3  A    between atoms: C_8  and  N_9
REMARK    4  A    between atoms: C_13  and  C_14
REMARK                            x       y       z     vdW  Elec       q    Type
REMARK                         _______ _______ _______ _____ _____    ______ ____
ROOT
ATOM      1  C   UNL     1       1.470   8.979  19.632  0.00  0.00    +0.000 A 
ATOM      2  C   UNL     1       1.524   7.968  20.590  0.00  0.00    +0.000 A 
ATOM      3  C   UNL     1       1.994   6.695  20.229  0.00  0.00    +0.000 A 
ATOM      4  C   UNL     1       2.392   6.398  18.911  0.00  0.00    +0.000 A 
ATOM      5  C   UNL     1       2.302   7.440  17.971  0.00  0.00    +0.000 A 
ATOM      6  C   UNL     1       1.868   8.720  18.320  0.00  0.00    +0.000 A 
ENDROOT
BRANCH   4   7
ATOM      7  N   UNL     1       2.868   5.120  18.564  0.00  0.00    +0.000 N 
ATOM      8  C   UNL     1       1.891   4.068  18.325  0.00  0.00    +0.000 C 
ATOM      9  C   UNL     1       2.543   3.298  17.173  0.00  0.00    +0.000 C 
ATOM     10  N   UNL     1       3.958   3.743  17.091  0.00  0.00    +0.000 NA
ATOM     11  C   UNL     1       4.031   4.781  17.892  0.00  0.00    +0.000 C 
BRANCH  11  12
ATOM     12  C   UNL     1       5.341   5.468  18.066  0.00  0.00    +0.000 A 
ATOM     13  C   UNL     1       5.715   6.478  17.171  0.00  0.00    +0.000 A 
ATOM     14  C   UNL     1       6.904   7.182  17.375  0.00  0.00    +0.000 A 
ATOM     15  C   UNL     1       7.711   6.864  18.464  0.00  0.00    +0.000 A 
ATOM     16  F   UNL     1       8.839   7.554  18.672  0.00  0.00    +0.000 F 
ATOM     17  C   UNL     1       7.363   5.844  19.343  0.00  0.00    +0.000 A 
ATOM     18  C   UNL     1       6.181   5.133  19.138  0.00  0.00    +0.000 A 
ENDBRANCH  11  12
ENDBRANCH   4   7
BRANCH   1  19
ATOM     19  S   UNL     1       0.888  10.589  20.059  0.00  0.00    +0.000 S 
ATOM     20  O   UNL     1       1.278  11.514  19.024  0.00  0.00    +0.000 OA
ATOM     21  O   UNL     1       1.142  10.836  21.463  0.00  0.00    +0.000 OA
BRANCH  19  22
ATOM     22  N   UNL     1      -0.779  10.418  19.943  0.00  0.00    +0.000 NA
ATOM     23  H   UNL     1      -1.113   9.909  20.764  0.00  0.00    +0.000 HD
ATOM     24  H   UNL     1      -1.018   9.961  19.061  0.00  0.00    +0.000 HD
ENDBRANCH  19  22
ENDBRANCH   1  19
TORSDOF 4
ENDMDL
MODEL 3
REMARK VINA RESULT:      -7.5      2.016      2.547
REMARK  Name = 
REMARK  4 active torsions:
REMARK  status: ('A' for Active; 'I' for Inactive)
REMARK    1  A    between atoms: N_1  and  S_2
REMARK    2  A    between atoms: S_2  and  C_5
REMARK    3  A    between atoms: C_8  and  N_9
REMARK    4  A    between atoms: C_13  and  C_14
REMARK                            x       y       z     vdW  Elec       q    Type
REMARK                         _______ _______ _______ _____ _____    ______ ____
ROOT
ATOM      1  C   UNL     1       1.595   8.689  19.111  0.00  0.00    +0.000 A 
ATOM      2  C   UNL     1       2.213   7.889  18.150  0.00  0.00    +0.000 A 
ATOM      3  C   UNL     1       2.632   6.594  18.492  0.00  0.00    +0.000 A 
ATOM      4  C   UNL     1       2.471   6.083  19.794  0.00  0.00    +0.000 A 
ATOM      5  C   UNL     1       1.863   6.929  20.738  0.00  0.00    +0.000 A 
ATOM      6  C   UNL     1       1.410   8.207  20.406  0.00  0.00    +0.000 A 
ENDROOT
BRANCH   4   7
ATOM      7  N   UNL     1       2.890   4.779  20.122  0.00  0.00    +0.000 N 
ATOM      8  C   UNL     1       2.162   4.067  21.161  0.00  0.00    +0.000 C 
ATOM      9  C   UNL     1       2.173   2.635  20.620  0.00  0.00    +0.000 C 
ATOM     10  N   UNL     1       3.182   2.584  19.530  0.00  0.00    +0.000 NA
ATOM     11  C   UNL     1       3.505   3.838  19.312  0.00  0.00    +0.000 C 
BRANCH  11  12
ATOM     12  C   UNL     1       4.530   4.150  18.277  0.00  0.00    +0.000 A 
ATOM     13  C   UNL     1       5.770   4.671  18.669  0.00  0.00    +0.000 A 
ATOM     14  C   UNL     1       6.764   4.890  17.714  0.00  0.00    +0.000 A 
ATOM     15  C   UNL     1       6.510   4.595  16.379  0.00  0.00    +0.000 A 
ATOM     16  F   UNL     1       7.472   4.783  15.467  0.00  0.00    +0.000 F 
ATOM     17  C   UNL     1       5.273   4.103  15.974  0.00  0.00    +0.000 A 
ATOM     18  C   UNL     1       4.274   3.892  16.923  0.00  0.00    +0.000 A 
ENDBRANCH  11  12
ENDBRANCH   4   7
BRANCH   1  19
ATOM     19  S   UNL     1       1.053  10.319  18.707  0.00  0.00    +0.000 S 
ATOM     20  O   UNL     1       1.285  11.180  19.840  0.00  0.00    +0.000 OA
ATOM     21  O   UNL     1      -0.224  10.248  18.029  0.00  0.00    +0.000 OA
BRANCH  19  22
ATOM     22  N   UNL     1       2.148  10.786  17.522  0.00  0.00    +0.000 NA
ATOM     23  H   UNL     1       1.826  10.428  16.620  0.00  0.00    +0.000 HD
ATOM     24  H   UNL     1       3.085  10.464  17.772  0.00  0.00    +0.000 HD
ENDBRANCH  19  22
ENDBRANCH   1  19
TORSDOF 4
ENDMDL
MODEL 4
REMARK VINA RESULT:      -7.5      2.043      2.768
REMARK  Name = 
REMARK  4 active torsions:
REMARK  status: ('A' for Active; 'I' for Inactive)
REMARK    1  A    between atoms: N_1  and  S_2
REMARK    2  A    between atoms: S_2  and  C_5
REMARK    3  A    between atoms: C_8  and  N_9
REMARK    4  A    between atoms: C_13  and  C_14
REMARK                            x       y       z     vdW  Elec       q    Type
REMARK                         _______ _______ _______ _____ _____    ______ ____
ROOT
ATOM      1  C   UNL     1       1.613   8.633  19.134  0.00  0.00    +0.000 A 
ATOM      2  C   UNL     1       1.408   8.147  20.425  0.00  0.00    +0.000 A 
ATOM      3  C   UNL     1       1.827   6.848  20.751  0.00  0.00    +0.000 A 
ATOM      4  C   UNL     1       2.430   6.003  19.799  0.00  0.00    +0.000 A 
ATOM      5  C   UNL     1       2.598   6.524  18.503  0.00  0.00    +0.000 A 
ATOM      6  C   UNL     1       2.217   7.825  18.171  0.00  0.00    +0.000 A 
ENDROOT
BRANCH   4   7
ATOM      7  N   UNL     1       2.852   4.704  20.141  0.00  0.00    +0.000 N 
ATOM      8  C   UNL     1       2.121   4.000  21.184  0.00  0.00    +0.000 C 
ATOM      9  C   UNL     1       2.139   2.563  20.657  0.00  0.00    +0.000 C 
ATOM     10  N   UNL     1       3.153   2.504  19.573  0.00  0.00    +0.000 NA
ATOM     11  C   UNL     1       3.473   3.757  19.344  0.00  0.00    +0.000 C 
BRANCH  11  12
ATOM     12  C   UNL     1       4.503   4.062  18.312  0.00  0.00    +0.000 A 
ATOM     13  C   UNL     1       5.738   4.592  18.705  0.00  0.00    +0.000 A 
ATOM     14  C   UNL     1       6.737   4.804  17.753  0.00  0.00    +0.000 A 
ATOM     15  C   UNL     1       6.491   4.494  16.419  0.00  0.00    +0.000 A 
ATOM     16  F   UNL     1       7.457   4.677  15.510  0.00  0.00    +0.000 F 
ATOM     17  C   UNL     1       5.258   3.994  16.013  0.00  0.00    +0.000 A 
ATOM     18  C   UNL     1       4.254   3.789  16.959  0.00  0.00    +0.000 A 
ENDBRANCH  11  12
ENDBRANCH   4   7
BRANCH   1  19
ATOM     19  S   UNL     1       1.100  10.264  18.698  0.00  0.00    +0.000 S 
ATOM     20  O   UNL     1       1.407  11.155  19.788  0.00  0.00    +0.000 OA
ATOM     21  O   UNL     1      -0.208  10.208  18.079  0.00  0.00    +0.000 OA
BRANCH  19  22
ATOM     22  N   UNL     1       2.153  10.657  17.450  0.00  0.00    +0.000 NA
ATOM     23  H   UNL     1       1.611  10.785  16.592  0.00  0.00    +0.000 HD
ATOM     24  H   UNL     1       2.873   9.937  17.367  0.00  0.00    +0.000 HD
ENDBRANCH  19  22
ENDBRANCH   1  19
TORSDOF 4
ENDMDL
MODEL 5
REMARK VINA RESULT:      -7.4      1.953      2.431
REMARK  Name = 
REMARK  4 active torsions:
REMARK  status: ('A' for Active; 'I' for Inactive)
REMARK    1  A    between atoms: N_1  and  S_2
REMARK    2  A    between atoms: S_2  and  C_5
REMARK    3  A    between atoms: C_8  and  N_9
REMARK    4  A    between atoms: C_13  and  C_14
REMARK                            x       y       z     vdW  Elec       q    Type
REMARK                         _______ _______ _______ _____ _____    ______ ____
ROOT
ATOM      1  C   UNL     1       1.691   8.708  19.095  0.00  0.00    +0.000 A 
ATOM      2  C   UNL     1       2.243   7.874  18.124  0.00  0.00    +0.000 A 
ATOM      3  C   UNL     1       2.565   6.548  18.452  0.00  0.00    +0.000 A 
ATOM      4  C   UNL     1       2.371   6.036  19.750  0.00  0.00    +0.000 A 
ATOM      5  C   UNL     1       1.832   6.917  20.705  0.00  0.00    +0.000 A 
ATOM      6  C   UNL     1       1.476   8.229  20.387  0.00  0.00    +0.000 A 
ENDROOT
BRANCH   4   7
ATOM      7  N   UNL     1       2.691   4.702  20.062  0.00  0.00    +0.000 N 
ATOM      8  C   UNL     1       1.856   4.006  21.029  0.00  0.00    +0.000 C 
ATOM      9  C   UNL     1       1.820   2.591  20.445  0.00  0.00    +0.000 C 
ATOM     10  N   UNL     1       2.895   2.511  19.422  0.00  0.00    +0.000 NA
ATOM     11  C   UNL     1       3.303   3.749  19.265  0.00  0.00    +0.000 C 
BRANCH  11  12
ATOM     12  C   UNL     1       4.412   4.027  18.310  0.00  0.00    +0.000 A 
ATOM     13  C   UNL     1       4.219   3.795  16.942  0.00  0.00    +0.000 A 
ATOM     14  C   UNL     1       5.224   4.130  16.032  0.00  0.00    +0.000 A 
ATOM     15  C   UNL     1       6.413   4.683  16.497  0.00  0.00    +0.000 A 
ATOM     16  F   UNL     1       7.368   5.025  15.622  0.00  0.00    +0.000 F 
ATOM     17  C   UNL     1       6.627   4.892  17.856  0.00  0.00    +0.000 A 
ATOM     18  C   UNL     1       5.629   4.551  18.768  0.00  0.00    +0.000 A 
ENDBRANCH  11  12
ENDBRANCH   4   7
BRANCH   1  19
ATOM     19  S   UNL     1       1.273  10.379  18.710  0.00  0.00    +0.000 S 
ATOM     20  O   UNL     1       2.302  10.934  17.868  0.00  0.00    +0.000 OA
ATOM     21  O   UNL     1       0.799  11.044  19.906  0.00  0.00    +0.000 OA
BRANCH  19  22
ATOM     22  N   UNL     1      -0.090  10.201  17.744  0.00  0.00    +0.000 NA
ATOM     23  H   UNL     1      -0.403  11.128  17.447  0.00  0.00    +0.000 HD
ATOM     24  H   UNL     1      -0.805   9.677  18.250  0.00  0.00    +0.000 HD
ENDBRANCH  19  22
ENDBRANCH   1  19
TORSDOF 4
ENDMDL
MODEL 6
REMARK VINA RESULT:      -7.4      1.970      2.631
REMARK  Name = 
REMARK  4 active torsions:
REMARK  status: ('A' for Active; 'I' for Inactive)
REMARK    1  A    between atoms: N_1  and  S_2
REMARK    2  A    between atoms: S_2  and  C_5
REMARK    3  A    between atoms: C_8  and  N_9
REMARK    4  A    between atoms: C_13  and  C_14
REMARK                            x       y       z     vdW  Elec       q    Type
REMARK                         _______ _______ _______ _____ _____    ______ ____
ROOT
ATOM      1  C   UNL     1       1.717   8.689  19.118  0.00  0.00    +0.000 A 
ATOM      2  C   UNL     1       1.477   8.202  20.403  0.00  0.00    +0.000 A 
ATOM      3  C   UNL     1       1.818   6.877  20.716  0.00  0.00    +0.000 A 
ATOM      4  C   UNL     1       2.375   6.009  19.757  0.00  0.00    +0.000 A 
ATOM      5  C   UNL     1       2.580   6.533  18.469  0.00  0.00    +0.000 A 
ATOM      6  C   UNL     1       2.278   7.858  18.149  0.00  0.00    +0.000 A 
ENDROOT
BRANCH   4   7
ATOM      7  N   UNL     1       2.719   4.684  20.088  0.00  0.00    +0.000 N 
ATOM      8  C   UNL     1       1.899   3.989  21.069  0.00  0.00    +0.000 C 
ATOM      9  C   UNL     1       1.883   2.565  20.505  0.00  0.00    +0.000 C 
ATOM     10  N   UNL     1       2.954   2.487  19.478  0.00  0.00    +0.000 NA
ATOM     11  C   UNL     1       3.342   3.729  19.301  0.00  0.00    +0.000 C 
BRANCH  11  12
ATOM     12  C   UNL     1       4.442   4.012  18.336  0.00  0.00    +0.000 A 
ATOM     13  C   UNL     1       4.248   3.753  16.974  0.00  0.00    +0.000 A 
ATOM     14  C   UNL     1       5.243   4.091  16.054  0.00  0.00    +0.000 A 
ATOM     15  C   UNL     1       6.424   4.673  16.505  0.00  0.00    +0.000 A 
ATOM     16  F   UNL     1       7.368   5.018  15.620  0.00  0.00    +0.000 F 
ATOM     17  C   UNL     1       6.639   4.909  17.858  0.00  0.00    +0.000 A 
ATOM     18  C   UNL     1       5.651   4.565  18.781  0.00  0.00    +0.000 A 
ENDBRANCH  11  12
ENDBRANCH   4   7
BRANCH   1  19
ATOM     19  S   UNL     1       1.302  10.352  18.697  0.00  0.00    +0.000 S 
ATOM     20  O   UNL     1       2.336  10.888  17.848  0.00  0.00    +0.000 OA
ATOM     21  O   UNL     1       0.825  11.042  19.877  0.00  0.00    +0.000 OA
BRANCH  19  22
ATOM     22  N   UNL     1      -0.056  10.157  17.729  0.00  0.00    +0.000 NA
ATOM     23  H   UNL     1      -0.819  10.716  18.120  0.00  0.00    +0.000 HD
ATOM     24  H   UNL     1      -0.284   9.164  17.651  0.00  0.00    +0.000 HD
ENDBRANCH  19  22
ENDBRANCH   1  19
TORSDOF 4
ENDMDL
MODEL 7
REMARK VINA RESULT:      -7.3      0.363      1.096
REMARK  Name = 
REMARK  4 active torsions:
REMARK  status: ('A' for Active; 'I' for Inactive)
REMARK    1  A    between atoms: N_1  and  S_2
REMARK    2  A    between atoms: S_2  and  C_5
REMARK    3  A    between atoms: C_8  and  N_9
REMARK    4  A    between atoms: C_13  and  C_14
REMARK                            x       y       z     vdW  Elec       q    Type
REMARK                         _______ _______ _______ _____ _____    ______ ____
ROOT
ATOM      1  C   UNL     1       1.271   8.962  19.858  0.00  0.00    +0.000 A 
ATOM      2  C   UNL     1       1.680   8.783  18.537  0.00  0.00    +0.000 A 
ATOM      3  C   UNL     1       2.198   7.543  18.134  0.00  0.00    +0.000 A 
ATOM      4  C   UNL     1       2.342   6.471  19.036  0.00  0.00    +0.000 A 
ATOM      5  C   UNL     1       1.937   6.699  20.363  0.00  0.00    +0.000 A 
ATOM      6  C   UNL     1       1.390   7.917  20.773  0.00  0.00    +0.000 A 
ENDROOT
BRANCH   4   7
ATOM      7  N   UNL     1       2.856   5.230  18.616  0.00  0.00    +0.000 N 
ATOM      8  C   UNL     1       1.911   4.164  18.316  0.00  0.00    +0.000 C 
ATOM      9  C   UNL     1       2.583   3.482  17.122  0.00  0.00    +0.000 C 
ATOM     10  N   UNL     1       3.984   3.974  17.065  0.00  0.00    +0.000 NA
ATOM     11  C   UNL     1       4.027   4.966  17.925  0.00  0.00    +0.000 C 
BRANCH  11  12
ATOM     12  C   UNL     1       5.316   5.681  18.138  0.00  0.00    +0.000 A 
ATOM     13  C   UNL     1       6.172   5.269  19.167  0.00  0.00    +0.000 A 
ATOM     14  C   UNL     1       7.417   5.882  19.322  0.00  0.00    +0.000 A 
ATOM     15  C   UNL     1       7.791   6.904  18.455  0.00  0.00    +0.000 A 
ATOM     16  F   UNL     1       8.995   7.475  18.590  0.00  0.00    +0.000 F 
ATOM     17  C   UNL     1       6.938   7.340  17.447  0.00  0.00    +0.000 A 
ATOM     18  C   UNL     1       5.690   6.738  17.295  0.00  0.00    +0.000 A 
ENDBRANCH  11  12
ENDBRANCH   4   7
BRANCH   1  19
ATOM     19  S   UNL     1       0.613  10.510  20.391  0.00  0.00    +0.000 S 
ATOM     20  O   UNL     1      -0.812  10.510  20.170  0.00  0.00    +0.000 OA
ATOM     21  O   UNL     1       1.474  11.581  19.937  0.00  0.00    +0.000 OA
BRANCH  19  22
ATOM     22  N   UNL     1       0.837  10.448  22.055  0.00  0.00    +0.000 NA
ATOM     23  H   UNL     1       1.386   9.615  22.280  0.00  0.00    +0.000 HD
ATOM     24  H   UNL     1      -0.068  10.474  22.526  0.00  0.00    +0.000 HD
ENDBRANCH  19  22
ENDBRANCH   1  19
TORSDOF 4
ENDMDL
MODEL 8
REMARK VINA RESULT:      -7.3      0.190      1.469
REMARK  Name = 
REMARK  4 active torsions:
REMARK  status: ('A' for Active; 'I' for Inactive)
REMARK    1  A    between atoms: N_1  and  S_2
REMARK    2  A    between atoms: S_2  and  C_5
REMARK    3  A    between atoms: C_8  and  N_9
REMARK    4  A    between atoms: C_13  and  C_14
REMARK                            x       y       z     vdW  Elec       q    Type
REMARK                         _______ _______ _______ _____ _____    ______ ____
ROOT
ATOM      1  C   UNL     1       1.327   9.180  19.487  0.00  0.00    +0.000 A 
ATOM      2  C   UNL     1       1.444   8.214  20.484  0.00  0.00    +0.000 A 
ATOM      3  C   UNL     1       1.937   6.940  20.161  0.00  0.00    +0.000 A 
ATOM      4  C   UNL     1       2.296   6.597  18.843  0.00  0.00    +0.000 A 
ATOM      5  C   UNL     1       2.143   7.594  17.863  0.00  0.00    +0.000 A 
ATOM      6  C   UNL     1       1.685   8.875  18.173  0.00  0.00    +0.000 A 
ENDROOT
BRANCH   4   7
ATOM      7  N   UNL     1       2.796   5.318  18.534  0.00  0.00    +0.000 N 
ATOM      8  C   UNL     1       1.839   4.255  18.267  0.00  0.00    +0.000 C 
ATOM      9  C   UNL     1       2.545   3.476  17.154  0.00  0.00    +0.000 C 
ATOM     10  N   UNL     1       3.959   3.931  17.128  0.00  0.00    +0.000 NA
ATOM     11  C   UNL     1       3.990   4.980  17.917  0.00  0.00    +0.000 C 
BRANCH  11  12
ATOM     12  C   UNL     1       5.286   5.679  18.139  0.00  0.00    +0.000 A 
ATOM     13  C   UNL     1       6.118   5.275  19.191  0.00  0.00    +0.000 A 
ATOM     14  C   UNL     1       7.370   5.871  19.355  0.00  0.00    +0.000 A 
ATOM     15  C   UNL     1       7.774   6.870  18.475  0.00  0.00    +0.000 A 
ATOM     16  F   UNL     1       8.985   7.425  18.620  0.00  0.00    +0.000 F 
ATOM     17  C   UNL     1       6.946   7.299  17.445  0.00  0.00    +0.000 A 
ATOM     18  C   UNL     1       5.691   6.713  17.282  0.00  0.00    +0.000 A 
ENDBRANCH  11  12
ENDBRANCH   4   7
BRANCH   1  19
ATOM     19  S   UNL     1       0.714  10.791  19.865  0.00  0.00    +0.000 S 
ATOM     20  O   UNL     1      -0.720  10.788  19.723  0.00  0.00    +0.000 OA
ATOM     21  O   UNL     1       1.559  11.786  19.239  0.00  0.00    +0.000 OA
BRANCH  19  22
ATOM     22  N   UNL     1       1.031  10.926  21.509  0.00  0.00    +0.000 NA
ATOM     23  H   UNL     1       0.259  11.430  21.951  0.00  0.00    +0.000 HD
ATOM     24  H   UNL     1       1.938  11.375  21.650  0.00  0.00    +0.000 HD
ENDBRANCH  19  22
ENDBRANCH   1  19
TORSDOF 4
ENDMDL
MODEL 9
REMARK VINA RESULT:      -7.1      1.528      2.078
REMARK  Name = 
REMARK  4 active torsions:
REMARK  status: ('A' for Active; 'I' for Inactive)
REMARK    1  A    between atoms: N_1  and  S_2
REMARK    2  A    between atoms: S_2  and  C_5
REMARK    3  A    between atoms: C_8  and  N_9
REMARK    4  A    between atoms: C_13  and  C_14
REMARK                            x       y       z     vdW  Elec       q    Type
REMARK                         _______ _______ _______ _____ _____    ______ ____
ROOT
ATOM      1  C   UNL     1       1.364   9.392  19.369  0.00  0.00    +0.000 A 
ATOM      2  C   UNL     1       1.144   8.782  20.603  0.00  0.00    +0.000 A 
ATOM      3  C   UNL     1       1.530   7.446  20.794  0.00  0.00    +0.000 A 
ATOM      4  C   UNL     1       2.114   6.688  19.760  0.00  0.00    +0.000 A 
ATOM      5  C   UNL     1       2.298   7.335  18.525  0.00  0.00    +0.000 A 
ATOM      6  C   UNL     1       1.950   8.672  18.328  0.00  0.00    +0.000 A 
ENDROOT
BRANCH   4   7
ATOM      7  N   UNL     1       2.502   5.351  19.968  0.00  0.00    +0.000 N 
ATOM      8  C   UNL     1       1.588   4.477  20.686  0.00  0.00    +0.000 C 
ATOM      9  C   UNL     1       1.782   3.151  19.945  0.00  0.00    +0.000 C 
ATOM     10  N   UNL     1       3.014   3.282  19.124  0.00  0.00    +0.000 NA
ATOM     11  C   UNL     1       3.324   4.557  19.185  0.00  0.00    +0.000 C 
BRANCH  11  12
ATOM     12  C   UNL     1       4.544   5.037  18.478  0.00  0.00    +0.000 A 
ATOM     13  C   UNL     1       4.506   5.237  17.093  0.00  0.00    +0.000 A 
ATOM     14  C   UNL     1       5.619   5.764  16.435  0.00  0.00    +0.000 A 
ATOM     15  C   UNL     1       6.762   6.076  17.165  0.00  0.00    +0.000 A 
ATOM     16  F   UNL     1       7.821   6.603  16.538  0.00  0.00    +0.000 F 
ATOM     17  C   UNL     1       6.822   5.856  18.537  0.00  0.00    +0.000 A 
ATOM     18  C   UNL     1       5.715   5.321  19.196  0.00  0.00    +0.000 A 
ENDBRANCH  11  12
ENDBRANCH   4   7
BRANCH   1  19
ATOM     19  S   UNL     1       0.893  11.072  19.102  0.00  0.00    +0.000 S 
ATOM     20  O   UNL     1       1.181  11.830  20.293  0.00  0.00    +0.000 OA
ATOM     21  O   UNL     1      -0.396  11.112  18.444  0.00  0.00    +0.000 OA
BRANCH  19  22
ATOM     22  N   UNL     1       1.991  11.579  17.936  0.00  0.00    +0.000 NA
ATOM     23  H   UNL     1       1.954  10.928  17.148  0.00  0.00    +0.000 HD
ATOM     24  H   UNL     1       2.921  11.658  18.350  0.00  0.00    +0.000 HD
ENDBRANCH  19  22
ENDBRANCH   1  19
TORSDOF 4
ENDMDL
