MODEL 1
REMARK VINA RESULT:      -8.6      0.000      0.000
REMARK  Name = 
REMARK  4 active torsions:
REMARK  status: ('A' for Active; 'I' for Inactive)
REMARK    1  A    between atoms: N_1  and  S_2
REMARK    2  A    between atoms: S_2  and  C_5
REMARK    3  A    between atoms: C_8  and  C_9
REMARK    4  A    between atoms: C_12  and  C_13
REMARK                            x       y       z     vdW  Elec       q    Type
REMARK                         _______ _______ _______ _____ _____    ______ ____
ROOT
ATOM      1  C   UNL     1       2.534   7.539  18.731  0.00  0.00    +0.000 A 
ATOM      2  C   UNL     1       1.961   8.689  18.172  0.00  0.00    +0.000 A 
ATOM      3  C   UNL     1       1.116   9.522  18.912  0.00  0.00    +0.000 A 
ATOM      4  C   UNL     1       0.767   9.228  20.239  0.00  0.00    +0.000 A 
ATOM      5  C   UNL     1       1.291   8.046  20.782  0.00  0.00    +0.000 A 
ATOM      6  C   UNL     1       2.165   7.225  20.050  0.00  0.00    +0.000 A 
ENDROOT
BRANCH   4   7
ATOM      7  C   UNL     1      -0.079  10.158  21.026  0.00  0.00    +0.000 A 
ATOM      8  C   UNL     1      -0.303   9.949  22.403  0.00  0.00    +0.000 A 
ATOM      9  C   UNL     1      -1.167  10.768  23.136  0.00  0.00    +0.000 A 
ATOM     10  C   UNL     1      -1.807  11.830  22.508  0.00  0.00    +0.000 A 
ATOM     11 BR   UNL     1      -2.992  12.925  23.491  0.00  0.00    +0.000 Br
ATOM     12  C   UNL     1      -1.586  12.081  21.159  0.00  0.00    +0.000 A 
ATOM     13  C   UNL     1      -0.733  11.247  20.426  0.00  0.00    +0.000 A 
ENDBRANCH   4   7
BRANCH   1  17
ATOM     14  C   UNL     1       5.492   5.273  16.588  0.00  0.00    +0.000 A 
ATOM     15  C   UNL     1       5.307   6.621  16.296  0.00  0.00    +0.000 A 
ATOM     16  C   UNL     1       4.337   7.341  16.993  0.00  0.00    +0.000 A 
ATOM     17  C   UNL     1       3.521   6.737  17.975  0.00  0.00    +0.000 A 
ATOM     18  C   UNL     1       3.713   5.364  18.219  0.00  0.00    +0.000 A 
ATOM     19  C   UNL     1       4.694   4.635  17.537  0.00  0.00    +0.000 A 
BRANCH  14  20
ATOM     20  S   UNL     1       6.818   4.397  15.821  0.00  0.00    +0.000 S 
ATOM     21  O   UNL     1       6.266   3.345  14.996  0.00  0.00    +0.000 OA
ATOM     22  O   UNL     1       7.865   4.167  16.785  0.00  0.00    +0.000 OA
BRANCH  20  23
ATOM     23  N   UNL     1       7.424   5.562  14.772  0.00  0.00    +0.000 NA
ATOM     24  H   UNL     1       8.085   6.163  15.263  0.00  0.00    +0.000 HD
ATOM     25  H   UNL     1       6.660   6.063  14.316  0.00  0.00    +0.000 HD
ENDBRANCH  20  23
ENDBRANCH  14  20
ENDBRANCH   1  17
TORSDOF 4
ENDMDL
MODEL 2
REMARK VINA RESULT:      -8.6      0.757      1.369
REMARK  Name = 
REMARK  4 active torsions:
REMARK  status: ('A' for Active; 'I' for Inactive)
REMARK    1  A    between atoms: N_1  and  S_2
REMARK    2  A    between atoms: S_2  and  C_5
REMARK    3  A    between atoms: C_8  and  C_9
REMARK    4  A    between atoms: C_12  and  C_13
REMARK                            x       y       z     vdW  Elec       q    Type
REMARK                         _______ _______ _______ _____ _____    ______ ____
ROOT
ATOM      1  C   UNL     1       2.473   7.603  18.684  0.00  0.00    +0.000 A 
ATOM      2  C   UNL     1       1.860   8.733  18.127  0.00  0.00    +0.000 A 
ATOM      3  C   UNL     1       0.996   9.541  18.871  0.00  0.00    +0.000 A 
ATOM      4  C   UNL     1       0.664   9.239  20.200  0.00  0.00    +0.000 A 
ATOM      5  C   UNL     1       1.228   8.075  20.742  0.00  0.00    +0.000 A 
ATOM      6  C   UNL     1       2.122   7.280  20.006  0.00  0.00    +0.000 A 
ENDROOT
BRANCH   4   7
ATOM      7  C   UNL     1      -0.205  10.144  20.991  0.00  0.00    +0.000 A 
ATOM      8  C   UNL     1      -0.839  11.253  20.391  0.00  0.00    +0.000 A 
ATOM      9  C   UNL     1      -1.589  12.161  21.143  0.00  0.00    +0.000 A 
ATOM     10  C   UNL     1      -1.741  11.964  22.511  0.00  0.00    +0.000 A 
ATOM     11 BR   UNL     1      -2.736  13.202  23.533  0.00  0.00    +0.000 Br
ATOM     12  C   UNL     1      -1.154  10.865  23.128  0.00  0.00    +0.000 A 
ATOM     13  C   UNL     1      -0.388   9.969  22.373  0.00  0.00    +0.000 A 
ENDBRANCH   4   7
BRANCH   1  17
ATOM     14  C   UNL     1       5.483   5.433  16.516  0.00  0.00    +0.000 A 
ATOM     15  C   UNL     1       5.167   6.736  16.143  0.00  0.00    +0.000 A 
ATOM     16  C   UNL     1       4.181   7.424  16.851  0.00  0.00    +0.000 A 
ATOM     17  C   UNL     1       3.479   6.830  17.922  0.00  0.00    +0.000 A 
ATOM     18  C   UNL     1       3.802   5.499  18.247  0.00  0.00    +0.000 A 
ATOM     19  C   UNL     1       4.800   4.804  17.555  0.00  0.00    +0.000 A 
BRANCH  14  20
ATOM     20  S   UNL     1       6.832   4.612  15.726  0.00  0.00    +0.000 S 
ATOM     21  O   UNL     1       7.584   5.581  14.960  0.00  0.00    +0.000 OA
ATOM     22  O   UNL     1       6.377   3.360  15.173  0.00  0.00    +0.000 OA
BRANCH  20  23
ATOM     23  N   UNL     1       7.787   4.196  17.046  0.00  0.00    +0.000 NA
ATOM     24  H   UNL     1       8.072   5.036  17.548  0.00  0.00    +0.000 HD
ATOM     25  H   UNL     1       8.561   3.600  16.751  0.00  0.00    +0.000 HD
ENDBRANCH  20  23
ENDBRANCH  14  20
ENDBRANCH   1  17
TORSDOF 4
ENDMDL
MODEL 3
REMARK VINA RESULT:      -8.4      0.766      1.004
REMARK  Name = 
REMARK  4 active torsions:
REMARK  status: ('A' for Active; 'I' for Inactive)
REMARK    1  A    between atoms: N_1  and  S_2
REMARK    2  A    between atoms: S_2  and  C_5
REMARK    3  A    between atoms: C_8  and  C_9
REMARK    4  A    between atoms: C_12  and  C_13
REMARK                            x       y       z     vdW  Elec       q    Type
REMARK                         _______ _______ _______ _____ _____    ______ ____
ROOT
ATOM      1  C   UNL     1       2.476   7.660  18.663  0.00  0.00    +0.000 A 
ATOM      2  C   UNL     1       1.844   8.784  18.114  0.00  0.00    +0.000 A 
ATOM      3  C   UNL     1       0.994   9.593  18.874  0.00  0.00    +0.000 A 
ATOM      4  C   UNL     1       0.696   9.298  20.213  0.00  0.00    +0.000 A 
ATOM      5  C   UNL     1       1.278   8.139  20.748  0.00  0.00    +0.000 A 
ATOM      6  C   UNL     1       2.158   7.344  19.996  0.00  0.00    +0.000 A 
ENDROOT
BRANCH   4   7
ATOM      7  C   UNL     1      -0.159  10.203  21.019  0.00  0.00    +0.000 A 
ATOM      8  C   UNL     1      -0.336   9.996  22.403  0.00  0.00    +0.000 A 
ATOM      9  C   UNL     1      -1.206  10.791  23.155  0.00  0.00    +0.000 A 
ATOM     10  C   UNL     1      -1.899  11.826  22.540  0.00  0.00    +0.000 A 
ATOM     11 BR   UNL     1      -3.093  12.886  23.551  0.00  0.00    +0.000 Br
ATOM     12  C   UNL     1      -1.726  12.076  21.184  0.00  0.00    +0.000 A 
ATOM     13  C   UNL     1      -0.866  11.266  20.432  0.00  0.00    +0.000 A 
ENDBRANCH   4   7
BRANCH   1  17
ATOM     14  C   UNL     1       5.444   5.456  16.472  0.00  0.00    +0.000 A 
ATOM     15  C   UNL     1       5.442   6.847  16.427  0.00  0.00    +0.000 A 
ATOM     16  C   UNL     1       4.466   7.549  17.136  0.00  0.00    +0.000 A 
ATOM     17  C   UNL     1       3.467   6.888  17.883  0.00  0.00    +0.000 A 
ATOM     18  C   UNL     1       3.480   5.480  17.876  0.00  0.00    +0.000 A 
ATOM     19  C   UNL     1       4.463   4.766  17.182  0.00  0.00    +0.000 A 
BRANCH  14  20
ATOM     20  S   UNL     1       6.763   4.569  15.704  0.00  0.00    +0.000 S 
ATOM     21  O   UNL     1       7.824   4.383  16.669  0.00  0.00    +0.000 OA
ATOM     22  O   UNL     1       6.992   5.097  14.381  0.00  0.00    +0.000 OA
BRANCH  20  23
ATOM     23  N   UNL     1       6.057   3.062  15.467  0.00  0.00    +0.000 NA
ATOM     24  H   UNL     1       5.758   2.673  16.361  0.00  0.00    +0.000 HD
ATOM     25  H   UNL     1       6.681   2.456  14.934  0.00  0.00    +0.000 HD
ENDBRANCH  20  23
ENDBRANCH  14  20
ENDBRANCH   1  17
TORSDOF 4
ENDMDL
MODEL 4
REMARK VINA RESULT:      -8.1      0.898      1.524
REMARK  Name = 
REMARK  4 active torsions:
REMARK  status: ('A' for Active; 'I' for Inactive)
REMARK    1  A    between atoms: N_1  and  S_2
REMARK    2  A    between atoms: S_2  and  C_5
REMARK    3  A    between atoms: C_8  and  C_9
REMARK    4  A    between atoms: C_12  and  C_13
REMARK                            x       y       z     vdW  Elec       q    Type
REMARK                         _______ _______ _______ _____ _____    ______ ____
ROOT
ATOM      1  C   UNL     1       2.383   7.660  18.666  0.00  0.00    +0.000 A 
ATOM      2  C   UNL     1       1.741   8.779  18.117  0.00  0.00    +0.000 A 
ATOM      3  C   UNL     1       0.913   9.601  18.886  0.00  0.00    +0.000 A 
ATOM      4  C   UNL     1       0.647   9.326  20.236  0.00  0.00    +0.000 A 
ATOM      5  C   UNL     1       1.239   8.173  20.773  0.00  0.00    +0.000 A 
ATOM      6  C   UNL     1       2.098   7.364  20.010  0.00  0.00    +0.000 A 
ENDROOT
BRANCH   4   7
ATOM      7  C   UNL     1      -0.184  10.246  21.050  0.00  0.00    +0.000 A 
ATOM      8  C   UNL     1      -0.353  10.040  22.435  0.00  0.00    +0.000 A 
ATOM      9  C   UNL     1      -1.203  10.849  23.196  0.00  0.00    +0.000 A 
ATOM     10  C   UNL     1      -1.882  11.897  22.588  0.00  0.00    +0.000 A 
ATOM     11 BR   UNL     1      -3.048  12.978  23.609  0.00  0.00    +0.000 Br
ATOM     12  C   UNL     1      -1.715  12.146  21.230  0.00  0.00    +0.000 A 
ATOM     13  C   UNL     1      -0.876  11.322  20.470  0.00  0.00    +0.000 A 
ENDBRANCH   4   7
BRANCH   1  17
ATOM     14  C   UNL     1       5.105   5.338  16.285  0.00  0.00    +0.000 A 
ATOM     15  C   UNL     1       4.149   4.696  17.066  0.00  0.00    +0.000 A 
ATOM     16  C   UNL     1       3.278   5.463  17.841  0.00  0.00    +0.000 A 
ATOM     17  C   UNL     1       3.352   6.873  17.872  0.00  0.00    +0.000 A 
ATOM     18  C   UNL     1       4.354   7.485  17.096  0.00  0.00    +0.000 A 
ATOM     19  C   UNL     1       5.223   6.727  16.302  0.00  0.00    +0.000 A 
BRANCH  14  20
ATOM     20  S   UNL     1       6.106   4.384  15.188  0.00  0.00    +0.000 S 
ATOM     21  O   UNL     1       7.494   4.723  15.408  0.00  0.00    +0.000 OA
ATOM     22  O   UNL     1       5.503   4.368  13.877  0.00  0.00    +0.000 OA
BRANCH  20  23
ATOM     23  N   UNL     1       5.886   2.834  15.800  0.00  0.00    +0.000 NA
ATOM     24  H   UNL     1       6.359   2.154  15.206  0.00  0.00    +0.000 HD
ATOM     25  H   UNL     1       4.893   2.646  15.944  0.00  0.00    +0.000 HD
ENDBRANCH  20  23
ENDBRANCH  14  20
ENDBRANCH   1  17
TORSDOF 4
ENDMDL
MODEL 5
REMARK VINA RESULT:      -8.1      7.227      9.840
REMARK  Name = 
REMARK  4 active torsions:
REMARK  status: ('A' for Active; 'I' for Inactive)
REMARK    1  A    between atoms: N_1  and  S_2
REMARK    2  A    between atoms: S_2  and  C_5
REMARK    3  A    between atoms: C_8  and  C_9
REMARK    4  A    between atoms: C_12  and  C_13
REMARK                            x       y       z     vdW  Elec       q    Type
REMARK                         _______ _______ _______ _____ _____    ______ ____
ROOT
ATOM      1  C   UNL     1       0.760   9.182  20.089  0.00  0.00    +0.000 A 
ATOM      2  C   UNL     1       1.328   8.025  20.639  0.00  0.00    +0.000 A 
ATOM      3  C   UNL     1       2.180   7.202  19.897  0.00  0.00    +0.000 A 
ATOM      4  C   UNL     1       2.478   7.468  18.552  0.00  0.00    +0.000 A 
ATOM      5  C   UNL     1       1.864   8.593  17.981  0.00  0.00    +0.000 A 
ATOM      6  C   UNL     1       1.033   9.438  18.734  0.00  0.00    +0.000 A 
ENDROOT
BRANCH   4   7
ATOM      7  C   UNL     1       3.434   6.618  17.802  0.00  0.00    +0.000 A 
ATOM      8  C   UNL     1       4.457   7.190  17.017  0.00  0.00    +0.000 A 
ATOM      9  C   UNL     1       5.309   6.402  16.238  0.00  0.00    +0.000 A 
ATOM     10  C   UNL     1       5.169   5.019  16.249  0.00  0.00    +0.000 A 
ATOM     11 BR   UNL     1       6.305   3.953  15.180  0.00  0.00    +0.000 Br
ATOM     12  C   UNL     1       4.191   4.421  17.035  0.00  0.00    +0.000 A 
ATOM     13  C   UNL     1       3.329   5.217  17.800  0.00  0.00    +0.000 A 
ENDBRANCH   4   7
BRANCH   1  17
ATOM     14  C   UNL     1      -1.665  11.832  22.449  0.00  0.00    +0.000 A 
ATOM     15  C   UNL     1      -1.474  12.091  21.095  0.00  0.00    +0.000 A 
ATOM     16  C   UNL     1      -0.676  11.227  20.344  0.00  0.00    +0.000 A 
ATOM     17  C   UNL     1      -0.039  10.107  20.922  0.00  0.00    +0.000 A 
ATOM     18  C   UNL     1      -0.228   9.897  22.301  0.00  0.00    +0.000 A 
ATOM     19  C   UNL     1      -1.038  10.748  23.061  0.00  0.00    +0.000 A 
BRANCH  14  20
ATOM     20  S   UNL     1      -2.793  12.831  23.369  0.00  0.00    +0.000 S 
ATOM     21  O   UNL     1      -2.053  13.882  24.031  0.00  0.00    +0.000 OA
ATOM     22  O   UNL     1      -3.735  11.984  24.058  0.00  0.00    +0.000 OA
BRANCH  20  23
ATOM     23  N   UNL     1      -3.670  13.564  22.136  0.00  0.00    +0.000 NA
ATOM     24  H   UNL     1      -4.572  13.880  22.490  0.00  0.00    +0.000 HD
ATOM     25  H   UNL     1      -3.730  12.945  21.326  0.00  0.00    +0.000 HD
ENDBRANCH  20  23
ENDBRANCH  14  20
ENDBRANCH   1  17
TORSDOF 4
ENDMDL
MODEL 6
REMARK VINA RESULT:      -8.1      0.335      1.420
REMARK  Name = 
REMARK  4 active torsions:
REMARK  status: ('A' for Active; 'I' for Inactive)
REMARK    1  A    between atoms: N_1  and  S_2
REMARK    2  A    between atoms: S_2  and  C_5
REMARK    3  A    between atoms: C_8  and  C_9
REMARK    4  A    between atoms: C_12  and  C_13
REMARK                            x       y       z     vdW  Elec       q    Type
REMARK                         _______ _______ _______ _____ _____    ______ ____
ROOT
ATOM      1  C   UNL     1       2.618   7.707  18.792  0.00  0.00    +0.000 A 
ATOM      2  C   UNL     1       2.024   8.832  18.204  0.00  0.00    +0.000 A 
ATOM      3  C   UNL     1       1.097   9.617  18.895  0.00  0.00    +0.000 A 
ATOM      4  C   UNL     1       0.681   9.295  20.196  0.00  0.00    +0.000 A 
ATOM      5  C   UNL     1       1.228   8.135  20.764  0.00  0.00    +0.000 A 
ATOM      6  C   UNL     1       2.184   7.364  20.084  0.00  0.00    +0.000 A 
ENDROOT
BRANCH   4   7
ATOM      7  C   UNL     1      -0.257  10.176  20.934  0.00  0.00    +0.000 A 
ATOM      8  C   UNL     1      -0.985  11.185  20.268  0.00  0.00    +0.000 A 
ATOM      9  C   UNL     1      -1.805  12.076  20.966  0.00  0.00    +0.000 A 
ATOM     10  C   UNL     1      -1.932  11.960  22.345  0.00  0.00    +0.000 A 
ATOM     11 BR   UNL     1      -3.022  13.178  23.293  0.00  0.00    +0.000 Br
ATOM     12  C   UNL     1      -1.251  10.959  23.028  0.00  0.00    +0.000 A 
ATOM     13  C   UNL     1      -0.417  10.080  22.326  0.00  0.00    +0.000 A 
ENDBRANCH   4   7
BRANCH   1  17
ATOM     14  C   UNL     1       5.648   5.440  16.754  0.00  0.00    +0.000 A 
ATOM     15  C   UNL     1       5.258   5.075  18.039  0.00  0.00    +0.000 A 
ATOM     16  C   UNL     1       4.280   5.826  18.692  0.00  0.00    +0.000 A 
ATOM     17  C   UNL     1       3.688   6.960  18.094  0.00  0.00    +0.000 A 
ATOM     18  C   UNL     1       4.133   7.319  16.808  0.00  0.00    +0.000 A 
ATOM     19  C   UNL     1       5.102   6.564  16.137  0.00  0.00    +0.000 A 
BRANCH  14  20
ATOM     20  S   UNL     1       6.771   4.407  15.866  0.00  0.00    +0.000 S 
ATOM     21  O   UNL     1       6.019   3.374  15.190  0.00  0.00    +0.000 OA
ATOM     22  O   UNL     1       7.921   4.125  16.690  0.00  0.00    +0.000 OA
BRANCH  20  23
ATOM     23  N   UNL     1       7.321   5.459  14.676  0.00  0.00    +0.000 NA
ATOM     24  H   UNL     1       6.550   6.032  14.334  0.00  0.00    +0.000 HD
ATOM     25  H   UNL     1       7.818   4.945  13.948  0.00  0.00    +0.000 HD
ENDBRANCH  20  23
ENDBRANCH  14  20
ENDBRANCH   1  17
TORSDOF 4
ENDMDL
MODEL 7
REMARK VINA RESULT:      -8.0      7.283      9.796
REMARK  Name = 
REMARK  4 active torsions:
REMARK  status: ('A' for Active; 'I' for Inactive)
REMARK    1  A    between atoms: N_1  and  S_2
REMARK    2  A    between atoms: S_2  and  C_5
REMARK    3  A    between atoms: C_8  and  C_9
REMARK    4  A    between atoms: C_12  and  C_13
REMARK                            x       y       z     vdW  Elec       q    Type
REMARK                         _______ _______ _______ _____ _____    ______ ____
ROOT
ATOM      1  C   UNL     1       0.824   9.377  20.306  0.00  0.00    +0.000 A 
ATOM      2  C   UNL     1       1.204   9.703  18.997  0.00  0.00    +0.000 A 
ATOM      3  C   UNL     1       1.994   8.845  18.226  0.00  0.00    +0.000 A 
ATOM      4  C   UNL     1       2.481   7.632  18.736  0.00  0.00    +0.000 A 
ATOM      5  C   UNL     1       2.153   7.331  20.066  0.00  0.00    +0.000 A 
ATOM      6  C   UNL     1       1.334   8.177  20.831  0.00  0.00    +0.000 A 
ENDROOT
BRANCH   4   7
ATOM      7  C   UNL     1       3.264   6.708  17.881  0.00  0.00    +0.000 A 
ATOM      8  C   UNL     1       3.054   5.314  17.934  0.00  0.00    +0.000 A 
ATOM      9  C   UNL     1       3.844   4.427  17.197  0.00  0.00    +0.000 A 
ATOM     10  C   UNL     1       4.847   4.920  16.372  0.00  0.00    +0.000 A 
ATOM     11 BR   UNL     1       5.932   3.722  15.392  0.00  0.00    +0.000 Br
ATOM     12  C   UNL     1       5.061   6.290  16.274  0.00  0.00    +0.000 A 
ATOM     13  C   UNL     1       4.278   7.173  17.028  0.00  0.00    +0.000 A 
ENDBRANCH   4   7
BRANCH   1  17
ATOM     14  C   UNL     1      -1.987  11.828  22.440  0.00  0.00    +0.000 A 
ATOM     15  C   UNL     1      -1.746  12.067  21.091  0.00  0.00    +0.000 A 
ATOM     16  C   UNL     1      -0.823  11.269  20.414  0.00  0.00    +0.000 A 
ATOM     17  C   UNL     1      -0.111  10.237  21.063  0.00  0.00    +0.000 A 
ATOM     18  C   UNL     1      -0.356  10.048  22.436  0.00  0.00    +0.000 A 
ATOM     19  C   UNL     1      -1.291  10.831  23.122  0.00  0.00    +0.000 A 
BRANCH  14  20
ATOM     20  S   UNL     1      -3.262  12.731  23.264  0.00  0.00    +0.000 S 
ATOM     21  O   UNL     1      -2.756  14.040  23.611  0.00  0.00    +0.000 OA
ATOM     22  O   UNL     1      -3.924  11.871  24.213  0.00  0.00    +0.000 OA
BRANCH  20  23
ATOM     23  N   UNL     1      -4.367  12.956  22.018  0.00  0.00    +0.000 NA
ATOM     24  H   UNL     1      -5.187  12.369  22.169  0.00  0.00    +0.000 HD
ATOM     25  H   UNL     1      -3.916  12.821  21.112  0.00  0.00    +0.000 HD
ENDBRANCH  20  23
ENDBRANCH  14  20
ENDBRANCH   1  17
TORSDOF 4
ENDMDL
MODEL 8
REMARK VINA RESULT:      -7.9      7.246      9.819
REMARK  Name = 
REMARK  4 active torsions:
REMARK  status: ('A' for Active; 'I' for Inactive)
REMARK    1  A    between atoms: N_1  and  S_2
REMARK    2  A    between atoms: S_2  and  C_5
REMARK    3  A    between atoms: C_8  and  C_9
REMARK    4  A    between atoms: C_12  and  C_13
REMARK                            x       y       z     vdW  Elec       q    Type
REMARK                         _______ _______ _______ _____ _____    ______ ____
ROOT
ATOM      1  C   UNL     1       0.829   9.283  20.214  0.00  0.00    +0.000 A 
ATOM      2  C   UNL     1       1.187   9.601  18.896  0.00  0.00    +0.000 A 
ATOM      3  C   UNL     1       2.003   8.760  18.134  0.00  0.00    +0.000 A 
ATOM      4  C   UNL     1       2.540   7.576  18.661  0.00  0.00    +0.000 A 
ATOM      5  C   UNL     1       2.233   7.285  19.999  0.00  0.00    +0.000 A 
ATOM      6  C   UNL     1       1.387   8.113  20.756  0.00  0.00    +0.000 A 
ENDROOT
BRANCH   4   7
ATOM      7  C   UNL     1       3.351   6.667  17.816  0.00  0.00    +0.000 A 
ATOM      8  C   UNL     1       3.133   5.273  17.829  0.00  0.00    +0.000 A 
ATOM      9  C   UNL     1       3.948   4.399  17.103  0.00  0.00    +0.000 A 
ATOM     10  C   UNL     1       4.984   4.906  16.328  0.00  0.00    +0.000 A 
ATOM     11 BR   UNL     1       6.099   3.725  15.364  0.00  0.00    +0.000 Br
ATOM     12  C   UNL     1       5.207   6.277  16.270  0.00  0.00    +0.000 A 
ATOM     13  C   UNL     1       4.399   7.146  17.013  0.00  0.00    +0.000 A 
ENDBRANCH   4   7
BRANCH   1  17
ATOM     14  C   UNL     1      -1.870  11.763  22.457  0.00  0.00    +0.000 A 
ATOM     15  C   UNL     1      -1.209  10.715  23.088  0.00  0.00    +0.000 A 
ATOM     16  C   UNL     1      -0.342   9.912  22.344  0.00  0.00    +0.000 A 
ATOM     17  C   UNL     1      -0.132  10.120  20.964  0.00  0.00    +0.000 A 
ATOM     18  C   UNL     1      -0.846  11.168  20.353  0.00  0.00    +0.000 A 
ATOM     19  C   UNL     1      -1.705  11.990  21.091  0.00  0.00    +0.000 A 
BRANCH  14  20
ATOM     20  S   UNL     1      -2.847  12.874  23.421  0.00  0.00    +0.000 S 
ATOM     21  O   UNL     1      -1.984  13.893  23.975  0.00  0.00    +0.000 OA
ATOM     22  O   UNL     1      -3.782  12.122  24.221  0.00  0.00    +0.000 OA
BRANCH  20  23
ATOM     23  N   UNL     1      -3.773  13.620  22.233  0.00  0.00    +0.000 NA
ATOM     24  H   UNL     1      -3.329  13.505  21.323  0.00  0.00    +0.000 HD
ATOM     25  H   UNL     1      -3.965  14.589  22.488  0.00  0.00    +0.000 HD
ENDBRANCH  20  23
ENDBRANCH  14  20
ENDBRANCH   1  17
TORSDOF 4
ENDMDL
MODEL 9
REMARK VINA RESULT:      -7.9      7.270      9.814
REMARK  Name = 
REMARK  4 active torsions:
REMARK  status: ('A' for Active; 'I' for Inactive)
REMARK    1  A    between atoms: N_1  and  S_2
REMARK    2  A    between atoms: S_2  and  C_5
REMARK    3  A    between atoms: C_8  and  C_9
REMARK    4  A    between atoms: C_12  and  C_13
REMARK                            x       y       z     vdW  Elec       q    Type
REMARK                         _______ _______ _______ _____ _____    ______ ____
ROOT
ATOM      1  C   UNL     1       0.851   9.342  20.262  0.00  0.00    +0.000 A 
ATOM      2  C   UNL     1       1.270   9.649  18.960  0.00  0.00    +0.000 A 
ATOM      3  C   UNL     1       2.089   8.785  18.229  0.00  0.00    +0.000 A 
ATOM      4  C   UNL     1       2.570   7.585  18.775  0.00  0.00    +0.000 A 
ATOM      5  C   UNL     1       2.203   7.303  20.099  0.00  0.00    +0.000 A 
ATOM      6  C   UNL     1       1.353   8.155  20.824  0.00  0.00    +0.000 A 
ENDROOT
BRANCH   4   7
ATOM      7  C   UNL     1       3.386   6.652  17.960  0.00  0.00    +0.000 A 
ATOM      8  C   UNL     1       4.411   7.129  17.116  0.00  0.00    +0.000 A 
ATOM      9  C   UNL     1       5.128   6.269  16.280  0.00  0.00    +0.000 A 
ATOM     10  C   UNL     1       4.850   4.908  16.290  0.00  0.00    +0.000 A 
ATOM     11 BR   UNL     1       5.804   3.747  15.144  0.00  0.00    +0.000 Br
ATOM     12  C   UNL     1       3.867   4.401  17.131  0.00  0.00    +0.000 A 
ATOM     13  C   UNL     1       3.140   5.269  17.954  0.00  0.00    +0.000 A 
ENDBRANCH   4   7
BRANCH   1  17
ATOM     14  C   UNL     1      -2.045  11.794  22.278  0.00  0.00    +0.000 A 
ATOM     15  C   UNL     1      -1.875  11.915  20.902  0.00  0.00    +0.000 A 
ATOM     16  C   UNL     1      -0.924  11.118  20.263  0.00  0.00    +0.000 A 
ATOM     17  C   UNL     1      -0.114  10.207  20.975  0.00  0.00    +0.000 A 
ATOM     18  C   UNL     1      -0.291  10.138  22.369  0.00  0.00    +0.000 A 
ATOM     19  C   UNL     1      -1.252  10.920  23.019  0.00  0.00    +0.000 A 
BRANCH  14  20
ATOM     20  S   UNL     1      -3.349  12.685  23.067  0.00  0.00    +0.000 S 
ATOM     21  O   UNL     1      -3.005  14.089  23.095  0.00  0.00    +0.000 OA
ATOM     22  O   UNL     1      -3.785  11.964  24.237  0.00  0.00    +0.000 OA
BRANCH  20  23
ATOM     23  N   UNL     1      -4.592  12.517  21.949  0.00  0.00    +0.000 NA
ATOM     24  H   UNL     1      -4.601  13.314  21.314  0.00  0.00    +0.000 HD
ATOM     25  H   UNL     1      -5.479  12.350  22.425  0.00  0.00    +0.000 HD
ENDBRANCH  20  23
ENDBRANCH  14  20
ENDBRANCH   1  17
TORSDOF 4
ENDMDL
