MODEL 1
REMARK VINA RESULT:      -7.0      0.000      0.000
REMARK  Name = 
REMARK  6 active torsions:
REMARK  status: ('A' for Active; 'I' for Inactive)
REMARK    1  A    between atoms: C_1  and  C_2
REMARK    2  A    between atoms: C_2  and  C_3
REMARK    3  A    between atoms: C_2  and  C_4
REMARK    4  A    between atoms: C_2  and  O_5
REMARK    5  A    between atoms: O_5  and  C_6
REMARK    6  A    between atoms: C_14  and  C_15
REMARK                            x       y       z     vdW  Elec       q    Type
REMARK                         _______ _______ _______ _____ _____    ______ ____
ROOT
ATOM      1  C   UNL     1       4.938   4.964  18.798  0.00  0.00    +0.000 C 
ATOM      2  O   UNL     1       5.527   5.639  19.633  0.00  0.00    +0.000 OA
ATOM      3  N   UNL     1       3.568   4.952  18.676  0.00  0.00    +0.000 N 
ATOM      4  C   UNL     1       2.810   3.846  18.095  0.00  0.00    +0.000 C 
ATOM      5  C   UNL     1       2.495   2.856  19.239  0.00  0.00    +0.000 C 
ATOM      6  C   UNL     1       1.440   3.617  20.070  0.00  0.00    +0.000 C 
ATOM      7  C   UNL     1       1.330   4.957  19.326  0.00  0.00    +0.000 C 
ATOM      8  C   UNL     1       1.451   4.495  17.866  0.00  0.00    +0.000 C 
ATOM      9  C   UNL     1       2.659   5.747  19.523  0.00  0.00    +0.000 C 
ENDROOT
BRANCH   9  10
ATOM     10  C   UNL     1       2.410   7.221  19.112  0.00  0.00    +0.000 C 
ATOM     11  O   UNL     1       2.782   7.662  18.022  0.00  0.00    +0.000 OA
ATOM     12  N   UNL     1       1.649   7.994  19.982  0.00  0.00    +0.000 N 
ATOM     13  C   UNL     1       1.145   9.297  19.598  0.00  0.00    +0.000 C 
ATOM     14  C   UNL     1       0.951  10.028  20.912  0.00  0.00    +0.000 C 
ATOM     15  C   UNL     1       0.627   8.930  21.919  0.00  0.00    +0.000 C 
ATOM     16  C   UNL     1       1.165   7.640  21.305  0.00  0.00    +0.000 C 
ENDBRANCH   9  10
BRANCH   1  17
ATOM     17  O   UNL     1       5.536   4.123  17.907  0.00  0.00    +0.000 OA
BRANCH  17  19
ATOM     18  C   UNL     1       7.722   4.583  16.945  0.00  0.00    +0.000 C 
ATOM     19  C   UNL     1       6.211   4.602  16.706  0.00  0.00    +0.000 C 
ATOM     20  C   UNL     1       5.728   5.980  16.239  0.00  0.00    +0.000 C 
ATOM     21  C   UNL     1       5.882   3.588  15.593  0.00  0.00    +0.000 C 
ENDBRANCH  17  19
ENDBRANCH   1  17
TORSDOF 3
ENDMDL
MODEL 2
REMARK VINA RESULT:      -6.7      1.338      6.023
REMARK  Name = 
REMARK  6 active torsions:
REMARK  status: ('A' for Active; 'I' for Inactive)
REMARK    1  A    between atoms: C_1  and  C_2
REMARK    2  A    between atoms: C_2  and  C_3
REMARK    3  A    between atoms: C_2  and  C_4
REMARK    4  A    between atoms: C_2  and  O_5
REMARK    5  A    between atoms: O_5  and  C_6
REMARK    6  A    between atoms: C_14  and  C_15
REMARK                            x       y       z     vdW  Elec       q    Type
REMARK                         _______ _______ _______ _____ _____    ______ ____
ROOT
ATOM      1  C   UNL     1       2.182   6.827  19.878  0.00  0.00    +0.000 C 
ATOM      2  O   UNL     1       2.349   7.526  18.887  0.00  0.00    +0.000 OA
ATOM      3  N   UNL     1       2.591   5.515  19.947  0.00  0.00    +0.000 N 
ATOM      4  C   UNL     1       1.998   4.521  20.838  0.00  0.00    +0.000 C 
ATOM      5  C   UNL     1       0.812   3.879  20.084  0.00  0.00    +0.000 C 
ATOM      6  C   UNL     1       1.513   3.024  19.007  0.00  0.00    +0.000 C 
ATOM      7  C   UNL     1       2.999   3.329  19.252  0.00  0.00    +0.000 C 
ATOM      8  C   UNL     1       3.036   3.407  20.786  0.00  0.00    +0.000 C 
ATOM      9  C   UNL     1       3.278   4.808  18.849  0.00  0.00    +0.000 C 
ENDROOT
BRANCH   9  10
ATOM     10  C   UNL     1       4.812   4.996  18.731  0.00  0.00    +0.000 C 
ATOM     11  O   UNL     1       5.494   5.376  19.685  0.00  0.00    +0.000 OA
ATOM     12  N   UNL     1       5.400   4.610  17.532  0.00  0.00    +0.000 N 
ATOM     13  C   UNL     1       6.838   4.507  17.388  0.00  0.00    +0.000 C 
ATOM     14  C   UNL     1       7.083   4.687  15.904  0.00  0.00    +0.000 C 
ATOM     15  C   UNL     1       5.827   4.136  15.237  0.00  0.00    +0.000 C 
ATOM     16  C   UNL     1       4.743   4.175  16.311  0.00  0.00    +0.000 C 
ENDBRANCH   9  10
BRANCH   1  17
ATOM     17  O   UNL     1       1.555   7.225  21.022  0.00  0.00    +0.000 OA
BRANCH  17  19
ATOM     18  C   UNL     1      -0.572   8.279  21.551  0.00  0.00    +0.000 C 
ATOM     19  C   UNL     1       0.883   8.514  21.141  0.00  0.00    +0.000 C 
ATOM     20  C   UNL     1       0.985   9.378  19.878  0.00  0.00    +0.000 C 
ATOM     21  C   UNL     1       1.594   9.267  22.282  0.00  0.00    +0.000 C 
ENDBRANCH  17  19
ENDBRANCH   1  17
TORSDOF 3
ENDMDL
MODEL 3
REMARK VINA RESULT:      -6.4      1.322      1.652
REMARK  Name = 
REMARK  6 active torsions:
REMARK  status: ('A' for Active; 'I' for Inactive)
REMARK    1  A    between atoms: C_1  and  C_2
REMARK    2  A    between atoms: C_2  and  C_3
REMARK    3  A    between atoms: C_2  and  C_4
REMARK    4  A    between atoms: C_2  and  O_5
REMARK    5  A    between atoms: O_5  and  C_6
REMARK    6  A    between atoms: C_14  and  C_15
REMARK                            x       y       z     vdW  Elec       q    Type
REMARK                         _______ _______ _______ _____ _____    ______ ____
ROOT
ATOM      1  C   UNL     1       4.951   6.410  16.886  0.00  0.00    +0.000 C 
ATOM      2  O   UNL     1       5.657   7.329  17.280  0.00  0.00    +0.000 OA
ATOM      3  N   UNL     1       3.778   6.048  17.506  0.00  0.00    +0.000 N 
ATOM      4  C   UNL     1       3.185   4.715  17.419  0.00  0.00    +0.000 C 
ATOM      5  C   UNL     1       3.791   3.869  18.562  0.00  0.00    +0.000 C 
ATOM      6  C   UNL     1       3.132   4.473  19.821  0.00  0.00    +0.000 C 
ATOM      7  C   UNL     1       2.282   5.614  19.239  0.00  0.00    +0.000 C 
ATOM      8  C   UNL     1       1.776   4.972  17.938  0.00  0.00    +0.000 C 
ATOM      9  C   UNL     1       3.235   6.723  18.701  0.00  0.00    +0.000 C 
ENDROOT
BRANCH   9  10
ATOM     10  C   UNL     1       2.401   8.009  18.474  0.00  0.00    +0.000 C 
ATOM     11  O   UNL     1       2.319   8.543  17.366  0.00  0.00    +0.000 OA
ATOM     12  N   UNL     1       1.658   8.471  19.555  0.00  0.00    +0.000 N 
ATOM     13  C   UNL     1       0.658   9.509  19.402  0.00  0.00    +0.000 C 
ATOM     14  C   UNL     1       0.551  10.136  20.777  0.00  0.00    +0.000 C 
ATOM     15  C   UNL     1       0.882   9.003  21.743  0.00  0.00    +0.000 C 
ATOM     16  C   UNL     1       1.665   7.981  20.923  0.00  0.00    +0.000 C 
ENDBRANCH   9  10
BRANCH   1  17
ATOM     17  O   UNL     1       5.230   5.609  15.818  0.00  0.00    +0.000 OA
BRANCH  17  19
ATOM     18  C   UNL     1       5.851   3.286  15.453  0.00  0.00    +0.000 C 
ATOM     19  C   UNL     1       6.359   4.687  15.803  0.00  0.00    +0.000 C 
ATOM     20  C   UNL     1       7.170   4.687  17.104  0.00  0.00    +0.000 C 
ATOM     21  C   UNL     1       7.291   5.163  14.671  0.00  0.00    +0.000 C 
ENDBRANCH  17  19
ENDBRANCH   1  17
TORSDOF 3
ENDMDL
MODEL 4
REMARK VINA RESULT:      -6.1      1.778      3.869
REMARK  Name = 
REMARK  6 active torsions:
REMARK  status: ('A' for Active; 'I' for Inactive)
REMARK    1  A    between atoms: C_1  and  C_2
REMARK    2  A    between atoms: C_2  and  C_3
REMARK    3  A    between atoms: C_2  and  C_4
REMARK    4  A    between atoms: C_2  and  O_5
REMARK    5  A    between atoms: O_5  and  C_6
REMARK    6  A    between atoms: C_14  and  C_15
REMARK                            x       y       z     vdW  Elec       q    Type
REMARK                         _______ _______ _______ _____ _____    ______ ____
ROOT
ATOM      1  C   UNL     1       2.328   4.152  17.566  0.00  0.00    +0.000 C 
ATOM      2  O   UNL     1       1.160   4.415  17.311  0.00  0.00    +0.000 OA
ATOM      3  N   UNL     1       3.277   5.118  17.811  0.00  0.00    +0.000 N 
ATOM      4  C   UNL     1       4.712   4.922  17.614  0.00  0.00    +0.000 C 
ATOM      5  C   UNL     1       5.029   5.298  16.149  0.00  0.00    +0.000 C 
ATOM      6  C   UNL     1       4.873   6.834  16.149  0.00  0.00    +0.000 C 
ATOM      7  C   UNL     1       4.437   7.127  17.593  0.00  0.00    +0.000 C 
ATOM      8  C   UNL     1       5.289   6.112  18.371  0.00  0.00    +0.000 C 
ATOM      9  C   UNL     1       2.998   6.567  17.804  0.00  0.00    +0.000 C 
ENDROOT
BRANCH   9  10
ATOM     10  C   UNL     1       2.424   7.187  19.103  0.00  0.00    +0.000 C 
ATOM     11  O   UNL     1       2.626   6.680  20.208  0.00  0.00    +0.000 OA
ATOM     12  N   UNL     1       1.764   8.404  18.977  0.00  0.00    +0.000 N 
ATOM     13  C   UNL     1       1.402   9.196  20.135  0.00  0.00    +0.000 C 
ATOM     14  C   UNL     1       0.231  10.037  19.666  0.00  0.00    +0.000 C 
ATOM     15  C   UNL     1       0.477  10.241  18.174  0.00  0.00    +0.000 C 
ATOM     16  C   UNL     1       1.418   9.114  17.757  0.00  0.00    +0.000 C 
ENDBRANCH   9  10
BRANCH   1  17
ATOM     17  O   UNL     1       2.857   2.896  17.613  0.00  0.00    +0.000 OA
BRANCH  17  19
ATOM     18  C   UNL     1       1.437   1.456  18.964  0.00  0.00    +0.000 C 
ATOM     19  C   UNL     1       2.828   2.078  18.819  0.00  0.00    +0.000 C 
ATOM     20  C   UNL     1       3.246   2.835  20.085  0.00  0.00    +0.000 C 
ATOM     21  C   UNL     1       3.847   0.943  18.595  0.00  0.00    +0.000 C 
ENDBRANCH  17  19
ENDBRANCH   1  17
TORSDOF 3
ENDMDL
MODEL 5
REMARK VINA RESULT:      -5.9      1.611      5.637
REMARK  Name = 
REMARK  6 active torsions:
REMARK  status: ('A' for Active; 'I' for Inactive)
REMARK    1  A    between atoms: C_1  and  C_2
REMARK    2  A    between atoms: C_2  and  C_3
REMARK    3  A    between atoms: C_2  and  C_4
REMARK    4  A    between atoms: C_2  and  O_5
REMARK    5  A    between atoms: O_5  and  C_6
REMARK    6  A    between atoms: C_14  and  C_15
REMARK                            x       y       z     vdW  Elec       q    Type
REMARK                         _______ _______ _______ _____ _____    ______ ____
ROOT
ATOM      1  C   UNL     1       2.189   6.580  19.997  0.00  0.00    +0.000 C 
ATOM      2  O   UNL     1       2.556   7.284  19.065  0.00  0.00    +0.000 OA
ATOM      3  N   UNL     1       2.522   5.250  20.107  0.00  0.00    +0.000 N 
ATOM      4  C   UNL     1       1.740   4.272  20.860  0.00  0.00    +0.000 C 
ATOM      5  C   UNL     1       0.676   3.697  19.898  0.00  0.00    +0.000 C 
ATOM      6  C   UNL     1       1.515   2.825  18.941  0.00  0.00    +0.000 C 
ATOM      7  C   UNL     1       2.948   3.056  19.446  0.00  0.00    +0.000 C 
ATOM      8  C   UNL     1       2.721   3.111  20.964  0.00  0.00    +0.000 C 
ATOM      9  C   UNL     1       3.357   4.526  19.129  0.00  0.00    +0.000 C 
ENDROOT
BRANCH   9  10
ATOM     10  C   UNL     1       4.895   4.643  19.283  0.00  0.00    +0.000 C 
ATOM     11  O   UNL     1       5.510   4.019  20.151  0.00  0.00    +0.000 OA
ATOM     12  N   UNL     1       5.564   5.399  18.326  0.00  0.00    +0.000 N 
ATOM     13  C   UNL     1       7.009   5.383  18.219  0.00  0.00    +0.000 C 
ATOM     14  C   UNL     1       7.354   6.706  17.566  0.00  0.00    +0.000 C 
ATOM     15  C   UNL     1       6.147   7.028  16.690  0.00  0.00    +0.000 C 
ATOM     16  C   UNL     1       4.993   6.214  17.268  0.00  0.00    +0.000 C 
ENDBRANCH   9  10
BRANCH   1  17
ATOM     17  O   UNL     1       1.391   6.991  21.023  0.00  0.00    +0.000 OA
BRANCH  17  19
ATOM     18  C   UNL     1       1.051   9.084  19.831  0.00  0.00    +0.000 C 
ATOM     19  C   UNL     1       0.978   8.380  21.188  0.00  0.00    +0.000 C 
ATOM     20  C   UNL     1       1.773   9.133  22.261  0.00  0.00    +0.000 C 
ATOM     21  C   UNL     1      -0.496   8.342  21.637  0.00  0.00    +0.000 C 
ENDBRANCH  17  19
ENDBRANCH   1  17
TORSDOF 3
ENDMDL
MODEL 6
REMARK VINA RESULT:      -5.8      2.847      4.684
REMARK  Name = 
REMARK  6 active torsions:
REMARK  status: ('A' for Active; 'I' for Inactive)
REMARK    1  A    between atoms: C_1  and  C_2
REMARK    2  A    between atoms: C_2  and  C_3
REMARK    3  A    between atoms: C_2  and  C_4
REMARK    4  A    between atoms: C_2  and  O_5
REMARK    5  A    between atoms: O_5  and  C_6
REMARK    6  A    between atoms: C_14  and  C_15
REMARK                            x       y       z     vdW  Elec       q    Type
REMARK                         _______ _______ _______ _____ _____    ______ ____
ROOT
ATOM      1  C   UNL     1       5.192   3.845  16.095  0.00  0.00    +0.000 C 
ATOM      2  O   UNL     1       3.975   3.845  15.961  0.00  0.00    +0.000 OA
ATOM      3  N   UNL     1       5.817   4.234  17.258  0.00  0.00    +0.000 N 
ATOM      4  C   UNL     1       7.189   4.734  17.320  0.00  0.00    +0.000 C 
ATOM      5  C   UNL     1       7.129   6.263  17.102  0.00  0.00    +0.000 C 
ATOM      6  C   UNL     1       6.502   6.772  18.418  0.00  0.00    +0.000 C 
ATOM      7  C   UNL     1       6.237   5.469  19.188  0.00  0.00    +0.000 C 
ATOM      8  C   UNL     1       7.479   4.646  18.813  0.00  0.00    +0.000 C 
ATOM      9  C   UNL     1       5.101   4.684  18.467  0.00  0.00    +0.000 C 
ENDROOT
BRANCH   9  10
ATOM     10  C   UNL     1       4.580   3.590  19.434  0.00  0.00    +0.000 C 
ATOM     11  O   UNL     1       5.281   2.633  19.768  0.00  0.00    +0.000 OA
ATOM     12  N   UNL     1       3.325   3.796  19.995  0.00  0.00    +0.000 N 
ATOM     13  C   UNL     1       2.837   2.980  21.088  0.00  0.00    +0.000 C 
ATOM     14  C   UNL     1       1.328   3.073  20.984  0.00  0.00    +0.000 C 
ATOM     15  C   UNL     1       1.068   4.450  20.383  0.00  0.00    +0.000 C 
ATOM     16  C   UNL     1       2.367   4.845  19.687  0.00  0.00    +0.000 C 
ENDBRANCH   9  10
BRANCH   1  17
ATOM     17  O   UNL     1       6.088   3.498  15.128  0.00  0.00    +0.000 OA
BRANCH  17  19
ATOM     18  C   UNL     1       5.717   3.434  12.725  0.00  0.00    +0.000 C 
ATOM     19  C   UNL     1       6.249   4.262  13.897  0.00  0.00    +0.000 C 
ATOM     20  C   UNL     1       7.687   4.734  13.651  0.00  0.00    +0.000 C 
ATOM     21  C   UNL     1       5.365   5.515  14.047  0.00  0.00    +0.000 C 
ENDBRANCH  17  19
ENDBRANCH   1  17
TORSDOF 3
ENDMDL
MODEL 7
REMARK VINA RESULT:      -5.8      1.548      2.066
REMARK  Name = 
REMARK  6 active torsions:
REMARK  status: ('A' for Active; 'I' for Inactive)
REMARK    1  A    between atoms: C_1  and  C_2
REMARK    2  A    between atoms: C_2  and  C_3
REMARK    3  A    between atoms: C_2  and  C_4
REMARK    4  A    between atoms: C_2  and  O_5
REMARK    5  A    between atoms: O_5  and  C_6
REMARK    6  A    between atoms: C_14  and  C_15
REMARK                            x       y       z     vdW  Elec       q    Type
REMARK                         _______ _______ _______ _____ _____    ______ ____
ROOT
ATOM      1  C   UNL     1       4.845   4.690  18.587  0.00  0.00    +0.000 C 
ATOM      2  O   UNL     1       5.426   4.965  19.629  0.00  0.00    +0.000 OA
ATOM      3  N   UNL     1       3.506   4.381  18.536  0.00  0.00    +0.000 N 
ATOM      4  C   UNL     1       2.892   3.578  17.480  0.00  0.00    +0.000 C 
ATOM      5  C   UNL     1       2.990   2.098  17.913  0.00  0.00    +0.000 C 
ATOM      6  C   UNL     1       1.969   2.012  19.068  0.00  0.00    +0.000 C 
ATOM      7  C   UNL     1       1.464   3.459  19.177  0.00  0.00    +0.000 C 
ATOM      8  C   UNL     1       1.412   3.867  17.697  0.00  0.00    +0.000 C 
ATOM      9  C   UNL     1       2.621   4.352  19.717  0.00  0.00    +0.000 C 
ENDROOT
BRANCH   9  10
ATOM     10  C   UNL     1       2.013   5.700  20.183  0.00  0.00    +0.000 C 
ATOM     11  O   UNL     1       1.431   5.810  21.264  0.00  0.00    +0.000 OA
ATOM     12  N   UNL     1       2.252   6.807  19.376  0.00  0.00    +0.000 N 
ATOM     13  C   UNL     1       1.951   8.152  19.822  0.00  0.00    +0.000 C 
ATOM     14  C   UNL     1       1.751   8.938  18.541  0.00  0.00    +0.000 C 
ATOM     15  C   UNL     1       2.650   8.248  17.522  0.00  0.00    +0.000 C 
ATOM     16  C   UNL     1       2.887   6.843  18.069  0.00  0.00    +0.000 C 
ENDBRANCH   9  10
BRANCH   1  17
ATOM     17  O   UNL     1       5.430   4.621  17.357  0.00  0.00    +0.000 OA
BRANCH  17  19
ATOM     18  C   UNL     1       7.819   4.638  17.816  0.00  0.00    +0.000 C 
ATOM     19  C   UNL     1       6.679   5.306  17.043  0.00  0.00    +0.000 C 
ATOM     20  C   UNL     1       6.631   6.817  17.296  0.00  0.00    +0.000 C 
ATOM     21  C   UNL     1       6.922   5.090  15.537  0.00  0.00    +0.000 C 
ENDBRANCH  17  19
ENDBRANCH   1  17
TORSDOF 3
ENDMDL
MODEL 8
REMARK VINA RESULT:      -5.7      1.596      5.611
REMARK  Name = 
REMARK  6 active torsions:
REMARK  status: ('A' for Active; 'I' for Inactive)
REMARK    1  A    between atoms: C_1  and  C_2
REMARK    2  A    between atoms: C_2  and  C_3
REMARK    3  A    between atoms: C_2  and  C_4
REMARK    4  A    between atoms: C_2  and  O_5
REMARK    5  A    between atoms: O_5  and  C_6
REMARK    6  A    between atoms: C_14  and  C_15
REMARK                            x       y       z     vdW  Elec       q    Type
REMARK                         _______ _______ _______ _____ _____    ______ ____
ROOT
ATOM      1  C   UNL     1       2.497   6.813  19.493  0.00  0.00    +0.000 C 
ATOM      2  O   UNL     1       3.044   7.710  18.864  0.00  0.00    +0.000 OA
ATOM      3  N   UNL     1       2.876   5.494  19.398  0.00  0.00    +0.000 N 
ATOM      4  C   UNL     1       1.993   4.367  19.691  0.00  0.00    +0.000 C 
ATOM      5  C   UNL     1       1.249   4.016  18.383  0.00  0.00    +0.000 C 
ATOM      6  C   UNL     1       2.359   3.386  17.516  0.00  0.00    +0.000 C 
ATOM      7  C   UNL     1       3.598   3.507  18.417  0.00  0.00    +0.000 C 
ATOM      8  C   UNL     1       2.989   3.219  19.798  0.00  0.00    +0.000 C 
ATOM      9  C   UNL     1       3.978   5.013  18.543  0.00  0.00    +0.000 C 
ENDROOT
BRANCH   9  10
ATOM     10  C   UNL     1       5.415   5.102  19.117  0.00  0.00    +0.000 C 
ATOM     11  O   UNL     1       5.791   4.378  20.041  0.00  0.00    +0.000 OA
ATOM     12  N   UNL     1       6.297   5.959  18.467  0.00  0.00    +0.000 N 
ATOM     13  C   UNL     1       7.718   5.947  18.752  0.00  0.00    +0.000 C 
ATOM     14  C   UNL     1       8.191   7.335  18.369  0.00  0.00    +0.000 C 
ATOM     15  C   UNL     1       7.256   7.764  17.244  0.00  0.00    +0.000 C 
ATOM     16  C   UNL     1       6.009   6.895  17.393  0.00  0.00    +0.000 C 
ENDBRANCH   9  10
BRANCH   1  17
ATOM     17  O   UNL     1       1.439   6.979  20.337  0.00  0.00    +0.000 OA
BRANCH  17  19
ATOM     18  C   UNL     1       0.976   9.271  19.668  0.00  0.00    +0.000 C 
ATOM     19  C   UNL     1       1.033   8.286  20.838  0.00  0.00    +0.000 C 
ATOM     20  C   UNL     1       1.917   8.809  21.977  0.00  0.00    +0.000 C 
ATOM     21  C   UNL     1      -0.393   8.111  21.396  0.00  0.00    +0.000 C 
ENDBRANCH  17  19
ENDBRANCH   1  17
TORSDOF 3
ENDMDL
MODEL 9
REMARK VINA RESULT:      -5.7      1.648      6.238
REMARK  Name = 
REMARK  6 active torsions:
REMARK  status: ('A' for Active; 'I' for Inactive)
REMARK    1  A    between atoms: C_1  and  C_2
REMARK    2  A    between atoms: C_2  and  C_3
REMARK    3  A    between atoms: C_2  and  C_4
REMARK    4  A    between atoms: C_2  and  O_5
REMARK    5  A    between atoms: O_5  and  C_6
REMARK    6  A    between atoms: C_14  and  C_15
REMARK                            x       y       z     vdW  Elec       q    Type
REMARK                         _______ _______ _______ _____ _____    ______ ____
ROOT
ATOM      1  C   UNL     1       2.394   8.147  18.209  0.00  0.00    +0.000 C 
ATOM      2  O   UNL     1       2.349   8.595  17.071  0.00  0.00    +0.000 OA
ATOM      3  N   UNL     1       2.957   6.929  18.513  0.00  0.00    +0.000 N 
ATOM      4  C   UNL     1       2.604   6.136  19.688  0.00  0.00    +0.000 C 
ATOM      5  C   UNL     1       1.412   5.235  19.291  0.00  0.00    +0.000 C 
ATOM      6  C   UNL     1       2.063   4.204  18.345  0.00  0.00    +0.000 C 
ATOM      7  C   UNL     1       3.523   4.681  18.283  0.00  0.00    +0.000 C 
ATOM      8  C   UNL     1       3.748   5.132  19.734  0.00  0.00    +0.000 C 
ATOM      9  C   UNL     1       3.574   6.035  17.514  0.00  0.00    +0.000 C 
ENDROOT
BRANCH   9  10
ATOM     10  C   UNL     1       5.048   6.313  17.124  0.00  0.00    +0.000 C 
ATOM     11  O   UNL     1       5.705   7.205  17.666  0.00  0.00    +0.000 OA
ATOM     12  N   UNL     1       5.630   5.439  16.212  0.00  0.00    +0.000 N 
ATOM     13  C   UNL     1       7.056   5.446  15.957  0.00  0.00    +0.000 C 
ATOM     14  C   UNL     1       7.192   4.868  14.563  0.00  0.00    +0.000 C 
ATOM     15  C   UNL     1       6.012   3.911  14.426  0.00  0.00    +0.000 C 
ATOM     16  C   UNL     1       4.992   4.368  15.466  0.00  0.00    +0.000 C 
ENDBRANCH   9  10
BRANCH   1  17
ATOM     17  O   UNL     1       1.877   8.758  19.314  0.00  0.00    +0.000 OA
BRANCH  17  19
ATOM     18  C   UNL     1      -0.014   9.671  20.541  0.00  0.00    +0.000 C 
ATOM     19  C   UNL     1       0.788   9.724  19.238  0.00  0.00    +0.000 C 
ATOM     20  C   UNL     1      -0.112   9.540  18.011  0.00  0.00    +0.000 C 
ATOM     21  C   UNL     1       1.449  11.113  19.131  0.00  0.00    +0.000 C 
ENDBRANCH  17  19
ENDBRANCH   1  17
TORSDOF 3
ENDMDL
