MODEL 1
REMARK VINA RESULT:      -7.8      0.000      0.000
REMARK  Name = 
REMARK  6 active torsions:
REMARK  status: ('A' for Active; 'I' for Inactive)
REMARK    1  A    between atoms: C_1  and  O_2
REMARK    2  A    between atoms: O_2  and  C_3
REMARK    3  A    between atoms: C_3  and  C_5
REMARK    4  A    between atoms: C_10  and  N_11
REMARK    5  A    between atoms: C_12  and  C_14
REMARK    6  A    between atoms: C_14  and  C_15
REMARK                            x       y       z     vdW  Elec       q    Type
REMARK                         _______ _______ _______ _____ _____    ______ ____
ROOT
ATOM      1  N   UNL     1       5.645   4.533  16.182  0.00  0.00    +0.000 N 
ATOM      2  C   UNL     1       6.455   4.536  17.308  0.00  0.00    +0.000 C 
ATOM      3  O   UNL     1       7.682   4.432  17.326  0.00  0.00    +0.000 OA
ATOM      4  H   UNL     1       4.646   4.436  16.325  0.00  0.00    +0.000 HD
ENDROOT
BRANCH   1  10
ATOM      5  C   UNL     1       5.934   3.513  12.621  0.00  0.00    +0.000 A 
ATOM      6  C   UNL     1       7.038   4.266  12.204  0.00  0.00    +0.000 A 
ATOM      7  C   UNL     1       7.650   5.135  13.097  0.00  0.00    +0.000 A 
ATOM      8 CL   UNL     1       8.993   6.082  12.586  0.00  0.00    +0.000 Cl
ATOM      9  C   UNL     1       7.190   5.248  14.407  0.00  0.00    +0.000 A 
ATOM     10  C   UNL     1       6.110   4.483  14.850  0.00  0.00    +0.000 A 
ATOM     11  C   UNL     1       5.463   3.635  13.942  0.00  0.00    +0.000 A 
BRANCH   5  12
ATOM     12  C   UNL     1       5.243   2.566  11.706  0.00  0.00    +0.000 C 
ATOM     13  O   UNL     1       5.794   1.601  11.205  0.00  0.00    +0.000 OA
BRANCH  12  15
ATOM     14  C   UNL     1       3.737   3.778  10.387  0.00  0.00    +0.000 C 
ATOM     15  O   UNL     1       3.950   2.932  11.516  0.00  0.00    +0.000 OA
ENDBRANCH  12  15
ENDBRANCH   5  12
ENDBRANCH   1  10
BRANCH   2  16
ATOM     16  C   UNL     1       5.695   4.632  18.608  0.00  0.00    +0.000 C 
BRANCH  16  17
ATOM     17  C   UNL     1       4.312   3.979  18.591  0.00  0.00    +0.000 C 
ATOM     18  C   UNL     1       4.149   2.764  19.529  0.00  0.00    +0.000 C 
ATOM     19  C   UNL     1       2.677   2.282  19.594  0.00  0.00    +0.000 C 
ATOM     20  C   UNL     1       1.863   2.955  20.714  0.00  0.00    +0.000 C 
ATOM     21  C   UNL     1       1.054   4.041  20.000  0.00  0.00    +0.000 C 
ATOM     22  C   UNL     1       1.771   4.175  18.664  0.00  0.00    +0.000 C 
ATOM     23  C   UNL     1       3.124   4.934  18.809  0.00  0.00    +0.000 C 
ATOM     24  N   UNL     1       1.960   2.735  18.394  0.00  0.00    +0.000 NA
ATOM     25  H   UNL     1       2.496   2.575  17.545  0.00  0.00    +0.000 HD
ENDBRANCH  16  17
ENDBRANCH   2  16
TORSDOF 5
ENDMDL
MODEL 2
REMARK VINA RESULT:      -7.7      1.257      1.635
REMARK  Name = 
REMARK  6 active torsions:
REMARK  status: ('A' for Active; 'I' for Inactive)
REMARK    1  A    between atoms: C_1  and  O_2
REMARK    2  A    between atoms: O_2  and  C_3
REMARK    3  A    between atoms: C_3  and  C_5
REMARK    4  A    between atoms: C_10  and  N_11
REMARK    5  A    between atoms: C_12  and  C_14
REMARK    6  A    between atoms: C_14  and  C_15
REMARK                            x       y       z     vdW  Elec       q    Type
REMARK                         _______ _______ _______ _____ _____    ______ ____
ROOT
ATOM      1  N   UNL     1       5.298   4.669  15.860  0.00  0.00    +0.000 N 
ATOM      2  C   UNL     1       5.026   5.873  16.492  0.00  0.00    +0.000 C 
ATOM      3  O   UNL     1       5.356   6.993  16.102  0.00  0.00    +0.000 OA
ATOM      4  H   UNL     1       5.133   3.817  16.386  0.00  0.00    +0.000 HD
ENDROOT
BRANCH   1  10
ATOM      5  C   UNL     1       6.068   3.442  12.439  0.00  0.00    +0.000 A 
ATOM      6  C   UNL     1       7.236   4.155  12.143  0.00  0.00    +0.000 A 
ATOM      7  C   UNL     1       7.732   5.067  13.065  0.00  0.00    +0.000 A 
ATOM      8 CL   UNL     1       9.153   5.966  12.700  0.00  0.00    +0.000 Cl
ATOM      9  C   UNL     1       7.093   5.261  14.288  0.00  0.00    +0.000 A 
ATOM     10  C   UNL     1       5.945   4.536  14.613  0.00  0.00    +0.000 A 
ATOM     11  C   UNL     1       5.417   3.646  13.670  0.00  0.00    +0.000 A 
BRANCH   5  12
ATOM     12  C   UNL     1       5.495   2.453  11.488  0.00  0.00    +0.000 C 
ATOM     13  O   UNL     1       4.322   2.446  11.158  0.00  0.00    +0.000 OA
BRANCH  12  15
ATOM     14  C   UNL     1       6.113   0.209  11.243  0.00  0.00    +0.000 C 
ATOM     15  O   UNL     1       6.447   1.584  11.061  0.00  0.00    +0.000 OA
ENDBRANCH  12  15
ENDBRANCH   5  12
ENDBRANCH   1  10
BRANCH   2  16
ATOM     16  C   UNL     1       4.291   5.724  17.802  0.00  0.00    +0.000 C 
BRANCH  16  17
ATOM     17  C   UNL     1       3.568   4.390  17.983  0.00  0.00    +0.000 C 
ATOM     18  C   UNL     1       4.104   3.504  19.128  0.00  0.00    +0.000 C 
ATOM     19  C   UNL     1       3.203   2.265  19.364  0.00  0.00    +0.000 C 
ATOM     20  C   UNL     1       2.086   2.510  20.395  0.00  0.00    +0.000 C 
ATOM     21  C   UNL     1       0.833   2.757  19.552  0.00  0.00    +0.000 C 
ATOM     22  C   UNL     1       1.406   3.051  18.172  0.00  0.00    +0.000 C 
ATOM     23  C   UNL     1       2.035   4.474  18.100  0.00  0.00    +0.000 C 
ATOM     24  N   UNL     1       2.426   1.983  18.149  0.00  0.00    +0.000 NA
ATOM     25  H   UNL     1       3.000   2.025  17.310  0.00  0.00    +0.000 HD
ENDBRANCH  16  17
ENDBRANCH   2  16
TORSDOF 5
ENDMDL
MODEL 3
REMARK VINA RESULT:      -7.7      6.170      8.282
REMARK  Name = 
REMARK  6 active torsions:
REMARK  status: ('A' for Active; 'I' for Inactive)
REMARK    1  A    between atoms: C_1  and  O_2
REMARK    2  A    between atoms: O_2  and  C_3
REMARK    3  A    between atoms: C_3  and  C_5
REMARK    4  A    between atoms: C_10  and  N_11
REMARK    5  A    between atoms: C_12  and  C_14
REMARK    6  A    between atoms: C_14  and  C_15
REMARK                            x       y       z     vdW  Elec       q    Type
REMARK                         _______ _______ _______ _____ _____    ______ ____
ROOT
ATOM      1  N   UNL     1       8.300   7.420  18.761  0.00  0.00    +0.000 N 
ATOM      2  C   UNL     1       8.313   8.728  18.301  0.00  0.00    +0.000 C 
ATOM      3  O   UNL     1       7.702   9.165  17.325  0.00  0.00    +0.000 OA
ATOM      4  H   UNL     1       8.993   7.162  19.456  0.00  0.00    +0.000 HD
ENDROOT
BRANCH   1  10
ATOM      5  C   UNL     1       6.815   5.102  16.267  0.00  0.00    +0.000 A 
ATOM      6  C   UNL     1       5.919   4.375  17.060  0.00  0.00    +0.000 A 
ATOM      7  C   UNL     1       5.847   4.634  18.422  0.00  0.00    +0.000 A 
ATOM      8 CL   UNL     1       4.766   3.729  19.408  0.00  0.00    +0.000 Cl
ATOM      9  C   UNL     1       6.639   5.622  19.001  0.00  0.00    +0.000 A 
ATOM     10  C   UNL     1       7.516   6.378  18.220  0.00  0.00    +0.000 A 
ATOM     11  C   UNL     1       7.623   6.093  16.853  0.00  0.00    +0.000 A 
BRANCH   5  12
ATOM     12  C   UNL     1       6.931   4.866  14.802  0.00  0.00    +0.000 C 
ATOM     13  O   UNL     1       7.714   5.468  14.089  0.00  0.00    +0.000 OA
BRANCH  12  15
ATOM     14  C   UNL     1       6.130   3.599  13.005  0.00  0.00    +0.000 C 
ATOM     15  O   UNL     1       6.055   3.912  14.395  0.00  0.00    +0.000 OA
ENDBRANCH  12  15
ENDBRANCH   5  12
ENDBRANCH   1  10
BRANCH   2  16
ATOM     16  C   UNL     1       9.218   9.644  19.087  0.00  0.00    +0.000 C 
BRANCH  16  17
ATOM     17  C   UNL     1       9.333  11.063  18.529  0.00  0.00    +0.000 C 
ATOM     18  C   UNL     1       9.046  12.192  19.542  0.00  0.00    +0.000 C 
ATOM     19  C   UNL     1       9.367  13.588  18.952  0.00  0.00    +0.000 C 
ATOM     20  C   UNL     1      10.814  14.044  19.215  0.00  0.00    +0.000 C 
ATOM     21  C   UNL     1      11.548  13.766  17.900  0.00  0.00    +0.000 C 
ATOM     22  C   UNL     1      10.603  12.814  17.180  0.00  0.00    +0.000 C 
ATOM     23  C   UNL     1      10.647  11.383  17.792  0.00  0.00    +0.000 C 
ATOM     24  N   UNL     1       9.341  13.519  17.484  0.00  0.00    +0.000 NA
ATOM     25  H   UNL     1       8.530  13.011  17.140  0.00  0.00    +0.000 HD
ENDBRANCH  16  17
ENDBRANCH   2  16
TORSDOF 5
ENDMDL
MODEL 4
REMARK VINA RESULT:      -7.6      0.592      1.113
REMARK  Name = 
REMARK  6 active torsions:
REMARK  status: ('A' for Active; 'I' for Inactive)
REMARK    1  A    between atoms: C_1  and  O_2
REMARK    2  A    between atoms: O_2  and  C_3
REMARK    3  A    between atoms: C_3  and  C_5
REMARK    4  A    between atoms: C_10  and  N_11
REMARK    5  A    between atoms: C_12  and  C_14
REMARK    6  A    between atoms: C_14  and  C_15
REMARK                            x       y       z     vdW  Elec       q    Type
REMARK                         _______ _______ _______ _____ _____    ______ ____
ROOT
ATOM      1  N   UNL     1       5.504   4.300  16.192  0.00  0.00    +0.000 N 
ATOM      2  C   UNL     1       6.297   4.382  17.326  0.00  0.00    +0.000 C 
ATOM      3  O   UNL     1       7.527   4.433  17.355  0.00  0.00    +0.000 OA
ATOM      4  H   UNL     1       4.523   4.076  16.322  0.00  0.00    +0.000 HD
ENDROOT
BRANCH   1  10
ATOM      5  C   UNL     1       5.794   3.550  12.565  0.00  0.00    +0.000 A 
ATOM      6  C   UNL     1       6.933   4.287  12.218  0.00  0.00    +0.000 A 
ATOM      7  C   UNL     1       7.567   5.059  13.182  0.00  0.00    +0.000 A 
ATOM      8 CL   UNL     1       8.953   5.987  12.758  0.00  0.00    +0.000 Cl
ATOM      9  C   UNL     1       7.097   5.088  14.492  0.00  0.00    +0.000 A 
ATOM     10  C   UNL     1       5.982   4.335  14.864  0.00  0.00    +0.000 A 
ATOM     11  C   UNL     1       5.313   3.587  13.887  0.00  0.00    +0.000 A 
BRANCH   5  12
ATOM     12  C   UNL     1       5.078   2.705  11.572  0.00  0.00    +0.000 C 
ATOM     13  O   UNL     1       4.143   3.110  10.903  0.00  0.00    +0.000 OA
BRANCH  12  15
ATOM     14  C   UNL     1       6.858   1.367  10.852  0.00  0.00    +0.000 C 
ATOM     15  O   UNL     1       5.605   1.455  11.529  0.00  0.00    +0.000 OA
ENDBRANCH  12  15
ENDBRANCH   5  12
ENDBRANCH   1  10
BRANCH   2  16
ATOM     16  C   UNL     1       5.521   4.356  18.620  0.00  0.00    +0.000 C 
BRANCH  16  17
ATOM     17  C   UNL     1       4.073   3.882  18.488  0.00  0.00    +0.000 C 
ATOM     18  C   UNL     1       3.805   2.447  18.991  0.00  0.00    +0.000 C 
ATOM     19  C   UNL     1       2.291   2.115  18.998  0.00  0.00    +0.000 C 
ATOM     20  C   UNL     1       1.597   2.457  20.329  0.00  0.00    +0.000 C 
ATOM     21  C   UNL     1       0.892   3.789  20.062  0.00  0.00    +0.000 C 
ATOM     22  C   UNL     1       1.575   4.286  18.795  0.00  0.00    +0.000 C 
ATOM     23  C   UNL     1       3.008   4.821  19.084  0.00  0.00    +0.000 C 
ATOM     24  N   UNL     1       1.589   3.004  18.062  0.00  0.00    +0.000 NA
ATOM     25  H   UNL     1       2.075   3.082  17.171  0.00  0.00    +0.000 HD
ENDBRANCH  16  17
ENDBRANCH   2  16
TORSDOF 5
ENDMDL
MODEL 5
REMARK VINA RESULT:      -7.5      5.687      7.463
REMARK  Name = 
REMARK  6 active torsions:
REMARK  status: ('A' for Active; 'I' for Inactive)
REMARK    1  A    between atoms: C_1  and  O_2
REMARK    2  A    between atoms: O_2  and  C_3
REMARK    3  A    between atoms: C_3  and  C_5
REMARK    4  A    between atoms: C_10  and  N_11
REMARK    5  A    between atoms: C_12  and  C_14
REMARK    6  A    between atoms: C_14  and  C_15
REMARK                            x       y       z     vdW  Elec       q    Type
REMARK                         _______ _______ _______ _____ _____    ______ ____
ROOT
ATOM      1  N   UNL     1       2.061   7.456  18.987  0.00  0.00    +0.000 N 
ATOM      2  C   UNL     1       1.836   8.673  18.363  0.00  0.00    +0.000 C 
ATOM      3  O   UNL     1       2.229   9.004  17.243  0.00  0.00    +0.000 OA
ATOM      4  H   UNL     1       1.844   7.391  19.976  0.00  0.00    +0.000 HD
ENDROOT
BRANCH   1  10
ATOM      5  C   UNL     1       4.660   5.496  17.198  0.00  0.00    +0.000 A 
ATOM      6  C   UNL     1       4.067   4.229  17.145  0.00  0.00    +0.000 A 
ATOM      7  C   UNL     1       2.829   4.028  17.741  0.00  0.00    +0.000 A 
ATOM      8 CL   UNL     1       2.104   2.469  17.703  0.00  0.00    +0.000 Cl
ATOM      9  C   UNL     1       2.164   5.078  18.369  0.00  0.00    +0.000 A 
ATOM     10  C   UNL     1       2.726   6.356  18.404  0.00  0.00    +0.000 A 
ATOM     11  C   UNL     1       3.993   6.555  17.841  0.00  0.00    +0.000 A 
BRANCH   5  12
ATOM     12  C   UNL     1       5.984   5.765  16.574  0.00  0.00    +0.000 C 
ATOM     13  O   UNL     1       6.296   6.849  16.112  0.00  0.00    +0.000 OA
BRANCH  12  15
ATOM     14  C   UNL     1       7.685   4.601  17.682  0.00  0.00    +0.000 C 
ATOM     15  O   UNL     1       6.763   4.654  16.594  0.00  0.00    +0.000 OA
ENDBRANCH  12  15
ENDBRANCH   5  12
ENDBRANCH   1  10
BRANCH   2  16
ATOM     16  C   UNL     1       1.069   9.662  19.206  0.00  0.00    +0.000 C 
BRANCH  16  17
ATOM     17  C   UNL     1      -0.016  10.436  18.458  0.00  0.00    +0.000 C 
ATOM     18  C   UNL     1      -0.912   9.583  17.535  0.00  0.00    +0.000 C 
ATOM     19  C   UNL     1      -2.096  10.405  16.966  0.00  0.00    +0.000 C 
ATOM     20  C   UNL     1      -3.358  10.350  17.846  0.00  0.00    +0.000 C 
ATOM     21  C   UNL     1      -3.342  11.669  18.622  0.00  0.00    +0.000 C 
ATOM     22  C   UNL     1      -1.906  12.147  18.448  0.00  0.00    +0.000 C 
ATOM     23  C   UNL     1      -0.916  11.332  19.330  0.00  0.00    +0.000 C 
ATOM     24  N   UNL     1      -1.767  11.836  17.011  0.00  0.00    +0.000 NA
ATOM     25  H   UNL     1      -0.826  12.023  16.671  0.00  0.00    +0.000 HD
ENDBRANCH  16  17
ENDBRANCH   2  16
TORSDOF 5
ENDMDL
MODEL 6
REMARK VINA RESULT:      -7.4      6.015      8.673
REMARK  Name = 
REMARK  6 active torsions:
REMARK  status: ('A' for Active; 'I' for Inactive)
REMARK    1  A    between atoms: C_1  and  O_2
REMARK    2  A    between atoms: O_2  and  C_3
REMARK    3  A    between atoms: C_3  and  C_5
REMARK    4  A    between atoms: C_10  and  N_11
REMARK    5  A    between atoms: C_12  and  C_14
REMARK    6  A    between atoms: C_14  and  C_15
REMARK                            x       y       z     vdW  Elec       q    Type
REMARK                         _______ _______ _______ _____ _____    ______ ____
ROOT
ATOM      1  N   UNL     1       8.266   7.431  18.593  0.00  0.00    +0.000 N 
ATOM      2  C   UNL     1       8.240   8.769  18.232  0.00  0.00    +0.000 C 
ATOM      3  O   UNL     1       7.540   9.277  17.356  0.00  0.00    +0.000 OA
ATOM      4  H   UNL     1       9.022   7.123  19.196  0.00  0.00    +0.000 HD
ENDROOT
BRANCH   1  10
ATOM      5  C   UNL     1       5.717   4.734  18.417  0.00  0.00    +0.000 A 
ATOM      6  C   UNL     1       5.794   4.365  17.069  0.00  0.00    +0.000 A 
ATOM      7  C   UNL     1       6.661   5.044  16.223  0.00  0.00    +0.000 A 
ATOM      8 CL   UNL     1       6.745   4.613  14.559  0.00  0.00    +0.000 Cl
ATOM      9  C   UNL     1       7.469   6.069  16.707  0.00  0.00    +0.000 A 
ATOM     10  C   UNL     1       7.428   6.430  18.055  0.00  0.00    +0.000 A 
ATOM     11  C   UNL     1       6.526   5.778  18.904  0.00  0.00    +0.000 A 
BRANCH   5  12
ATOM     12  C   UNL     1       4.806   4.039  19.366  0.00  0.00    +0.000 C 
ATOM     13  O   UNL     1       4.968   2.885  19.722  0.00  0.00    +0.000 OA
BRANCH  12  15
ATOM     14  C   UNL     1       2.624   4.777  18.952  0.00  0.00    +0.000 C 
ATOM     15  O   UNL     1       3.798   4.860  19.758  0.00  0.00    +0.000 OA
ENDBRANCH  12  15
ENDBRANCH   5  12
ENDBRANCH   1  10
BRANCH   2  16
ATOM     16  C   UNL     1       9.222   9.627  18.993  0.00  0.00    +0.000 C 
BRANCH  16  17
ATOM     17  C   UNL     1       9.387  11.046  18.450  0.00  0.00    +0.000 C 
ATOM     18  C   UNL     1       9.042  12.174  19.445  0.00  0.00    +0.000 C 
ATOM     19  C   UNL     1       9.414  13.570  18.884  0.00  0.00    +0.000 C 
ATOM     20  C   UNL     1      10.844  14.012  19.246  0.00  0.00    +0.000 C 
ATOM     21  C   UNL     1      11.663  13.732  17.983  0.00  0.00    +0.000 C 
ATOM     22  C   UNL     1      10.761  12.791  17.197  0.00  0.00    +0.000 C 
ATOM     23  C   UNL     1      10.751  11.358  17.805  0.00  0.00    +0.000 C 
ATOM     24  N   UNL     1       9.487  13.505  17.417  0.00  0.00    +0.000 NA
ATOM     25  H   UNL     1       8.697  13.006  17.017  0.00  0.00    +0.000 HD
ENDBRANCH  16  17
ENDBRANCH   2  16
TORSDOF 5
ENDMDL
MODEL 7
REMARK VINA RESULT:      -7.4      6.759      8.652
REMARK  Name = 
REMARK  6 active torsions:
REMARK  status: ('A' for Active; 'I' for Inactive)
REMARK    1  A    between atoms: C_1  and  O_2
REMARK    2  A    between atoms: O_2  and  C_3
REMARK    3  A    between atoms: C_3  and  C_5
REMARK    4  A    between atoms: C_10  and  N_11
REMARK    5  A    between atoms: C_12  and  C_14
REMARK    6  A    between atoms: C_14  and  C_15
REMARK                            x       y       z     vdW  Elec       q    Type
REMARK                         _______ _______ _______ _____ _____    ______ ____
ROOT
ATOM      1  N   UNL     1       1.271   9.056  19.319  0.00  0.00    +0.000 N 
ATOM      2  C   UNL     1       2.121   8.374  18.461  0.00  0.00    +0.000 C 
ATOM      3  O   UNL     1       2.324   8.634  17.275  0.00  0.00    +0.000 OA
ATOM      4  H   UNL     1       1.059   8.620  20.210  0.00  0.00    +0.000 HD
ENDROOT
BRANCH   1  10
ATOM      5  C   UNL     1      -1.418  11.218  17.942  0.00  0.00    +0.000 A 
ATOM      6  C   UNL     1      -0.914  12.496  18.212  0.00  0.00    +0.000 A 
ATOM      7  C   UNL     1       0.294  12.626  18.885  0.00  0.00    +0.000 A 
ATOM      8 CL   UNL     1       0.909  14.193  19.242  0.00  0.00    +0.000 Cl
ATOM      9  C   UNL     1       1.016  11.501  19.273  0.00  0.00    +0.000 A 
ATOM     10  C   UNL     1       0.545  10.219  18.986  0.00  0.00    +0.000 A 
ATOM     11  C   UNL     1      -0.692  10.080  18.344  0.00  0.00    +0.000 A 
BRANCH   5  12
ATOM     12  C   UNL     1      -2.705  11.021  17.222  0.00  0.00    +0.000 C 
ATOM     13  O   UNL     1      -3.716  11.652  17.479  0.00  0.00    +0.000 OA
BRANCH  12  15
ATOM     14  C   UNL     1      -3.068  10.445  14.984  0.00  0.00    +0.000 C 
ATOM     15  O   UNL     1      -2.585  10.062  16.270  0.00  0.00    +0.000 OA
ENDBRANCH  12  15
ENDBRANCH   5  12
ENDBRANCH   1  10
BRANCH   2  16
ATOM     16  C   UNL     1       2.798   7.181  19.091  0.00  0.00    +0.000 C 
BRANCH  16  17
ATOM     17  C   UNL     1       2.377   5.829  18.516  0.00  0.00    +0.000 C 
ATOM     18  C   UNL     1       3.433   5.135  17.629  0.00  0.00    +0.000 C 
ATOM     19  C   UNL     1       3.004   3.696  17.245  0.00  0.00    +0.000 C 
ATOM     20  C   UNL     1       3.486   2.628  18.243  0.00  0.00    +0.000 C 
ATOM     21  C   UNL     1       2.258   2.330  19.108  0.00  0.00    +0.000 C 
ATOM     22  C   UNL     1       1.348   3.516  18.823  0.00  0.00    +0.000 C 
ATOM     23  C   UNL     1       1.843   4.808  19.538  0.00  0.00    +0.000 C 
ATOM     24  N   UNL     1       1.545   3.572  17.360  0.00  0.00    +0.000 NA
ATOM     25  H   UNL     1       1.059   4.361  16.942  0.00  0.00    +0.000 HD
ENDBRANCH  16  17
ENDBRANCH   2  16
TORSDOF 5
ENDMDL
MODEL 8
REMARK VINA RESULT:      -7.4      5.840      8.746
REMARK  Name = 
REMARK  6 active torsions:
REMARK  status: ('A' for Active; 'I' for Inactive)
REMARK    1  A    between atoms: C_1  and  O_2
REMARK    2  A    between atoms: O_2  and  C_3
REMARK    3  A    between atoms: C_3  and  C_5
REMARK    4  A    between atoms: C_10  and  N_11
REMARK    5  A    between atoms: C_12  and  C_14
REMARK    6  A    between atoms: C_14  and  C_15
REMARK                            x       y       z     vdW  Elec       q    Type
REMARK                         _______ _______ _______ _____ _____    ______ ____
ROOT
ATOM      1  N   UNL     1       2.564   6.940  20.013  0.00  0.00    +0.000 N 
ATOM      2  C   UNL     1       2.301   5.585  20.140  0.00  0.00    +0.000 C 
ATOM      3  O   UNL     1       1.285   5.080  20.618  0.00  0.00    +0.000 OA
ATOM      4  H   UNL     1       3.512   7.212  19.777  0.00  0.00    +0.000 HD
ENDROOT
BRANCH   1  10
ATOM      5  C   UNL     1       0.310   9.869  19.633  0.00  0.00    +0.000 A 
ATOM      6  C   UNL     1      -0.056  10.113  20.962  0.00  0.00    +0.000 A 
ATOM      7  C   UNL     1       0.415   9.278  21.966  0.00  0.00    +0.000 A 
ATOM      8 CL   UNL     1      -0.049   9.556  23.599  0.00  0.00    +0.000 Cl
ATOM      9  C   UNL     1       1.265   8.216  21.666  0.00  0.00    +0.000 A 
ATOM     10  C   UNL     1       1.666   7.976  20.350  0.00  0.00    +0.000 A 
ATOM     11  C   UNL     1       1.160   8.790  19.329  0.00  0.00    +0.000 A 
BRANCH   5  12
ATOM     12  C   UNL     1      -0.166  10.734  18.520  0.00  0.00    +0.000 C 
ATOM     13  O   UNL     1      -0.063  11.948  18.528  0.00  0.00    +0.000 OA
BRANCH  12  15
ATOM     14  C   UNL     1      -2.138  10.071  17.451  0.00  0.00    +0.000 C 
ATOM     15  O   UNL     1      -0.716   9.988  17.529  0.00  0.00    +0.000 OA
ENDBRANCH  12  15
ENDBRANCH   5  12
ENDBRANCH   1  10
BRANCH   2  16
ATOM     16  C   UNL     1       3.426   4.696  19.671  0.00  0.00    +0.000 C 
BRANCH  16  17
ATOM     17  C   UNL     1       4.448   5.381  18.764  0.00  0.00    +0.000 C 
ATOM     18  C   UNL     1       5.922   5.216  19.193  0.00  0.00    +0.000 C 
ATOM     19  C   UNL     1       6.897   5.774  18.126  0.00  0.00    +0.000 C 
ATOM     20  C   UNL     1       7.330   4.725  17.085  0.00  0.00    +0.000 C 
ATOM     21  C   UNL     1       6.460   5.019  15.861  0.00  0.00    +0.000 C 
ATOM     22  C   UNL     1       5.350   5.890  16.434  0.00  0.00    +0.000 C 
ATOM     23  C   UNL     1       4.331   5.054  17.264  0.00  0.00    +0.000 C 
ATOM     24  N   UNL     1       6.195   6.753  17.284  0.00  0.00    +0.000 NA
ATOM     25  H   UNL     1       5.640   7.403  17.835  0.00  0.00    +0.000 HD
ENDBRANCH  16  17
ENDBRANCH   2  16
TORSDOF 5
ENDMDL
MODEL 9
REMARK VINA RESULT:      -7.3      5.746      7.420
REMARK  Name = 
REMARK  6 active torsions:
REMARK  status: ('A' for Active; 'I' for Inactive)
REMARK    1  A    between atoms: C_1  and  O_2
REMARK    2  A    between atoms: O_2  and  C_3
REMARK    3  A    between atoms: C_3  and  C_5
REMARK    4  A    between atoms: C_10  and  N_11
REMARK    5  A    between atoms: C_12  and  C_14
REMARK    6  A    between atoms: C_14  and  C_15
REMARK                            x       y       z     vdW  Elec       q    Type
REMARK                         _______ _______ _______ _____ _____    ______ ____
ROOT
ATOM      1  N   UNL     1       1.981   7.603  18.908  0.00  0.00    +0.000 N 
ATOM      2  C   UNL     1       1.758   8.875  18.402  0.00  0.00    +0.000 C 
ATOM      3  O   UNL     1       2.233   9.342  17.366  0.00  0.00    +0.000 OA
ATOM      4  H   UNL     1       1.680   7.420  19.859  0.00  0.00    +0.000 HD
ENDROOT
BRANCH   1  10
ATOM      5  C   UNL     1       3.064   4.237  17.770  0.00  0.00    +0.000 A 
ATOM      6  C   UNL     1       4.259   4.538  17.105  0.00  0.00    +0.000 A 
ATOM      7  C   UNL     1       4.671   5.861  17.005  0.00  0.00    +0.000 A 
ATOM      8 CL   UNL     1       6.125   6.242  16.169  0.00  0.00    +0.000 Cl
ATOM      9  C   UNL     1       3.920   6.884  17.579  0.00  0.00    +0.000 A 
ATOM     10  C   UNL     1       2.743   6.599  18.272  0.00  0.00    +0.000 A 
ATOM     11  C   UNL     1       2.300   5.272  18.340  0.00  0.00    +0.000 A 
BRANCH   5  12
ATOM     12  C   UNL     1       2.578   2.838  17.907  0.00  0.00    +0.000 C 
ATOM     13  O   UNL     1       1.401   2.530  17.836  0.00  0.00    +0.000 OA
BRANCH  12  15
ATOM     14  C   UNL     1       4.013   1.877  19.486  0.00  0.00    +0.000 C 
ATOM     15  O   UNL     1       3.612   1.985  18.121  0.00  0.00    +0.000 OA
ENDBRANCH  12  15
ENDBRANCH   5  12
ENDBRANCH   1  10
BRANCH   2  16
ATOM     16  C   UNL     1       0.876   9.735  19.273  0.00  0.00    +0.000 C 
BRANCH  16  17
ATOM     17  C   UNL     1      -0.201  10.517  18.521  0.00  0.00    +0.000 C 
ATOM     18  C   UNL     1      -1.008   9.696  17.492  0.00  0.00    +0.000 C 
ATOM     19  C   UNL     1      -2.195  10.508  16.915  0.00  0.00    +0.000 C 
ATOM     20  C   UNL     1      -3.498  10.338  17.716  0.00  0.00    +0.000 C 
ATOM     21  C   UNL     1      -3.582  11.598  18.582  0.00  0.00    +0.000 C 
ATOM     22  C   UNL     1      -2.162  12.145  18.523  0.00  0.00    +0.000 C 
ATOM     23  C   UNL     1      -1.185  11.309  19.401  0.00  0.00    +0.000 C 
ATOM     24  N   UNL     1      -1.932  11.945  17.078  0.00  0.00    +0.000 NA
ATOM     25  H   UNL     1      -0.985  12.194  16.806  0.00  0.00    +0.000 HD
ENDBRANCH  16  17
ENDBRANCH   2  16
TORSDOF 5
ENDMDL
