MODEL 1
REMARK VINA RESULT:      -9.3      0.000      0.000
REMARK  Name = 
REMARK  4 active torsions:
REMARK  status: ('A' for Active; 'I' for Inactive)
REMARK    1  A    between atoms: C_2  and  C_13
REMARK    2  A    between atoms: N_3  and  N_4
REMARK    3  A    between atoms: C_5  and  C_6
REMARK    4  A    between atoms: C_15  and  C_16
REMARK                            x       y       z     vdW  Elec       q    Type
REMARK                         _______ _______ _______ _____ _____    ______ ____
ROOT
ATOM      1  C   UNL     1       3.262   4.553  19.459  0.00  0.00    +0.000 A 
ATOM      2  N   UNL     1       3.948   5.054  18.441  0.00  0.00    +0.000 NA
ATOM      3  C   UNL     1       4.625   4.017  17.791  0.00  0.00    +0.000 A 
ATOM      4  C   UNL     1       4.460   2.766  18.355  0.00  0.00    +0.000 A 
ATOM      5  S   UNL     1       3.429   2.860  19.712  0.00  0.00    +0.000 S 
ENDROOT
BRANCH   3   6
ATOM      6  C   UNL     1       5.450   4.300  16.643  0.00  0.00    +0.000 A 
ATOM      7  C   UNL     1       5.201   3.756  15.436  0.00  0.00    +0.000 A 
ATOM      8  C   UNL     1       6.020   4.067  14.274  0.00  0.00    +0.000 A 
ATOM      9  C   UNL     1       5.808   3.481  13.026  0.00  0.00    +0.000 A 
ATOM     10  C   UNL     1       6.623   3.825  11.940  0.00  0.00    +0.000 A 
ATOM     11  C   UNL     1       7.645   4.764  12.094  0.00  0.00    +0.000 A 
ATOM     12  C   UNL     1       7.861   5.354  13.336  0.00  0.00    +0.000 A 
ATOM     13  C   UNL     1       7.047   4.993  14.408  0.00  0.00    +0.000 A 
ATOM     14  O   UNL     1       7.315   5.587  15.648  0.00  0.00    +0.000 OA
ATOM     15  C   UNL     1       6.617   5.230  16.798  0.00  0.00    +0.000 A 
ATOM     16  O   UNL     1       6.961   5.688  17.885  0.00  0.00    +0.000 OA
ENDBRANCH   3   6
BRANCH   1  18
ATOM     17  O   UNL     1       1.709   4.806  21.240  0.00  0.00    +0.000 OA
ATOM     18  C   UNL     1       2.387   5.321  20.346  0.00  0.00    +0.000 C 
ATOM     19  N   UNL     1       2.364   6.694  20.093  0.00  0.00    +0.000 N 
ATOM     20  H   UNL     1       2.911   7.070  19.325  0.00  0.00    +0.000 HD
BRANCH  19  21
ATOM     21  N   UNL     1       1.500   7.476  20.807  0.00  0.00    +0.000 NA
ATOM     22  C   UNL     1       1.469   8.742  20.548  0.00  0.00    +0.000 C 
BRANCH  22  23
ATOM     23  C   UNL     1       0.513   9.630  21.254  0.00  0.00    +0.000 A 
ATOM     24  C   UNL     1       0.169   9.381  22.591  0.00  0.00    +0.000 A 
ATOM     25  C   UNL     1      -0.770  10.187  23.237  0.00  0.00    +0.000 A 
ATOM     26  C   UNL     1      -1.368  11.245  22.553  0.00  0.00    +0.000 A 
ATOM     27  C   UNL     1      -1.014  11.495  21.227  0.00  0.00    +0.000 A 
ATOM     28 BR   UNL     1      -1.836  12.925  20.301  0.00  0.00    +0.000 Br
ATOM     29  C   UNL     1      -0.073  10.698  20.571  0.00  0.00    +0.000 A 
ENDBRANCH  22  23
ENDBRANCH  19  21
ENDBRANCH   1  18
TORSDOF 4
ENDMDL
MODEL 2
REMARK VINA RESULT:      -9.2      1.717      1.926
REMARK  Name = 
REMARK  4 active torsions:
REMARK  status: ('A' for Active; 'I' for Inactive)
REMARK    1  A    between atoms: C_2  and  C_13
REMARK    2  A    between atoms: N_3  and  N_4
REMARK    3  A    between atoms: C_5  and  C_6
REMARK    4  A    between atoms: C_15  and  C_16
REMARK                            x       y       z     vdW  Elec       q    Type
REMARK                         _______ _______ _______ _____ _____    ______ ____
ROOT
ATOM      1  C   UNL     1       3.300   5.931  19.142  0.00  0.00    +0.000 A 
ATOM      2  N   UNL     1       3.913   6.105  17.979  0.00  0.00    +0.000 NA
ATOM      3  C   UNL     1       4.743   5.007  17.730  0.00  0.00    +0.000 A 
ATOM      4  C   UNL     1       4.762   4.050  18.727  0.00  0.00    +0.000 A 
ATOM      5  S   UNL     1       3.717   4.500  19.999  0.00  0.00    +0.000 S 
ENDROOT
BRANCH   3   6
ATOM      6  C   UNL     1       5.527   4.952  16.522  0.00  0.00    +0.000 A 
ATOM      7  C   UNL     1       5.122   4.258  15.441  0.00  0.00    +0.000 A 
ATOM      8  C   UNL     1       5.903   4.229  14.214  0.00  0.00    +0.000 A 
ATOM      9  C   UNL     1       5.524   3.480  13.099  0.00  0.00    +0.000 A 
ATOM     10  C   UNL     1       6.312   3.496  11.941  0.00  0.00    +0.000 A 
ATOM     11  C   UNL     1       7.472   4.270  11.887  0.00  0.00    +0.000 A 
ATOM     12  C   UNL     1       7.854   5.022  12.995  0.00  0.00    +0.000 A 
ATOM     13  C   UNL     1       7.065   4.986  14.142  0.00  0.00    +0.000 A 
ATOM     14  O   UNL     1       7.499   5.732  15.246  0.00  0.00    +0.000 OA
ATOM     15  C   UNL     1       6.830   5.695  16.465  0.00  0.00    +0.000 A 
ATOM     16  O   UNL     1       7.309   6.270  17.439  0.00  0.00    +0.000 OA
ENDBRANCH   3   6
BRANCH   1  18
ATOM     17  O   UNL     1       1.632   6.564  20.711  0.00  0.00    +0.000 OA
ATOM     18  C   UNL     1       2.312   6.843  19.720  0.00  0.00    +0.000 C 
ATOM     19  N   UNL     1       2.185   8.061  19.050  0.00  0.00    +0.000 N 
ATOM     20  H   UNL     1       2.740   8.235  18.217  0.00  0.00    +0.000 HD
BRANCH  19  21
ATOM     21  N   UNL     1       1.216   8.935  19.459  0.00  0.00    +0.000 NA
ATOM     22  C   UNL     1       0.730   9.757  18.588  0.00  0.00    +0.000 C 
BRANCH  22  23
ATOM     23  C   UNL     1      -0.360  10.690  18.963  0.00  0.00    +0.000 A 
ATOM     24  C   UNL     1      -0.199  11.572  20.042  0.00  0.00    +0.000 A 
ATOM     25  C   UNL     1      -1.245  12.413  20.425  0.00  0.00    +0.000 A 
ATOM     26  C   UNL     1      -2.456  12.378  19.734  0.00  0.00    +0.000 A 
ATOM     27  C   UNL     1      -2.607  11.506  18.655  0.00  0.00    +0.000 A 
ATOM     28 BR   UNL     1      -4.255  11.456  17.727  0.00  0.00    +0.000 Br
ATOM     29  C   UNL     1      -1.566  10.663  18.259  0.00  0.00    +0.000 A 
ENDBRANCH  22  23
ENDBRANCH  19  21
ENDBRANCH   1  18
TORSDOF 4
ENDMDL
MODEL 3
REMARK VINA RESULT:      -9.2      1.297      1.747
REMARK  Name = 
REMARK  4 active torsions:
REMARK  status: ('A' for Active; 'I' for Inactive)
REMARK    1  A    between atoms: C_2  and  C_13
REMARK    2  A    between atoms: N_3  and  N_4
REMARK    3  A    between atoms: C_5  and  C_6
REMARK    4  A    between atoms: C_15  and  C_16
REMARK                            x       y       z     vdW  Elec       q    Type
REMARK                         _______ _______ _______ _____ _____    ______ ____
ROOT
ATOM      1  C   UNL     1       3.261   5.663  19.193  0.00  0.00    +0.000 A 
ATOM      2  N   UNL     1       3.893   5.908  18.053  0.00  0.00    +0.000 NA
ATOM      3  C   UNL     1       4.701   4.813  17.733  0.00  0.00    +0.000 A 
ATOM      4  C   UNL     1       4.686   3.785  18.656  0.00  0.00    +0.000 A 
ATOM      5  S   UNL     1       3.635   4.163  19.946  0.00  0.00    +0.000 S 
ENDROOT
BRANCH   3   6
ATOM      6  C   UNL     1       5.499   4.830  16.532  0.00  0.00    +0.000 A 
ATOM      7  C   UNL     1       5.138   4.148  15.428  0.00  0.00    +0.000 A 
ATOM      8  C   UNL     1       5.932   4.191  14.210  0.00  0.00    +0.000 A 
ATOM      9  C   UNL     1       5.601   3.457  13.069  0.00  0.00    +0.000 A 
ATOM     10  C   UNL     1       6.398   3.544  11.921  0.00  0.00    +0.000 A 
ATOM     11  C   UNL     1       7.522   4.373  11.903  0.00  0.00    +0.000 A 
ATOM     12  C   UNL     1       7.856   5.109  13.036  0.00  0.00    +0.000 A 
ATOM     13  C   UNL     1       7.058   5.003  14.173  0.00  0.00    +0.000 A 
ATOM     14  O   UNL     1       7.446   5.737  15.302  0.00  0.00    +0.000 OA
ATOM     15  C   UNL     1       6.767   5.634  16.512  0.00  0.00    +0.000 A 
ATOM     16  O   UNL     1       7.207   6.202  17.507  0.00  0.00    +0.000 OA
ENDBRANCH   3   6
BRANCH   1  18
ATOM     17  O   UNL     1       1.547   6.199  20.749  0.00  0.00    +0.000 OA
ATOM     18  C   UNL     1       2.286   6.552  19.826  0.00  0.00    +0.000 C 
ATOM     19  N   UNL     1       2.243   7.841  19.291  0.00  0.00    +0.000 N 
ATOM     20  H   UNL     1       2.845   8.079  18.508  0.00  0.00    +0.000 HD
BRANCH  19  21
ATOM     21  N   UNL     1       1.294   8.710  19.753  0.00  0.00    +0.000 NA
ATOM     22  C   UNL     1       0.806   9.575  18.926  0.00  0.00    +0.000 C 
BRANCH  22  23
ATOM     23  C   UNL     1      -0.264  10.507  19.359  0.00  0.00    +0.000 A 
ATOM     24  C   UNL     1      -1.262  10.908  18.459  0.00  0.00    +0.000 A 
ATOM     25  C   UNL     1      -2.238  11.824  18.854  0.00  0.00    +0.000 A 
ATOM     26  C   UNL     1      -2.222  12.345  20.147  0.00  0.00    +0.000 A 
ATOM     27  C   UNL     1      -1.232  11.934  21.042  0.00  0.00    +0.000 A 
ATOM     28 BR   UNL     1      -1.209  12.651  22.793  0.00  0.00    +0.000 Br
ATOM     29  C   UNL     1      -0.253  11.014  20.660  0.00  0.00    +0.000 A 
ENDBRANCH  22  23
ENDBRANCH  19  21
ENDBRANCH   1  18
TORSDOF 4
ENDMDL
MODEL 4
REMARK VINA RESULT:      -8.7      1.416      1.462
REMARK  Name = 
REMARK  4 active torsions:
REMARK  status: ('A' for Active; 'I' for Inactive)
REMARK    1  A    between atoms: C_2  and  C_13
REMARK    2  A    between atoms: N_3  and  N_4
REMARK    3  A    between atoms: C_5  and  C_6
REMARK    4  A    between atoms: C_15  and  C_16
REMARK                            x       y       z     vdW  Elec       q    Type
REMARK                         _______ _______ _______ _____ _____    ______ ____
ROOT
ATOM      1  C   UNL     1       3.269   6.368  18.796  0.00  0.00    +0.000 A 
ATOM      2  N   UNL     1       3.858   6.387  17.608  0.00  0.00    +0.000 NA
ATOM      3  C   UNL     1       4.747   5.311  17.521  0.00  0.00    +0.000 A 
ATOM      4  C   UNL     1       4.832   4.529  18.657  0.00  0.00    +0.000 A 
ATOM      5  S   UNL     1       3.777   5.118  19.862  0.00  0.00    +0.000 S 
ENDROOT
BRANCH   3   6
ATOM      6  C   UNL     1       5.520   5.106  16.321  0.00  0.00    +0.000 A 
ATOM      7  C   UNL     1       5.033   4.419  15.270  0.00  0.00    +0.000 A 
ATOM      8  C   UNL     1       5.806   4.239  14.051  0.00  0.00    +0.000 A 
ATOM      9  C   UNL     1       5.340   3.493  12.967  0.00  0.00    +0.000 A 
ATOM     10  C   UNL     1       6.124   3.361  11.815  0.00  0.00    +0.000 A 
ATOM     11  C   UNL     1       7.372   3.983  11.734  0.00  0.00    +0.000 A 
ATOM     12  C   UNL     1       7.842   4.731  12.810  0.00  0.00    +0.000 A 
ATOM     13  C   UNL     1       7.053   4.844  13.953  0.00  0.00    +0.000 A 
ATOM     14  O   UNL     1       7.575   5.579  15.026  0.00  0.00    +0.000 OA
ATOM     15  C   UNL     1       6.905   5.679  16.241  0.00  0.00    +0.000 A 
ATOM     16  O   UNL     1       7.449   6.234  17.192  0.00  0.00    +0.000 OA
ENDBRANCH   3   6
BRANCH   1  18
ATOM     17  O   UNL     1       1.759   8.181  18.513  0.00  0.00    +0.000 OA
ATOM     18  C   UNL     1       2.236   7.305  19.240  0.00  0.00    +0.000 C 
ATOM     19  N   UNL     1       1.836   7.141  20.568  0.00  0.00    +0.000 N 
ATOM     20  H   UNL     1       2.280   6.430  21.141  0.00  0.00    +0.000 HD
BRANCH  19  21
ATOM     21  N   UNL     1       0.948   8.035  21.098  0.00  0.00    +0.000 NA
ATOM     22  C   UNL     1       1.370   9.229  21.361  0.00  0.00    +0.000 C 
BRANCH  22  23
ATOM     23  C   UNL     1       0.437  10.254  21.889  0.00  0.00    +0.000 A 
ATOM     24  C   UNL     1      -0.497   9.922  22.880  0.00  0.00    +0.000 A 
ATOM     25  C   UNL     1      -1.408  10.875  23.338  0.00  0.00    +0.000 A 
ATOM     26  C   UNL     1      -1.390  12.165  22.808  0.00  0.00    +0.000 A 
ATOM     27  C   UNL     1      -0.452  12.495  21.829  0.00  0.00    +0.000 A 
ATOM     28 BR   UNL     1      -0.439  14.243  21.107  0.00  0.00    +0.000 Br
ATOM     29  C   UNL     1       0.467  11.550  21.367  0.00  0.00    +0.000 A 
ENDBRANCH  22  23
ENDBRANCH  19  21
ENDBRANCH   1  18
TORSDOF 4
ENDMDL
MODEL 5
REMARK VINA RESULT:      -8.7      1.669      1.914
REMARK  Name = 
REMARK  4 active torsions:
REMARK  status: ('A' for Active; 'I' for Inactive)
REMARK    1  A    between atoms: C_2  and  C_13
REMARK    2  A    between atoms: N_3  and  N_4
REMARK    3  A    between atoms: C_5  and  C_6
REMARK    4  A    between atoms: C_15  and  C_16
REMARK                            x       y       z     vdW  Elec       q    Type
REMARK                         _______ _______ _______ _____ _____    ______ ____
ROOT
ATOM      1  C   UNL     1       3.098   6.040  19.101  0.00  0.00    +0.000 A 
ATOM      2  N   UNL     1       3.790   6.226  17.985  0.00  0.00    +0.000 NA
ATOM      3  C   UNL     1       4.493   5.055  17.683  0.00  0.00    +0.000 A 
ATOM      4  C   UNL     1       4.341   4.029  18.595  0.00  0.00    +0.000 A 
ATOM      5  S   UNL     1       3.290   4.506  19.853  0.00  0.00    +0.000 S 
ENDROOT
BRANCH   3   6
ATOM      6  C   UNL     1       5.330   4.997  16.510  0.00  0.00    +0.000 A 
ATOM      7  C   UNL     1       4.989   4.272  15.428  0.00  0.00    +0.000 A 
ATOM      8  C   UNL     1       5.824   4.239  14.236  0.00  0.00    +0.000 A 
ATOM      9  C   UNL     1       5.513   3.459  13.121  0.00  0.00    +0.000 A 
ATOM     10  C   UNL     1       6.349   3.473  11.998  0.00  0.00    +0.000 A 
ATOM     11  C   UNL     1       7.492   4.274  11.978  0.00  0.00    +0.000 A 
ATOM     12  C   UNL     1       7.806   5.057  13.086  0.00  0.00    +0.000 A 
ATOM     13  C   UNL     1       6.969   5.023  14.199  0.00  0.00    +0.000 A 
ATOM     14  O   UNL     1       7.337   5.801  15.305  0.00  0.00    +0.000 OA
ATOM     15  C   UNL     1       6.616   5.771  16.495  0.00  0.00    +0.000 A 
ATOM     16  O   UNL     1       7.037   6.377  17.477  0.00  0.00    +0.000 OA
ENDBRANCH   3   6
BRANCH   1  18
ATOM     17  O   UNL     1       1.533   6.793  20.723  0.00  0.00    +0.000 OA
ATOM     18  C   UNL     1       2.197   7.021  19.708  0.00  0.00    +0.000 C 
ATOM     19  N   UNL     1       2.133   8.244  19.037  0.00  0.00    +0.000 N 
ATOM     20  H   UNL     1       2.670   8.377  18.186  0.00  0.00    +0.000 HD
BRANCH  19  21
ATOM     21  N   UNL     1       1.244   9.185  19.476  0.00  0.00    +0.000 NA
ATOM     22  C   UNL     1       1.268  10.352  18.920  0.00  0.00    +0.000 C 
BRANCH  22  23
ATOM     23  C   UNL     1       0.291  11.394  19.319  0.00  0.00    +0.000 A 
ATOM     24  C   UNL     1      -0.881  11.042  20.004  0.00  0.00    +0.000 A 
ATOM     25  C   UNL     1      -1.823  12.018  20.333  0.00  0.00    +0.000 A 
ATOM     26  C   UNL     1      -1.600  13.349  19.980  0.00  0.00    +0.000 A 
ATOM     27  C   UNL     1      -0.427  13.695  19.308  0.00  0.00    +0.000 A 
ATOM     28 BR   UNL     1      -0.134  15.500  18.823  0.00  0.00    +0.000 Br
ATOM     29  C   UNL     1       0.525  12.728  18.977  0.00  0.00    +0.000 A 
ENDBRANCH  22  23
ENDBRANCH  19  21
ENDBRANCH   1  18
TORSDOF 4
ENDMDL
MODEL 6
REMARK VINA RESULT:      -8.5      1.707      2.222
REMARK  Name = 
REMARK  4 active torsions:
REMARK  status: ('A' for Active; 'I' for Inactive)
REMARK    1  A    between atoms: C_2  and  C_13
REMARK    2  A    between atoms: N_3  and  N_4
REMARK    3  A    between atoms: C_5  and  C_6
REMARK    4  A    between atoms: C_15  and  C_16
REMARK                            x       y       z     vdW  Elec       q    Type
REMARK                         _______ _______ _______ _____ _____    ______ ____
ROOT
ATOM      1  C   UNL     1       3.056   6.452  18.997  0.00  0.00    +0.000 A 
ATOM      2  N   UNL     1       3.743   6.531  17.865  0.00  0.00    +0.000 NA
ATOM      3  C   UNL     1       4.465   5.347  17.685  0.00  0.00    +0.000 A 
ATOM      4  C   UNL     1       4.332   4.420  18.701  0.00  0.00    +0.000 A 
ATOM      5  S   UNL     1       3.275   5.009  19.905  0.00  0.00    +0.000 S 
ENDROOT
BRANCH   3   6
ATOM      6  C   UNL     1       5.300   5.180  16.522  0.00  0.00    +0.000 A 
ATOM      7  C   UNL     1       4.893   4.474  15.449  0.00  0.00    +0.000 A 
ATOM      8  C   UNL     1       5.728   4.331  14.267  0.00  0.00    +0.000 A 
ATOM      9  C   UNL     1       5.346   3.567  13.163  0.00  0.00    +0.000 A 
ATOM     10  C   UNL     1       6.188   3.473  12.048  0.00  0.00    +0.000 A 
ATOM     11  C   UNL     1       7.408   4.150  12.024  0.00  0.00    +0.000 A 
ATOM     12  C   UNL     1       7.795   4.916  13.121  0.00  0.00    +0.000 A 
ATOM     13  C   UNL     1       6.950   4.991  14.227  0.00  0.00    +0.000 A 
ATOM     14  O   UNL     1       7.389   5.747  15.322  0.00  0.00    +0.000 OA
ATOM     15  C   UNL     1       6.660   5.814  16.505  0.00  0.00    +0.000 A 
ATOM     16  O   UNL     1       7.135   6.391  17.480  0.00  0.00    +0.000 OA
ENDBRANCH   3   6
BRANCH   1  18
ATOM     17  O   UNL     1       1.647   7.445  20.632  0.00  0.00    +0.000 OA
ATOM     18  C   UNL     1       2.140   7.477  19.501  0.00  0.00    +0.000 C 
ATOM     19  N   UNL     1       1.852   8.496  18.592  0.00  0.00    +0.000 N 
ATOM     20  H   UNL     1       2.253   8.464  17.660  0.00  0.00    +0.000 HD
BRANCH  19  21
ATOM     21  N   UNL     1       0.929   9.442  18.941  0.00  0.00    +0.000 NA
ATOM     22  C   UNL     1       1.343  10.650  19.147  0.00  0.00    +0.000 C 
BRANCH  22  23
ATOM     23  C   UNL     1       0.379  11.727  19.476  0.00  0.00    +0.000 A 
ATOM     24  C   UNL     1       0.328  12.896  18.702  0.00  0.00    +0.000 A 
ATOM     25  C   UNL     1      -0.544  13.930  19.045  0.00  0.00    +0.000 A 
ATOM     26  C   UNL     1      -1.370  13.803  20.162  0.00  0.00    +0.000 A 
ATOM     27  C   UNL     1      -1.324  12.634  20.923  0.00  0.00    +0.000 A 
ATOM     28 BR   UNL     1      -2.439  12.472  22.442  0.00  0.00    +0.000 Br
ATOM     29  C   UNL     1      -0.458  11.591  20.587  0.00  0.00    +0.000 A 
ENDBRANCH  22  23
ENDBRANCH  19  21
ENDBRANCH   1  18
TORSDOF 4
ENDMDL
MODEL 7
REMARK VINA RESULT:      -7.8      4.695     11.540
REMARK  Name = 
REMARK  4 active torsions:
REMARK  status: ('A' for Active; 'I' for Inactive)
REMARK    1  A    between atoms: C_2  and  C_13
REMARK    2  A    between atoms: N_3  and  N_4
REMARK    3  A    between atoms: C_5  and  C_6
REMARK    4  A    between atoms: C_15  and  C_16
REMARK                            x       y       z     vdW  Elec       q    Type
REMARK                         _______ _______ _______ _____ _____    ______ ____
ROOT
ATOM      1  C   UNL     1       0.983  10.791  19.011  0.00  0.00    +0.000 A 
ATOM      2  N   UNL     1      -0.221  10.714  19.561  0.00  0.00    +0.000 NA
ATOM      3  C   UNL     1      -0.606  11.985  19.999  0.00  0.00    +0.000 A 
ATOM      4  C   UNL     1       0.331  12.981  19.800  0.00  0.00    +0.000 A 
ATOM      5  S   UNL     1       1.719  12.344  19.037  0.00  0.00    +0.000 S 
ENDROOT
BRANCH   3   6
ATOM      6  C   UNL     1      -1.884  12.173  20.638  0.00  0.00    +0.000 A 
ATOM      7  C   UNL     1      -2.009  12.231  21.978  0.00  0.00    +0.000 A 
ATOM      8  C   UNL     1      -3.297  12.450  22.617  0.00  0.00    +0.000 A 
ATOM      9  C   UNL     1      -3.455  12.468  24.004  0.00  0.00    +0.000 A 
ATOM     10  C   UNL     1      -4.719  12.691  24.564  0.00  0.00    +0.000 A 
ATOM     11  C   UNL     1      -5.827  12.909  23.743  0.00  0.00    +0.000 A 
ATOM     12  C   UNL     1      -5.676  12.895  22.359  0.00  0.00    +0.000 A 
ATOM     13  C   UNL     1      -4.413  12.661  21.818  0.00  0.00    +0.000 A 
ATOM     14  O   UNL     1      -4.308  12.624  20.422  0.00  0.00    +0.000 OA
ATOM     15  C   UNL     1      -3.111  12.313  19.784  0.00  0.00    +0.000 A 
ATOM     16  O   UNL     1      -3.089  12.177  18.564  0.00  0.00    +0.000 OA
ENDBRANCH   3   6
BRANCH   1  18
ATOM     17  O   UNL     1       2.184   9.729  17.257  0.00  0.00    +0.000 OA
ATOM     18  C   UNL     1       1.700   9.675  18.391  0.00  0.00    +0.000 C 
ATOM     19  N   UNL     1       1.785   8.528  19.182  0.00  0.00    +0.000 N 
ATOM     20  H   UNL     1       1.342   8.516  20.096  0.00  0.00    +0.000 HD
BRANCH  19  21
ATOM     21  N   UNL     1       2.350   7.404  18.646  0.00  0.00    +0.000 NA
ATOM     22  C   UNL     1       2.229   6.293  19.295  0.00  0.00    +0.000 C 
BRANCH  22  23
ATOM     23  C   UNL     1       2.776   5.033  18.735  0.00  0.00    +0.000 A 
ATOM     24  C   UNL     1       2.371   3.793  19.250  0.00  0.00    +0.000 A 
ATOM     25  C   UNL     1       2.926   2.611  18.756  0.00  0.00    +0.000 A 
ATOM     26  C   UNL     1       3.887   2.662  17.747  0.00  0.00    +0.000 A 
ATOM     27  C   UNL     1       4.279   3.898  17.231  0.00  0.00    +0.000 A 
ATOM     28 BR   UNL     1       5.590   3.961  15.869  0.00  0.00    +0.000 Br
ATOM     29  C   UNL     1       3.728   5.087  17.714  0.00  0.00    +0.000 A 
ENDBRANCH  22  23
ENDBRANCH  19  21
ENDBRANCH   1  18
TORSDOF 4
ENDMDL
MODEL 8
REMARK VINA RESULT:      -7.8      4.808     11.845
REMARK  Name = 
REMARK  4 active torsions:
REMARK  status: ('A' for Active; 'I' for Inactive)
REMARK    1  A    between atoms: C_2  and  C_13
REMARK    2  A    between atoms: N_3  and  N_4
REMARK    3  A    between atoms: C_5  and  C_6
REMARK    4  A    between atoms: C_15  and  C_16
REMARK                            x       y       z     vdW  Elec       q    Type
REMARK                         _______ _______ _______ _____ _____    ______ ____
ROOT
ATOM      1  C   UNL     1       0.215  10.908  19.150  0.00  0.00    +0.000 A 
ATOM      2  N   UNL     1      -0.853  10.875  19.935  0.00  0.00    +0.000 NA
ATOM      3  C   UNL     1      -1.023  12.130  20.529  0.00  0.00    +0.000 A 
ATOM      4  C   UNL     1      -0.060  13.066  20.205  0.00  0.00    +0.000 A 
ATOM      5  S   UNL     1       1.078  12.395  19.124  0.00  0.00    +0.000 S 
ENDROOT
BRANCH   3   6
ATOM      6  C   UNL     1      -2.121  12.358  21.435  0.00  0.00    +0.000 A 
ATOM      7  C   UNL     1      -3.274  12.923  21.028  0.00  0.00    +0.000 A 
ATOM      8  C   UNL     1      -4.390  13.125  21.940  0.00  0.00    +0.000 A 
ATOM      9  C   UNL     1      -5.576  13.749  21.550  0.00  0.00    +0.000 A 
ATOM     10  C   UNL     1      -6.621  13.909  22.470  0.00  0.00    +0.000 A 
ATOM     11  C   UNL     1      -6.490  13.437  23.777  0.00  0.00    +0.000 A 
ATOM     12  C   UNL     1      -5.310  12.811  24.171  0.00  0.00    +0.000 A 
ATOM     13  C   UNL     1      -4.277  12.669  23.247  0.00  0.00    +0.000 A 
ATOM     14  O   UNL     1      -3.095  12.061  23.691  0.00  0.00    +0.000 OA
ATOM     15  C   UNL     1      -1.976  11.950  22.872  0.00  0.00    +0.000 A 
ATOM     16  O   UNL     1      -0.924  11.518  23.335  0.00  0.00    +0.000 OA
ENDBRANCH   3   6
BRANCH   1  18
ATOM     17  O   UNL     1      -0.008   9.261  17.452  0.00  0.00    +0.000 OA
ATOM     18  C   UNL     1       0.686   9.799  18.319  0.00  0.00    +0.000 C 
ATOM     19  N   UNL     1       1.989   9.380  18.593  0.00  0.00    +0.000 N 
ATOM     20  H   UNL     1       2.513   9.828  19.339  0.00  0.00    +0.000 HD
BRANCH  19  21
ATOM     21  N   UNL     1       2.477   8.286  17.934  0.00  0.00    +0.000 NA
ATOM     22  C   UNL     1       2.643   7.195  18.606  0.00  0.00    +0.000 C 
BRANCH  22  23
ATOM     23  C   UNL     1       3.119   5.963  17.932  0.00  0.00    +0.000 A 
ATOM     24  C   UNL     1       2.337   4.798  17.946  0.00  0.00    +0.000 A 
ATOM     25  C   UNL     1       2.810   3.626  17.354  0.00  0.00    +0.000 A 
ATOM     26  C   UNL     1       4.065   3.610  16.746  0.00  0.00    +0.000 A 
ATOM     27  C   UNL     1       4.835   4.774  16.725  0.00  0.00    +0.000 A 
ATOM     28 BR   UNL     1       6.540   4.744  15.908  0.00  0.00    +0.000 Br
ATOM     29  C   UNL     1       4.370   5.954  17.310  0.00  0.00    +0.000 A 
ENDBRANCH  22  23
ENDBRANCH  19  21
ENDBRANCH   1  18
TORSDOF 4
ENDMDL
MODEL 9
REMARK VINA RESULT:      -7.8      3.811      5.603
REMARK  Name = 
REMARK  4 active torsions:
REMARK  status: ('A' for Active; 'I' for Inactive)
REMARK    1  A    between atoms: C_2  and  C_13
REMARK    2  A    between atoms: N_3  and  N_4
REMARK    3  A    between atoms: C_5  and  C_6
REMARK    4  A    between atoms: C_15  and  C_16
REMARK                            x       y       z     vdW  Elec       q    Type
REMARK                         _______ _______ _______ _____ _____    ______ ____
ROOT
ATOM      1  C   UNL     1       1.260   9.620  20.058  0.00  0.00    +0.000 A 
ATOM      2  N   UNL     1       1.686   8.364  20.086  0.00  0.00    +0.000 NA
ATOM      3  C   UNL     1       2.038   7.971  18.791  0.00  0.00    +0.000 A 
ATOM      4  C   UNL     1       1.836   8.927  17.814  0.00  0.00    +0.000 A 
ATOM      5  S   UNL     1       1.215  10.358  18.506  0.00  0.00    +0.000 S 
ENDROOT
BRANCH   3   6
ATOM      6  C   UNL     1       2.534   6.639  18.550  0.00  0.00    +0.000 A 
ATOM      7  C   UNL     1       1.892   5.546  19.007  0.00  0.00    +0.000 A 
ATOM      8  C   UNL     1       2.381   4.203  18.736  0.00  0.00    +0.000 A 
ATOM      9  C   UNL     1       1.757   3.060  19.238  0.00  0.00    +0.000 A 
ATOM     10  C   UNL     1       2.268   1.791  18.938  0.00  0.00    +0.000 A 
ATOM     11  C   UNL     1       3.396   1.658  18.126  0.00  0.00    +0.000 A 
ATOM     12  C   UNL     1       4.021   2.794  17.620  0.00  0.00    +0.000 A 
ATOM     13  C   UNL     1       3.506   4.049  17.937  0.00  0.00    +0.000 A 
ATOM     14  O   UNL     1       4.182   5.168  17.433  0.00  0.00    +0.000 OA
ATOM     15  C   UNL     1       3.800   6.465  17.762  0.00  0.00    +0.000 A 
ATOM     16  O   UNL     1       4.488   7.414  17.395  0.00  0.00    +0.000 OA
ENDBRANCH   3   6
BRANCH   1  18
ATOM     17  O   UNL     1       0.815   9.935  22.371  0.00  0.00    +0.000 OA
ATOM     18  C   UNL     1       0.853  10.399  21.228  0.00  0.00    +0.000 C 
ATOM     19  N   UNL     1       0.492  11.718  20.949  0.00  0.00    +0.000 N 
ATOM     20  H   UNL     1       0.504  12.049  19.989  0.00  0.00    +0.000 HD
BRANCH  19  21
ATOM     21  N   UNL     1       0.002  12.491  21.965  0.00  0.00    +0.000 NA
ATOM     22  C   UNL     1      -1.280  12.556  22.118  0.00  0.00    +0.000 C 
BRANCH  22  23
ATOM     23  C   UNL     1      -1.864  13.337  23.235  0.00  0.00    +0.000 A 
ATOM     24  C   UNL     1      -3.175  13.089  23.665  0.00  0.00    +0.000 A 
ATOM     25  C   UNL     1      -3.740  13.859  24.683  0.00  0.00    +0.000 A 
ATOM     26  C   UNL     1      -2.999  14.881  25.276  0.00  0.00    +0.000 A 
ATOM     27  C   UNL     1      -1.690  15.117  24.852  0.00  0.00    +0.000 A 
ATOM     28 BR   UNL     1      -0.693  16.511  25.653  0.00  0.00    +0.000 Br
ATOM     29  C   UNL     1      -1.113  14.350  23.837  0.00  0.00    +0.000 A 
ENDBRANCH  22  23
ENDBRANCH  19  21
ENDBRANCH   1  18
TORSDOF 4
ENDMDL
