MODEL 1
REMARK VINA RESULT:      -7.5      0.000      0.000
REMARK  Name = 
REMARK  4 active torsions:
REMARK  status: ('A' for Active; 'I' for Inactive)
REMARK    1  A    between atoms: C_2  and  C_11
REMARK    2  A    between atoms: N_3  and  C_4
REMARK    3  A    between atoms: C_15  and  N_16
REMARK    4  A    between atoms: C_19  and  O_20
REMARK                            x       y       z     vdW  Elec       q    Type
REMARK                         _______ _______ _______ _____ _____    ______ ____
ROOT
ATOM      1  O   UNL     1       2.635   5.694  18.059  0.00  0.00    +0.000 OA
ATOM      2  C   UNL     1       3.118   6.822  18.030  0.00  0.00    +0.000 C 
ATOM      3  N   UNL     1       4.333   7.171  17.475  0.00  0.00    +0.000 N 
ATOM      4  H   UNL     1       4.643   8.126  17.640  0.00  0.00    +0.000 HD
ENDROOT
BRANCH   3   5
ATOM      5  C   UNL     1       5.247   6.298  16.849  0.00  0.00    +0.000 A 
ATOM      6  C   UNL     1       5.188   5.954  15.494  0.00  0.00    +0.000 A 
ATOM      7  C   UNL     1       6.086   5.034  14.942  0.00  0.00    +0.000 A 
ATOM      8  C   UNL     1       7.064   4.458  15.743  0.00  0.00    +0.000 A 
ATOM      9  C   UNL     1       7.148   4.821  17.080  0.00  0.00    +0.000 A 
ATOM     10  F   UNL     1       8.091   4.268  17.853  0.00  0.00    +0.000 F 
ATOM     11  C   UNL     1       6.256   5.737  17.638  0.00  0.00    +0.000 A 
ENDBRANCH   3   5
BRANCH   2  12
ATOM     12  C   UNL     1       2.326   7.920  18.667  0.00  0.00    +0.000 A 
ATOM     13  C   UNL     1       2.059   9.035  17.849  0.00  0.00    +0.000 A 
ATOM     14  C   UNL     1       1.274  10.093  18.302  0.00  0.00    +0.000 A 
ATOM     15  C   UNL     1       0.725  10.044  19.579  0.00  0.00    +0.000 A 
ATOM     16  C   UNL     1       0.984   8.939  20.411  0.00  0.00    +0.000 A 
ATOM     17  C   UNL     1       1.802   7.876  19.972  0.00  0.00    +0.000 A 
BRANCH  16  18
ATOM     18  N   UNL     1       0.356   8.916  21.736  0.00  0.00    +0.000 N 
ATOM     19  O   UNL     1       0.808   9.667  22.612  0.00  0.00    +0.000 OA
ATOM     20  O   UNL     1      -0.602   8.144  21.899  0.00  0.00    +0.000 OA
ENDBRANCH  16  18
BRANCH  17  21
ATOM     21  O   UNL     1       2.112   6.790  20.757  0.00  0.00    +0.000 OA
ATOM     22  H   UNL     1       3.087   6.725  20.877  0.00  0.00    +0.000 HD
ENDBRANCH  17  21
ENDBRANCH   2  12
TORSDOF 4
ENDMDL
MODEL 2
REMARK VINA RESULT:      -7.4      3.877      4.809
REMARK  Name = 
REMARK  4 active torsions:
REMARK  status: ('A' for Active; 'I' for Inactive)
REMARK    1  A    between atoms: C_2  and  C_11
REMARK    2  A    between atoms: N_3  and  C_4
REMARK    3  A    between atoms: C_15  and  N_16
REMARK    4  A    between atoms: C_19  and  O_20
REMARK                            x       y       z     vdW  Elec       q    Type
REMARK                         _______ _______ _______ _____ _____    ______ ____
ROOT
ATOM      1  O   UNL     1       6.585   4.221  17.493  0.00  0.00    +0.000 OA
ATOM      2  C   UNL     1       5.431   4.433  17.131  0.00  0.00    +0.000 C 
ATOM      3  N   UNL     1       4.997   4.536  15.824  0.00  0.00    +0.000 N 
ATOM      4  H   UNL     1       4.033   4.833  15.696  0.00  0.00    +0.000 HD
ENDROOT
BRANCH   3   5
ATOM      5  C   UNL     1       5.795   4.426  14.667  0.00  0.00    +0.000 A 
ATOM      6  C   UNL     1       6.966   5.164  14.459  0.00  0.00    +0.000 A 
ATOM      7  C   UNL     1       7.684   5.058  13.264  0.00  0.00    +0.000 A 
ATOM      8  C   UNL     1       7.243   4.198  12.266  0.00  0.00    +0.000 A 
ATOM      9  C   UNL     1       6.101   3.439  12.481  0.00  0.00    +0.000 A 
ATOM     10  F   UNL     1       5.675   2.607  11.522  0.00  0.00    +0.000 F 
ATOM     11  C   UNL     1       5.379   3.539  13.670  0.00  0.00    +0.000 A 
ENDBRANCH   3   5
BRANCH   2  12
ATOM     12  C   UNL     1       4.402   4.612  18.202  0.00  0.00    +0.000 A 
ATOM     13  C   UNL     1       3.650   5.801  18.134  0.00  0.00    +0.000 A 
ATOM     14  C   UNL     1       2.617   6.055  19.032  0.00  0.00    +0.000 A 
ATOM     15  C   UNL     1       2.303   5.111  20.004  0.00  0.00    +0.000 A 
ATOM     16  C   UNL     1       3.045   3.919  20.088  0.00  0.00    +0.000 A 
ATOM     17  C   UNL     1       4.114   3.666  19.202  0.00  0.00    +0.000 A 
BRANCH  16  18
ATOM     18  N   UNL     1       2.656   2.939  21.108  0.00  0.00    +0.000 N 
ATOM     19  O   UNL     1       1.461   2.864  21.423  0.00  0.00    +0.000 OA
ATOM     20  O   UNL     1       3.556   2.233  21.591  0.00  0.00    +0.000 OA
ENDBRANCH  16  18
BRANCH  17  21
ATOM     21  O   UNL     1       4.890   2.532  19.262  0.00  0.00    +0.000 OA
ATOM     22  H   UNL     1       5.037   2.173  18.358  0.00  0.00    +0.000 HD
ENDBRANCH  17  21
ENDBRANCH   2  12
TORSDOF 4
ENDMDL
MODEL 3
REMARK VINA RESULT:      -7.4      4.283      5.015
REMARK  Name = 
REMARK  4 active torsions:
REMARK  status: ('A' for Active; 'I' for Inactive)
REMARK    1  A    between atoms: C_2  and  C_11
REMARK    2  A    between atoms: N_3  and  C_4
REMARK    3  A    between atoms: C_15  and  N_16
REMARK    4  A    between atoms: C_19  and  O_20
REMARK                            x       y       z     vdW  Elec       q    Type
REMARK                         _______ _______ _______ _____ _____    ______ ____
ROOT
ATOM      1  O   UNL     1       5.146   6.145  16.437  0.00  0.00    +0.000 OA
ATOM      2  C   UNL     1       4.790   4.973  16.505  0.00  0.00    +0.000 C 
ATOM      3  N   UNL     1       5.071   3.984  15.584  0.00  0.00    +0.000 N 
ATOM      4  H   UNL     1       4.601   3.093  15.726  0.00  0.00    +0.000 HD
ENDROOT
BRANCH   3   5
ATOM      5  C   UNL     1       5.809   4.138  14.392  0.00  0.00    +0.000 A 
ATOM      6  C   UNL     1       5.487   3.497  13.190  0.00  0.00    +0.000 A 
ATOM      7  C   UNL     1       6.293   3.640  12.056  0.00  0.00    +0.000 A 
ATOM      8  C   UNL     1       7.426   4.441  12.111  0.00  0.00    +0.000 A 
ATOM      9  C   UNL     1       7.732   5.106  13.290  0.00  0.00    +0.000 A 
ATOM     10  F   UNL     1       8.823   5.880  13.344  0.00  0.00    +0.000 F 
ATOM     11  C   UNL     1       6.934   4.968  14.426  0.00  0.00    +0.000 A 
ENDBRANCH   3   5
BRANCH   2  12
ATOM     12  C   UNL     1       3.961   4.580  17.687  0.00  0.00    +0.000 A 
ATOM     13  C   UNL     1       2.624   5.023  17.671  0.00  0.00    +0.000 A 
ATOM     14  C   UNL     1       1.732   4.667  18.679  0.00  0.00    +0.000 A 
ATOM     15  C   UNL     1       2.159   3.843  19.715  0.00  0.00    +0.000 A 
ATOM     16  C   UNL     1       3.491   3.393  19.748  0.00  0.00    +0.000 A 
ATOM     17  C   UNL     1       4.410   3.772  18.747  0.00  0.00    +0.000 A 
BRANCH  16  18
ATOM     18  N   UNL     1       3.886   2.498  20.842  0.00  0.00    +0.000 N 
ATOM     19  O   UNL     1       4.953   1.878  20.736  0.00  0.00    +0.000 OA
ATOM     20  O   UNL     1       3.122   2.421  21.818  0.00  0.00    +0.000 OA
ENDBRANCH  16  18
BRANCH  17  21
ATOM     21  O   UNL     1       5.731   3.387  18.751  0.00  0.00    +0.000 OA
ATOM     22  H   UNL     1       6.316   4.177  18.728  0.00  0.00    +0.000 HD
ENDBRANCH  17  21
ENDBRANCH   2  12
TORSDOF 4
ENDMDL
MODEL 4
REMARK VINA RESULT:      -7.3      4.263      5.029
REMARK  Name = 
REMARK  4 active torsions:
REMARK  status: ('A' for Active; 'I' for Inactive)
REMARK    1  A    between atoms: C_2  and  C_11
REMARK    2  A    between atoms: N_3  and  C_4
REMARK    3  A    between atoms: C_15  and  N_16
REMARK    4  A    between atoms: C_19  and  O_20
REMARK                            x       y       z     vdW  Elec       q    Type
REMARK                         _______ _______ _______ _____ _____    ______ ____
ROOT
ATOM      1  O   UNL     1       4.719   6.323  16.492  0.00  0.00    +0.000 OA
ATOM      2  C   UNL     1       4.609   5.130  16.758  0.00  0.00    +0.000 C 
ATOM      3  N   UNL     1       5.126   4.083  16.021  0.00  0.00    +0.000 N 
ATOM      4  H   UNL     1       4.843   3.150  16.311  0.00  0.00    +0.000 HD
ENDROOT
BRANCH   3   5
ATOM      5  C   UNL     1       5.865   4.188  14.826  0.00  0.00    +0.000 A 
ATOM      6  C   UNL     1       7.027   4.958  14.696  0.00  0.00    +0.000 A 
ATOM      7  C   UNL     1       7.685   5.073  13.467  0.00  0.00    +0.000 A 
ATOM      8  C   UNL     1       7.191   4.404  12.354  0.00  0.00    +0.000 A 
ATOM      9  C   UNL     1       6.058   3.613  12.485  0.00  0.00    +0.000 A 
ATOM     10  F   UNL     1       5.583   2.966  11.414  0.00  0.00    +0.000 F 
ATOM     11  C   UNL     1       5.397   3.493  13.706  0.00  0.00    +0.000 A 
ENDBRANCH   3   5
BRANCH   2  12
ATOM     12  C   UNL     1       3.830   4.774  17.985  0.00  0.00    +0.000 A 
ATOM     13  C   UNL     1       2.562   5.378  18.101  0.00  0.00    +0.000 A 
ATOM     14  C   UNL     1       1.712   5.076  19.161  0.00  0.00    +0.000 A 
ATOM     15  C   UNL     1       2.109   4.147  20.118  0.00  0.00    +0.000 A 
ATOM     16  C   UNL     1       3.372   3.536  20.019  0.00  0.00    +0.000 A 
ATOM     17  C   UNL     1       4.253   3.857  18.964  0.00  0.00    +0.000 A 
BRANCH  16  18
ATOM     18  N   UNL     1       3.732   2.538  21.032  0.00  0.00    +0.000 N 
ATOM     19  O   UNL     1       2.926   2.311  21.944  0.00  0.00    +0.000 OA
ATOM     20  O   UNL     1       4.829   1.971  20.906  0.00  0.00    +0.000 OA
ENDBRANCH  16  18
BRANCH  17  21
ATOM     21  O   UNL     1       5.510   3.313  18.840  0.00  0.00    +0.000 OA
ATOM     22  H   UNL     1       6.194   3.986  19.058  0.00  0.00    +0.000 HD
ENDBRANCH  17  21
ENDBRANCH   2  12
TORSDOF 4
ENDMDL
MODEL 5
REMARK VINA RESULT:      -7.3      3.821      4.720
REMARK  Name = 
REMARK  4 active torsions:
REMARK  status: ('A' for Active; 'I' for Inactive)
REMARK    1  A    between atoms: C_2  and  C_11
REMARK    2  A    between atoms: N_3  and  C_4
REMARK    3  A    between atoms: C_15  and  N_16
REMARK    4  A    between atoms: C_19  and  O_20
REMARK                            x       y       z     vdW  Elec       q    Type
REMARK                         _______ _______ _______ _____ _____    ______ ____
ROOT
ATOM      1  O   UNL     1       4.913   6.674  15.994  0.00  0.00    +0.000 OA
ATOM      2  C   UNL     1       4.823   5.519  16.400  0.00  0.00    +0.000 C 
ATOM      3  N   UNL     1       5.267   4.390  15.742  0.00  0.00    +0.000 N 
ATOM      4  H   UNL     1       5.008   3.499  16.157  0.00  0.00    +0.000 HD
ENDROOT
BRANCH   3   5
ATOM      5  C   UNL     1       5.897   4.352  14.481  0.00  0.00    +0.000 A 
ATOM      6  C   UNL     1       5.441   3.579  13.407  0.00  0.00    +0.000 A 
ATOM      7  C   UNL     1       6.144   3.535  12.199  0.00  0.00    +0.000 A 
ATOM      8  C   UNL     1       7.308   4.278  12.048  0.00  0.00    +0.000 A 
ATOM      9  C   UNL     1       7.746   5.073  13.099  0.00  0.00    +0.000 A 
ATOM     10  F   UNL     1       8.867   5.791  12.954  0.00  0.00    +0.000 F 
ATOM     11  C   UNL     1       7.052   5.122  14.307  0.00  0.00    +0.000 A 
ENDBRANCH   3   5
BRANCH   2  12
ATOM     12  C   UNL     1       4.155   5.312  17.723  0.00  0.00    +0.000 A 
ATOM     13  C   UNL     1       3.298   6.348  18.144  0.00  0.00    +0.000 A 
ATOM     14  C   UNL     1       2.566   6.245  19.324  0.00  0.00    +0.000 A 
ATOM     15  C   UNL     1       2.664   5.093  20.096  0.00  0.00    +0.000 A 
ATOM     16  C   UNL     1       3.517   4.050  19.693  0.00  0.00    +0.000 A 
ATOM     17  C   UNL     1       4.286   4.156  18.514  0.00  0.00    +0.000 A 
BRANCH  16  18
ATOM     18  N   UNL     1       3.562   2.840  20.521  0.00  0.00    +0.000 N 
ATOM     19  O   UNL     1       2.546   2.527  21.156  0.00  0.00    +0.000 OA
ATOM     20  O   UNL     1       4.623   2.195  20.530  0.00  0.00    +0.000 OA
ENDBRANCH  16  18
BRANCH  17  21
ATOM     21  O   UNL     1       5.158   3.180  18.092  0.00  0.00    +0.000 OA
ATOM     22  H   UNL     1       5.352   3.288  17.134  0.00  0.00    +0.000 HD
ENDBRANCH  17  21
ENDBRANCH   2  12
TORSDOF 4
ENDMDL
MODEL 6
REMARK VINA RESULT:      -7.3      3.722      4.637
REMARK  Name = 
REMARK  4 active torsions:
REMARK  status: ('A' for Active; 'I' for Inactive)
REMARK    1  A    between atoms: C_2  and  C_11
REMARK    2  A    between atoms: N_3  and  C_4
REMARK    3  A    between atoms: C_15  and  N_16
REMARK    4  A    between atoms: C_19  and  O_20
REMARK                            x       y       z     vdW  Elec       q    Type
REMARK                         _______ _______ _______ _____ _____    ______ ____
ROOT
ATOM      1  O   UNL     1       6.558   4.110  17.246  0.00  0.00    +0.000 OA
ATOM      2  C   UNL     1       5.406   4.410  16.947  0.00  0.00    +0.000 C 
ATOM      3  N   UNL     1       4.916   4.569  15.666  0.00  0.00    +0.000 N 
ATOM      4  H   UNL     1       3.970   4.936  15.592  0.00  0.00    +0.000 HD
ENDROOT
BRANCH   3   5
ATOM      5  C   UNL     1       5.646   4.427  14.468  0.00  0.00    +0.000 A 
ATOM      6  C   UNL     1       5.272   3.569  13.428  0.00  0.00    +0.000 A 
ATOM      7  C   UNL     1       6.070   3.424  12.288  0.00  0.00    +0.000 A 
ATOM      8  C   UNL     1       7.248   4.151  12.173  0.00  0.00    +0.000 A 
ATOM      9  C   UNL     1       7.607   5.028  13.187  0.00  0.00    +0.000 A 
ATOM     10  F   UNL     1       8.741   5.730  13.076  0.00  0.00    +0.000 F 
ATOM     11  C   UNL     1       6.817   5.178  14.327  0.00  0.00    +0.000 A 
ENDBRANCH   3   5
BRANCH   2  12
ATOM     12  C   UNL     1       4.447   4.640  18.072  0.00  0.00    +0.000 A 
ATOM     13  C   UNL     1       3.867   5.922  18.128  0.00  0.00    +0.000 A 
ATOM     14  C   UNL     1       2.908   6.241  19.086  0.00  0.00    +0.000 A 
ATOM     15  C   UNL     1       2.497   5.272  19.996  0.00  0.00    +0.000 A 
ATOM     16  C   UNL     1       3.068   3.987  19.956  0.00  0.00    +0.000 A 
ATOM     17  C   UNL     1       4.062   3.663  19.008  0.00  0.00    +0.000 A 
BRANCH  16  18
ATOM     18  N   UNL     1       2.579   2.989  20.914  0.00  0.00    +0.000 N 
ATOM     19  O   UNL     1       1.355   2.840  21.031  0.00  0.00    +0.000 OA
ATOM     20  O   UNL     1       3.429   2.344  21.548  0.00  0.00    +0.000 OA
ENDBRANCH  16  18
BRANCH  17  21
ATOM     21  O   UNL     1       4.674   2.433  18.948  0.00  0.00    +0.000 OA
ATOM     22  H   UNL     1       4.025   1.744  18.679  0.00  0.00    +0.000 HD
ENDBRANCH  17  21
ENDBRANCH   2  12
TORSDOF 4
ENDMDL
MODEL 7
REMARK VINA RESULT:      -7.3      1.040      1.646
REMARK  Name = 
REMARK  4 active torsions:
REMARK  status: ('A' for Active; 'I' for Inactive)
REMARK    1  A    between atoms: C_2  and  C_11
REMARK    2  A    between atoms: N_3  and  C_4
REMARK    3  A    between atoms: C_15  and  N_16
REMARK    4  A    between atoms: C_19  and  O_20
REMARK                            x       y       z     vdW  Elec       q    Type
REMARK                         _______ _______ _______ _____ _____    ______ ____
ROOT
ATOM      1  O   UNL     1       2.603   5.580  18.218  0.00  0.00    +0.000 OA
ATOM      2  C   UNL     1       3.117   6.694  18.170  0.00  0.00    +0.000 C 
ATOM      3  N   UNL     1       4.365   6.990  17.660  0.00  0.00    +0.000 N 
ATOM      4  H   UNL     1       4.692   7.943  17.804  0.00  0.00    +0.000 HD
ENDROOT
BRANCH   3   5
ATOM      5  C   UNL     1       5.283   6.072  17.111  0.00  0.00    +0.000 A 
ATOM      6  C   UNL     1       6.351   5.519  17.827  0.00  0.00    +0.000 A 
ATOM      7  C   UNL     1       7.266   4.659  17.211  0.00  0.00    +0.000 A 
ATOM      8  C   UNL     1       7.112   4.332  15.870  0.00  0.00    +0.000 A 
ATOM      9  C   UNL     1       6.035   4.850  15.164  0.00  0.00    +0.000 A 
ATOM     10  F   UNL     1       5.884   4.534  13.872  0.00  0.00    +0.000 F 
ATOM     11  C   UNL     1       5.119   5.709  15.770  0.00  0.00    +0.000 A 
ENDBRANCH   3   5
BRANCH   2  12
ATOM     12  C   UNL     1       2.325   7.834  18.727  0.00  0.00    +0.000 A 
ATOM     13  C   UNL     1       2.091   8.906  17.843  0.00  0.00    +0.000 A 
ATOM     14  C   UNL     1       1.311   9.996  18.218  0.00  0.00    +0.000 A 
ATOM     15  C   UNL     1       0.733  10.024  19.483  0.00  0.00    +0.000 A 
ATOM     16  C   UNL     1       0.958   8.964  20.380  0.00  0.00    +0.000 A 
ATOM     17  C   UNL     1       1.772   7.869  20.020  0.00  0.00    +0.000 A 
BRANCH  16  18
ATOM     18  N   UNL     1       0.301   9.022  21.690  0.00  0.00    +0.000 N 
ATOM     19  O   UNL     1      -0.618   8.225  21.921  0.00  0.00    +0.000 OA
ATOM     20  O   UNL     1       0.714   9.870  22.497  0.00  0.00    +0.000 OA
ENDBRANCH  16  18
BRANCH  17  21
ATOM     21  O   UNL     1       2.050   6.824  20.870  0.00  0.00    +0.000 OA
ATOM     22  H   UNL     1       1.416   6.086  20.720  0.00  0.00    +0.000 HD
ENDBRANCH  17  21
ENDBRANCH   2  12
TORSDOF 4
ENDMDL
MODEL 8
REMARK VINA RESULT:      -7.3      2.761      2.983
REMARK  Name = 
REMARK  4 active torsions:
REMARK  status: ('A' for Active; 'I' for Inactive)
REMARK    1  A    between atoms: C_2  and  C_11
REMARK    2  A    between atoms: N_3  and  C_4
REMARK    3  A    between atoms: C_15  and  N_16
REMARK    4  A    between atoms: C_19  and  O_20
REMARK                            x       y       z     vdW  Elec       q    Type
REMARK                         _______ _______ _______ _____ _____    ______ ____
ROOT
ATOM      1  O   UNL     1       3.695   6.700  17.693  0.00  0.00    +0.000 OA
ATOM      2  C   UNL     1       2.762   6.643  18.489  0.00  0.00    +0.000 C 
ATOM      3  N   UNL     1       2.241   5.493  19.048  0.00  0.00    +0.000 N 
ATOM      4  H   UNL     1       1.391   5.607  19.594  0.00  0.00    +0.000 HD
ENDROOT
BRANCH   3   5
ATOM      5  C   UNL     1       2.676   4.174  18.803  0.00  0.00    +0.000 A 
ATOM      6  C   UNL     1       2.221   3.391  17.736  0.00  0.00    +0.000 A 
ATOM      7  C   UNL     1       2.643   2.067  17.579  0.00  0.00    +0.000 A 
ATOM      8  C   UNL     1       3.540   1.516  18.487  0.00  0.00    +0.000 A 
ATOM      9  C   UNL     1       4.020   2.298  19.527  0.00  0.00    +0.000 A 
ATOM     10  F   UNL     1       4.885   1.769  20.401  0.00  0.00    +0.000 F 
ATOM     11  C   UNL     1       3.604   3.619  19.691  0.00  0.00    +0.000 A 
ENDBRANCH   3   5
BRANCH   2  12
ATOM     12  C   UNL     1       2.117   7.936  18.878  0.00  0.00    +0.000 A 
ATOM     13  C   UNL     1       1.982   8.886  17.847  0.00  0.00    +0.000 A 
ATOM     14  C   UNL     1       1.339  10.101  18.063  0.00  0.00    +0.000 A 
ATOM     15  C   UNL     1       0.800  10.381  19.315  0.00  0.00    +0.000 A 
ATOM     16  C   UNL     1       0.928   9.444  20.357  0.00  0.00    +0.000 A 
ATOM     17  C   UNL     1       1.604   8.222  20.156  0.00  0.00    +0.000 A 
BRANCH  16  18
ATOM     18  N   UNL     1       0.315   9.768  21.650  0.00  0.00    +0.000 N 
ATOM     19  O   UNL     1      -0.416   8.921  22.180  0.00  0.00    +0.000 OA
ATOM     20  O   UNL     1       0.575  10.879  22.141  0.00  0.00    +0.000 OA
ENDBRANCH  16  18
BRANCH  17  21
ATOM     21  O   UNL     1       1.785   7.288  21.149  0.00  0.00    +0.000 OA
ATOM     22  H   UNL     1       1.006   6.689  21.198  0.00  0.00    +0.000 HD
ENDBRANCH  17  21
ENDBRANCH   2  12
TORSDOF 4
ENDMDL
MODEL 9
REMARK VINA RESULT:      -7.0      2.232      2.861
REMARK  Name = 
REMARK  4 active torsions:
REMARK  status: ('A' for Active; 'I' for Inactive)
REMARK    1  A    between atoms: C_2  and  C_11
REMARK    2  A    between atoms: N_3  and  C_4
REMARK    3  A    between atoms: C_15  and  N_16
REMARK    4  A    between atoms: C_19  and  O_20
REMARK                            x       y       z     vdW  Elec       q    Type
REMARK                         _______ _______ _______ _____ _____    ______ ____
ROOT
ATOM      1  O   UNL     1       2.343   8.749  17.395  0.00  0.00    +0.000 OA
ATOM      2  C   UNL     1       1.988   8.339  18.497  0.00  0.00    +0.000 C 
ATOM      3  N   UNL     1       2.267   7.096  19.029  0.00  0.00    +0.000 N 
ATOM      4  H   UNL     1       1.798   6.869  19.903  0.00  0.00    +0.000 HD
ENDROOT
BRANCH   3   5
ATOM      5  C   UNL     1       3.001   6.066  18.406  0.00  0.00    +0.000 A 
ATOM      6  C   UNL     1       4.376   6.136  18.154  0.00  0.00    +0.000 A 
ATOM      7  C   UNL     1       5.040   5.107  17.477  0.00  0.00    +0.000 A 
ATOM      8  C   UNL     1       4.332   3.988  17.056  0.00  0.00    +0.000 A 
ATOM      9  C   UNL     1       2.975   3.899  17.334  0.00  0.00    +0.000 A 
ATOM     10  F   UNL     1       2.292   2.820  16.931  0.00  0.00    +0.000 F 
ATOM     11  C   UNL     1       2.306   4.920  18.008  0.00  0.00    +0.000 A 
ENDBRANCH   3   5
BRANCH   2  12
ATOM     12  C   UNL     1       1.163   9.265  19.335  0.00  0.00    +0.000 A 
ATOM     13  C   UNL     1       0.427  10.236  18.628  0.00  0.00    +0.000 A 
ATOM     14  C   UNL     1      -0.431  11.113  19.286  0.00  0.00    +0.000 A 
ATOM     15  C   UNL     1      -0.583  11.020  20.666  0.00  0.00    +0.000 A 
ATOM     16  C   UNL     1       0.146  10.057  21.387  0.00  0.00    +0.000 A 
ATOM     17  C   UNL     1       1.040   9.184  20.733  0.00  0.00    +0.000 A 
BRANCH  16  18
ATOM     18  N   UNL     1      -0.073   9.974  22.836  0.00  0.00    +0.000 N 
ATOM     19  O   UNL     1      -1.195  10.259  23.276  0.00  0.00    +0.000 OA
ATOM     20  O   UNL     1       0.886   9.614  23.536  0.00  0.00    +0.000 OA
ENDBRANCH  16  18
BRANCH  17  21
ATOM     21  O   UNL     1       1.800   8.248  21.395  0.00  0.00    +0.000 OA
ATOM     22  H   UNL     1       1.819   8.446  22.359  0.00  0.00    +0.000 HD
ENDBRANCH  17  21
ENDBRANCH   2  12
TORSDOF 4
ENDMDL
