MODEL 1
REMARK VINA RESULT:      -8.8      0.000      0.000
REMARK  Name = 
REMARK  4 active torsions:
REMARK  status: ('A' for Active; 'I' for Inactive)
REMARK    1  A    between atoms: C_4  and  O_5
REMARK    2  A    between atoms: O_5  and  C_6
REMARK    3  A    between atoms: C_10  and  C_11
REMARK    4  A    between atoms: C_17  and  C_18
REMARK                            x       y       z     vdW  Elec       q    Type
REMARK                         _______ _______ _______ _____ _____    ______ ____
ROOT
ATOM      1  C   UNL     1       2.080   6.797  20.218  0.00  0.00    +0.000 A 
ATOM      2  C   UNL     1       1.357   5.616  20.791  0.00  0.00    +0.000 A 
ATOM      3  C   UNL     1       1.905   4.408  20.634  0.00  0.00    +0.000 A 
ATOM      4  C   UNL     1       3.107   4.282  19.912  0.00  0.00    +0.000 A 
ATOM      5  N   UNL     1       3.798   3.211  19.595  0.00  0.00    +0.000 NA
ATOM      6  C   UNL     1       4.861   3.682  18.870  0.00  0.00    +0.000 A 
ATOM      7  C   UNL     1       4.826   5.057  18.757  0.00  0.00    +0.000 A 
ATOM      8  N   UNL     1       3.679   5.443  19.411  0.00  0.00    +0.000 N 
ATOM      9  N   UNL     1       3.190   6.721  19.540  0.00  0.00    +0.000 NA
ENDROOT
BRANCH   1  14
ATOM     10  C   UNL     1       0.470  10.187  19.636  0.00  0.00    +0.000 A 
ATOM     11  C   UNL     1       0.163  10.579  20.936  0.00  0.00    +0.000 A 
ATOM     12  C   UNL     1       0.475   9.737  22.006  0.00  0.00    +0.000 A 
ATOM     13  C   UNL     1       1.100   8.504  21.775  0.00  0.00    +0.000 A 
ATOM     14  C   UNL     1       1.466   8.135  20.477  0.00  0.00    +0.000 A 
ATOM     15  C   UNL     1       1.174   8.999  19.415  0.00  0.00    +0.000 A 
BRANCH  10  16
ATOM     16  O   UNL     1       0.050  11.004  18.604  0.00  0.00    +0.000 OA
BRANCH  16  20
ATOM     17  C   UNL     1      -3.968  10.629  17.541  0.00  0.00    +0.000 A 
ATOM     18  C   UNL     1      -3.595  11.651  18.411  0.00  0.00    +0.000 A 
ATOM     19  C   UNL     1      -2.251  11.832  18.732  0.00  0.00    +0.000 A 
ATOM     20  C   UNL     1      -1.282  10.945  18.242  0.00  0.00    +0.000 A 
ATOM     21  C   UNL     1      -1.653   9.948  17.340  0.00  0.00    +0.000 A 
ATOM     22  C   UNL     1      -2.996   9.791  16.988  0.00  0.00    +0.000 A 
ENDBRANCH  16  20
ENDBRANCH  10  16
ENDBRANCH   1  14
BRANCH   7  23
ATOM     23  C   UNL     1       5.832   5.901  18.064  0.00  0.00    +0.000 A 
ATOM     24  C   UNL     1       7.165   6.168  18.468  0.00  0.00    +0.000 A 
ATOM     25  C   UNL     1       7.696   7.000  17.510  0.00  0.00    +0.000 A 
ATOM     26  O   UNL     1       6.776   7.267  16.549  0.00  0.00    +0.000 OA
ATOM     27  C   UNL     1       5.643   6.598  16.892  0.00  0.00    +0.000 A 
ENDBRANCH   7  23
TORSDOF 4
ENDMDL
MODEL 2
REMARK VINA RESULT:      -8.4      2.275      3.610
REMARK  Name = 
REMARK  4 active torsions:
REMARK  status: ('A' for Active; 'I' for Inactive)
REMARK    1  A    between atoms: C_4  and  O_5
REMARK    2  A    between atoms: O_5  and  C_6
REMARK    3  A    between atoms: C_10  and  C_11
REMARK    4  A    between atoms: C_17  and  C_18
REMARK                            x       y       z     vdW  Elec       q    Type
REMARK                         _______ _______ _______ _____ _____    ______ ____
ROOT
ATOM      1  C   UNL     1       2.224   7.739  19.117  0.00  0.00    +0.000 A 
ATOM      2  C   UNL     1       2.946   8.163  17.875  0.00  0.00    +0.000 A 
ATOM      3  C   UNL     1       3.645   7.239  17.210  0.00  0.00    +0.000 A 
ATOM      4  C   UNL     1       3.712   5.926  17.713  0.00  0.00    +0.000 A 
ATOM      5  N   UNL     1       4.362   4.877  17.264  0.00  0.00    +0.000 NA
ATOM      6  C   UNL     1       4.082   3.880  18.161  0.00  0.00    +0.000 A 
ATOM      7  C   UNL     1       3.238   4.322  19.159  0.00  0.00    +0.000 A 
ATOM      8  N   UNL     1       3.017   5.651  18.883  0.00  0.00    +0.000 N 
ATOM      9  N   UNL     1       2.265   6.536  19.617  0.00  0.00    +0.000 NA
ENDROOT
BRANCH   1  14
ATOM     10  C   UNL     1      -0.048  10.736  19.647  0.00  0.00    +0.000 A 
ATOM     11  C   UNL     1      -0.286  10.669  21.017  0.00  0.00    +0.000 A 
ATOM     12  C   UNL     1       0.289   9.643  21.771  0.00  0.00    +0.000 A 
ATOM     13  C   UNL     1       1.107   8.687  21.155  0.00  0.00    +0.000 A 
ATOM     14  C   UNL     1       1.399   8.787  19.791  0.00  0.00    +0.000 A 
ATOM     15  C   UNL     1       0.841   9.835  19.050  0.00  0.00    +0.000 A 
BRANCH  10  16
ATOM     16  O   UNL     1      -0.719  11.705  18.927  0.00  0.00    +0.000 OA
BRANCH  16  20
ATOM     17  C   UNL     1      -4.457  10.873  17.269  0.00  0.00    +0.000 A 
ATOM     18  C   UNL     1      -3.330  10.255  16.732  0.00  0.00    +0.000 A 
ATOM     19  C   UNL     1      -2.080  10.471  17.308  0.00  0.00    +0.000 A 
ATOM     20  C   UNL     1      -1.941  11.365  18.379  0.00  0.00    +0.000 A 
ATOM     21  C   UNL     1      -3.076  11.951  18.940  0.00  0.00    +0.000 A 
ATOM     22  C   UNL     1      -4.334  11.703  18.386  0.00  0.00    +0.000 A 
ENDBRANCH  16  20
ENDBRANCH  10  16
ENDBRANCH   1  14
BRANCH   7  23
ATOM     23  C   UNL     1       2.707   3.504  20.279  0.00  0.00    +0.000 A 
ATOM     24  C   UNL     1       1.362   3.406  20.719  0.00  0.00    +0.000 A 
ATOM     25  C   UNL     1       1.369   2.532  21.781  0.00  0.00    +0.000 A 
ATOM     26  O   UNL     1       2.629   2.093  22.027  0.00  0.00    +0.000 OA
ATOM     27  C   UNL     1       3.439   2.689  21.112  0.00  0.00    +0.000 A 
ENDBRANCH   7  23
TORSDOF 4
ENDMDL
MODEL 3
REMARK VINA RESULT:      -8.4      0.914      1.181
REMARK  Name = 
REMARK  4 active torsions:
REMARK  status: ('A' for Active; 'I' for Inactive)
REMARK    1  A    between atoms: C_4  and  O_5
REMARK    2  A    between atoms: O_5  and  C_6
REMARK    3  A    between atoms: C_10  and  C_11
REMARK    4  A    between atoms: C_17  and  C_18
REMARK                            x       y       z     vdW  Elec       q    Type
REMARK                         _______ _______ _______ _____ _____    ______ ____
ROOT
ATOM      1  C   UNL     1       2.142   6.348  20.007  0.00  0.00    +0.000 A 
ATOM      2  C   UNL     1       1.524   5.295  20.875  0.00  0.00    +0.000 A 
ATOM      3  C   UNL     1       1.930   4.032  20.716  0.00  0.00    +0.000 A 
ATOM      4  C   UNL     1       2.881   3.732  19.723  0.00  0.00    +0.000 A 
ATOM      5  N   UNL     1       3.391   2.578  19.357  0.00  0.00    +0.000 NA
ATOM      6  C   UNL     1       4.247   2.882  18.332  0.00  0.00    +0.000 A 
ATOM      7  C   UNL     1       4.272   4.238  18.080  0.00  0.00    +0.000 A 
ATOM      8  N   UNL     1       3.372   4.786  18.964  0.00  0.00    +0.000 N 
ATOM      9  N   UNL     1       3.020   6.110  19.074  0.00  0.00    +0.000 NA
ENDROOT
BRANCH   1  14
ATOM     10  C   UNL     1       0.860   9.878  19.441  0.00  0.00    +0.000 A 
ATOM     11  C   UNL     1       0.736  10.345  20.747  0.00  0.00    +0.000 A 
ATOM     12  C   UNL     1       1.065   9.507  21.816  0.00  0.00    +0.000 A 
ATOM     13  C   UNL     1       1.524   8.205  21.578  0.00  0.00    +0.000 A 
ATOM     14  C   UNL     1       1.708   7.755  20.266  0.00  0.00    +0.000 A 
ATOM     15  C   UNL     1       1.403   8.611  19.203  0.00  0.00    +0.000 A 
BRANCH  10  16
ATOM     16  O   UNL     1       0.425  10.704  18.423  0.00  0.00    +0.000 OA
BRANCH  16  20
ATOM     17  C   UNL     1      -3.697  10.746  17.772  0.00  0.00    +0.000 A 
ATOM     18  C   UNL     1      -3.139  11.702  18.617  0.00  0.00    +0.000 A 
ATOM     19  C   UNL     1      -1.758  11.745  18.802  0.00  0.00    +0.000 A 
ATOM     20  C   UNL     1      -0.936  10.784  18.198  0.00  0.00    +0.000 A 
ATOM     21  C   UNL     1      -1.491   9.853  17.320  0.00  0.00    +0.000 A 
ATOM     22  C   UNL     1      -2.872   9.836  17.106  0.00  0.00    +0.000 A 
ENDBRANCH  16  20
ENDBRANCH  10  16
ENDBRANCH   1  14
BRANCH   7  23
ATOM     23  C   UNL     1       5.107   4.921  17.059  0.00  0.00    +0.000 A 
ATOM     24  C   UNL     1       5.135   4.682  15.662  0.00  0.00    +0.000 A 
ATOM     25  C   UNL     1       6.063   5.554  15.142  0.00  0.00    +0.000 A 
ATOM     26  O   UNL     1       6.611   6.308  16.129  0.00  0.00    +0.000 OA
ATOM     27  C   UNL     1       6.028   5.917  17.293  0.00  0.00    +0.000 A 
ENDBRANCH   7  23
TORSDOF 4
ENDMDL
MODEL 4
REMARK VINA RESULT:      -8.4      2.051      2.814
REMARK  Name = 
REMARK  4 active torsions:
REMARK  status: ('A' for Active; 'I' for Inactive)
REMARK    1  A    between atoms: C_4  and  O_5
REMARK    2  A    between atoms: O_5  and  C_6
REMARK    3  A    between atoms: C_10  and  C_11
REMARK    4  A    between atoms: C_17  and  C_18
REMARK                            x       y       z     vdW  Elec       q    Type
REMARK                         _______ _______ _______ _____ _____    ______ ____
ROOT
ATOM      1  C   UNL     1       2.317   6.407  19.733  0.00  0.00    +0.000 A 
ATOM      2  C   UNL     1       1.546   5.622  20.751  0.00  0.00    +0.000 A 
ATOM      3  C   UNL     1       1.943   4.373  21.012  0.00  0.00    +0.000 A 
ATOM      4  C   UNL     1       3.031   3.830  20.303  0.00  0.00    +0.000 A 
ATOM      5  N   UNL     1       3.564   2.631  20.354  0.00  0.00    +0.000 NA
ATOM      6  C   UNL     1       4.577   2.659  19.432  0.00  0.00    +0.000 A 
ATOM      7  C   UNL     1       4.673   3.893  18.823  0.00  0.00    +0.000 A 
ATOM      8  N   UNL     1       3.658   4.644  19.369  0.00  0.00    +0.000 N 
ATOM      9  N   UNL     1       3.324   5.939  19.053  0.00  0.00    +0.000 NA
ENDROOT
BRANCH   1  14
ATOM     10  C   UNL     1       1.228   9.976  20.441  0.00  0.00    +0.000 A 
ATOM     11  C   UNL     1       1.219  10.526  19.161  0.00  0.00    +0.000 A 
ATOM     12  C   UNL     1       1.574   9.735  18.065  0.00  0.00    +0.000 A 
ATOM     13  C   UNL     1       1.931   8.393  18.249  0.00  0.00    +0.000 A 
ATOM     14  C   UNL     1       1.881   7.821  19.524  0.00  0.00    +0.000 A 
ATOM     15  C   UNL     1       1.498   8.614  20.612  0.00  0.00    +0.000 A 
BRANCH  10  16
ATOM     16  O   UNL     1       0.972  10.822  21.503  0.00  0.00    +0.000 OA
BRANCH  16  20
ATOM     17  C   UNL     1      -2.851  12.397  22.073  0.00  0.00    +0.000 A 
ATOM     18  C   UNL     1      -2.269  12.480  20.809  0.00  0.00    +0.000 A 
ATOM     19  C   UNL     1      -1.020  11.908  20.581  0.00  0.00    +0.000 A 
ATOM     20  C   UNL     1      -0.313  11.313  21.635  0.00  0.00    +0.000 A 
ATOM     21  C   UNL     1      -0.913  11.194  22.889  0.00  0.00    +0.000 A 
ATOM     22  C   UNL     1      -2.183  11.735  23.106  0.00  0.00    +0.000 A 
ENDBRANCH  16  20
ENDBRANCH  10  16
ENDBRANCH   1  14
BRANCH   7  23
ATOM     23  C   UNL     1       5.673   4.285  17.797  0.00  0.00    +0.000 A 
ATOM     24  C   UNL     1       5.534   4.231  16.387  0.00  0.00    +0.000 A 
ATOM     25  C   UNL     1       6.721   4.693  15.868  0.00  0.00    +0.000 A 
ATOM     26  O   UNL     1       7.582   5.020  16.865  0.00  0.00    +0.000 OA
ATOM     27  C   UNL     1       6.939   4.767  18.037  0.00  0.00    +0.000 A 
ENDBRANCH   7  23
TORSDOF 4
ENDMDL
MODEL 5
REMARK VINA RESULT:      -8.4      3.213      8.411
REMARK  Name = 
REMARK  4 active torsions:
REMARK  status: ('A' for Active; 'I' for Inactive)
REMARK    1  A    between atoms: C_4  and  O_5
REMARK    2  A    between atoms: O_5  and  C_6
REMARK    3  A    between atoms: C_10  and  C_11
REMARK    4  A    between atoms: C_17  and  C_18
REMARK                            x       y       z     vdW  Elec       q    Type
REMARK                         _______ _______ _______ _____ _____    ______ ____
ROOT
ATOM      1  C   UNL     1       0.544   9.869  19.837  0.00  0.00    +0.000 A 
ATOM      2  C   UNL     1       0.844  10.455  21.183  0.00  0.00    +0.000 A 
ATOM      3  C   UNL     1      -0.003  11.364  21.675  0.00  0.00    +0.000 A 
ATOM      4  C   UNL     1      -1.110  11.765  20.905  0.00  0.00    +0.000 A 
ATOM      5  N   UNL     1      -2.038  12.661  21.155  0.00  0.00    +0.000 NA
ATOM      6  C   UNL     1      -2.846  12.648  20.048  0.00  0.00    +0.000 A 
ATOM      7  C   UNL     1      -2.414  11.723  19.119  0.00  0.00    +0.000 A 
ATOM      8  N   UNL     1      -1.279  11.169  19.663  0.00  0.00    +0.000 N 
ATOM      9  N   UNL     1      -0.466  10.218  19.092  0.00  0.00    +0.000 NA
ENDROOT
BRANCH   1  14
ATOM     10  C   UNL     1       2.580   6.667  19.699  0.00  0.00    +0.000 A 
ATOM     11  C   UNL     1       3.103   6.721  18.409  0.00  0.00    +0.000 A 
ATOM     12  C   UNL     1       2.788   7.800  17.579  0.00  0.00    +0.000 A 
ATOM     13  C   UNL     1       1.955   8.828  18.042  0.00  0.00    +0.000 A 
ATOM     14  C   UNL     1       1.479   8.807  19.357  0.00  0.00    +0.000 A 
ATOM     15  C   UNL     1       1.823   7.736  20.189  0.00  0.00    +0.000 A 
BRANCH  10  16
ATOM     16  O   UNL     1       2.834   5.532  20.445  0.00  0.00    +0.000 OA
BRANCH  16  20
ATOM     17  C   UNL     1       1.603   1.946  18.699  0.00  0.00    +0.000 A 
ATOM     18  C   UNL     1       2.965   2.234  18.759  0.00  0.00    +0.000 A 
ATOM     19  C   UNL     1       3.402   3.396  19.391  0.00  0.00    +0.000 A 
ATOM     20  C   UNL     1       2.474   4.314  19.902  0.00  0.00    +0.000 A 
ATOM     21  C   UNL     1       1.113   4.005  19.877  0.00  0.00    +0.000 A 
ATOM     22  C   UNL     1       0.679   2.820  19.277  0.00  0.00    +0.000 A 
ENDBRANCH  16  20
ENDBRANCH  10  16
ENDBRANCH   1  14
BRANCH   7  23
ATOM     23  C   UNL     1      -3.066  11.423  17.819  0.00  0.00    +0.000 A 
ATOM     24  C   UNL     1      -2.438  11.084  16.593  0.00  0.00    +0.000 A 
ATOM     25  C   UNL     1      -3.452  10.902  15.681  0.00  0.00    +0.000 A 
ATOM     26  O   UNL     1      -4.659  11.113  16.264  0.00  0.00    +0.000 OA
ATOM     27  C   UNL     1      -4.418  11.432  17.564  0.00  0.00    +0.000 A 
ENDBRANCH   7  23
TORSDOF 4
ENDMDL
MODEL 6
REMARK VINA RESULT:      -8.3      2.909      8.216
REMARK  Name = 
REMARK  4 active torsions:
REMARK  status: ('A' for Active; 'I' for Inactive)
REMARK    1  A    between atoms: C_4  and  O_5
REMARK    2  A    between atoms: O_5  and  C_6
REMARK    3  A    between atoms: C_10  and  C_11
REMARK    4  A    between atoms: C_17  and  C_18
REMARK                            x       y       z     vdW  Elec       q    Type
REMARK                         _______ _______ _______ _____ _____    ______ ____
ROOT
ATOM      1  C   UNL     1       2.076   7.578  19.260  0.00  0.00    +0.000 A 
ATOM      2  C   UNL     1       2.639   8.017  17.942  0.00  0.00    +0.000 A 
ATOM      3  C   UNL     1       2.469   9.292  17.581  0.00  0.00    +0.000 A 
ATOM      4  C   UNL     1       1.742  10.157  18.418  0.00  0.00    +0.000 A 
ATOM      5  N   UNL     1       1.412  11.418  18.255  0.00  0.00    +0.000 NA
ATOM      6  C   UNL     1       0.688  11.739  19.373  0.00  0.00    +0.000 A 
ATOM      7  C   UNL     1       0.588  10.666  20.235  0.00  0.00    +0.000 A 
ATOM      8  N   UNL     1       1.250   9.636  19.608  0.00  0.00    +0.000 N 
ATOM      9  N   UNL     1       1.393   8.347  20.060  0.00  0.00    +0.000 NA
ENDROOT
BRANCH   1  14
ATOM     10  C   UNL     1       3.741   4.175  19.517  0.00  0.00    +0.000 A 
ATOM     11  C   UNL     1       2.976   3.562  20.507  0.00  0.00    +0.000 A 
ATOM     12  C   UNL     1       1.919   4.259  21.096  0.00  0.00    +0.000 A 
ATOM     13  C   UNL     1       1.623   5.568  20.692  0.00  0.00    +0.000 A 
ATOM     14  C   UNL     1       2.349   6.163  19.655  0.00  0.00    +0.000 A 
ATOM     15  C   UNL     1       3.388   5.446  19.052  0.00  0.00    +0.000 A 
BRANCH  10  16
ATOM     16  O   UNL     1       4.838   3.486  19.038  0.00  0.00    +0.000 OA
BRANCH  16  20
ATOM     17  C   UNL     1       6.824   4.833  15.624  0.00  0.00    +0.000 A 
ATOM     18  C   UNL     1       5.605   4.175  15.478  0.00  0.00    +0.000 A 
ATOM     19  C   UNL     1       4.895   3.770  16.607  0.00  0.00    +0.000 A 
ATOM     20  C   UNL     1       5.438   3.957  17.886  0.00  0.00    +0.000 A 
ATOM     21  C   UNL     1       6.639   4.651  18.032  0.00  0.00    +0.000 A 
ATOM     22  C   UNL     1       7.331   5.091  16.900  0.00  0.00    +0.000 A 
ENDBRANCH  16  20
ENDBRANCH  10  16
ENDBRANCH   1  14
BRANCH   7  23
ATOM     23  C   UNL     1      -0.100  10.666  21.551  0.00  0.00    +0.000 A 
ATOM     24  C   UNL     1      -1.174  11.492  21.968  0.00  0.00    +0.000 A 
ATOM     25  C   UNL     1      -1.463  11.123  23.261  0.00  0.00    +0.000 A 
ATOM     26  O   UNL     1      -0.633  10.129  23.668  0.00  0.00    +0.000 OA
ATOM     27  C   UNL     1       0.196   9.857  22.625  0.00  0.00    +0.000 A 
ENDBRANCH   7  23
TORSDOF 4
ENDMDL
MODEL 7
REMARK VINA RESULT:      -8.2      3.777      8.105
REMARK  Name = 
REMARK  4 active torsions:
REMARK  status: ('A' for Active; 'I' for Inactive)
REMARK    1  A    between atoms: C_4  and  O_5
REMARK    2  A    between atoms: O_5  and  C_6
REMARK    3  A    between atoms: C_10  and  C_11
REMARK    4  A    between atoms: C_17  and  C_18
REMARK                            x       y       z     vdW  Elec       q    Type
REMARK                         _______ _______ _______ _____ _____    ______ ____
ROOT
ATOM      1  C   UNL     1       0.673   9.716  20.935  0.00  0.00    +0.000 A 
ATOM      2  C   UNL     1       0.056   9.009  22.103  0.00  0.00    +0.000 A 
ATOM      3  C   UNL     1      -0.668   9.732  22.963  0.00  0.00    +0.000 A 
ATOM      4  C   UNL     1      -0.791  11.120  22.768  0.00  0.00    +0.000 A 
ATOM      5  N   UNL     1      -1.404  12.028  23.493  0.00  0.00    +0.000 NA
ATOM      6  C   UNL     1      -1.176  13.210  22.839  0.00  0.00    +0.000 A 
ATOM      7  C   UNL     1      -0.430  13.019  21.695  0.00  0.00    +0.000 A 
ATOM      8  N   UNL     1      -0.161  11.671  21.660  0.00  0.00    +0.000 N 
ATOM      9  N   UNL     1       0.586  10.999  20.723  0.00  0.00    +0.000 NA
ENDROOT
BRANCH   1  14
ATOM     10  C   UNL     1       2.633   6.813  19.469  0.00  0.00    +0.000 A 
ATOM     11  C   UNL     1       2.672   7.153  18.119  0.00  0.00    +0.000 A 
ATOM     12  C   UNL     1       2.054   8.328  17.683  0.00  0.00    +0.000 A 
ATOM     13  C   UNL     1       1.402   9.165  18.598  0.00  0.00    +0.000 A 
ATOM     14  C   UNL     1       1.415   8.858  19.963  0.00  0.00    +0.000 A 
ATOM     15  C   UNL     1       2.061   7.693  20.392  0.00  0.00    +0.000 A 
BRANCH  10  16
ATOM     16  O   UNL     1       3.166   5.593  19.836  0.00  0.00    +0.000 OA
BRANCH  16  20
ATOM     17  C   UNL     1       0.927   2.257  18.708  0.00  0.00    +0.000 A 
ATOM     18  C   UNL     1       2.085   2.562  17.997  0.00  0.00    +0.000 A 
ATOM     19  C   UNL     1       2.881   3.635  18.394  0.00  0.00    +0.000 A 
ATOM     20  C   UNL     1       2.481   4.454  19.460  0.00  0.00    +0.000 A 
ATOM     21  C   UNL     1       1.344   4.123  20.195  0.00  0.00    +0.000 A 
ATOM     22  C   UNL     1       0.568   3.023  19.820  0.00  0.00    +0.000 A 
ENDBRANCH  16  20
ENDBRANCH  10  16
ENDBRANCH   1  14
BRANCH   7  23
ATOM     23  C   UNL     1      -0.022  14.074  20.732  0.00  0.00    +0.000 A 
ATOM     24  C   UNL     1      -0.780  14.608  19.659  0.00  0.00    +0.000 A 
ATOM     25  C   UNL     1       0.019  15.552  19.057  0.00  0.00    +0.000 A 
ATOM     26  O   UNL     1       1.220  15.628  19.685  0.00  0.00    +0.000 OA
ATOM     27  C   UNL     1       1.190  14.725  20.702  0.00  0.00    +0.000 A 
ENDBRANCH   7  23
TORSDOF 4
ENDMDL
MODEL 8
REMARK VINA RESULT:      -8.2      1.371      1.654
REMARK  Name = 
REMARK  4 active torsions:
REMARK  status: ('A' for Active; 'I' for Inactive)
REMARK    1  A    between atoms: C_4  and  O_5
REMARK    2  A    between atoms: O_5  and  C_6
REMARK    3  A    between atoms: C_10  and  C_11
REMARK    4  A    between atoms: C_17  and  C_18
REMARK                            x       y       z     vdW  Elec       q    Type
REMARK                         _______ _______ _______ _____ _____    ______ ____
ROOT
ATOM      1  C   UNL     1       2.509   6.638  18.776  0.00  0.00    +0.000 A 
ATOM      2  C   UNL     1       1.728   5.435  18.340  0.00  0.00    +0.000 A 
ATOM      3  C   UNL     1       2.393   4.432  17.759  0.00  0.00    +0.000 A 
ATOM      4  C   UNL     1       3.778   4.554  17.543  0.00  0.00    +0.000 A 
ATOM      5  N   UNL     1       4.622   3.732  16.960  0.00  0.00    +0.000 NA
ATOM      6  C   UNL     1       5.830   4.375  17.014  0.00  0.00    +0.000 A 
ATOM      7  C   UNL     1       5.726   5.595  17.650  0.00  0.00    +0.000 A 
ATOM      8  N   UNL     1       4.394   5.722  17.972  0.00  0.00    +0.000 N 
ATOM      9  N   UNL     1       3.789   6.790  18.589  0.00  0.00    +0.000 NA
ENDROOT
BRANCH   1  14
ATOM     10  C   UNL     1       0.536   9.817  19.422  0.00  0.00    +0.000 A 
ATOM     11  C   UNL     1       0.146   9.642  20.748  0.00  0.00    +0.000 A 
ATOM     12  C   UNL     1       0.521   8.483  21.432  0.00  0.00    +0.000 A 
ATOM     13  C   UNL     1       1.292   7.503  20.793  0.00  0.00    +0.000 A 
ATOM     14  C   UNL     1       1.737   7.705  19.482  0.00  0.00    +0.000 A 
ATOM     15  C   UNL     1       1.379   8.882  18.815  0.00  0.00    +0.000 A 
BRANCH  10  16
ATOM     16  O   UNL     1       0.055  10.928  18.756  0.00  0.00    +0.000 OA
BRANCH  16  20
ATOM     17  C   UNL     1      -3.921  10.661  17.518  0.00  0.00    +0.000 A 
ATOM     18  C   UNL     1      -3.577  11.612  18.475  0.00  0.00    +0.000 A 
ATOM     19  C   UNL     1      -2.245  11.760  18.859  0.00  0.00    +0.000 A 
ATOM     20  C   UNL     1      -1.262  10.905  18.340  0.00  0.00    +0.000 A 
ATOM     21  C   UNL     1      -1.602   9.981  17.352  0.00  0.00    +0.000 A 
ATOM     22  C   UNL     1      -2.932   9.861  16.940  0.00  0.00    +0.000 A 
ENDBRANCH  16  20
ENDBRANCH  10  16
ENDBRANCH   1  14
BRANCH   7  23
ATOM     23  C   UNL     1       6.840   6.542  17.909  0.00  0.00    +0.000 A 
ATOM     24  C   UNL     1       7.093   7.780  17.265  0.00  0.00    +0.000 A 
ATOM     25  C   UNL     1       8.233   8.287  17.843  0.00  0.00    +0.000 A 
ATOM     26  O   UNL     1       8.701   7.440  18.795  0.00  0.00    +0.000 OA
ATOM     27  C   UNL     1       7.851   6.379  18.829  0.00  0.00    +0.000 A 
ENDBRANCH   7  23
TORSDOF 4
ENDMDL
MODEL 9
REMARK VINA RESULT:      -8.1      1.805      2.648
REMARK  Name = 
REMARK  4 active torsions:
REMARK  status: ('A' for Active; 'I' for Inactive)
REMARK    1  A    between atoms: C_4  and  O_5
REMARK    2  A    between atoms: O_5  and  C_6
REMARK    3  A    between atoms: C_10  and  C_11
REMARK    4  A    between atoms: C_17  and  C_18
REMARK                            x       y       z     vdW  Elec       q    Type
REMARK                         _______ _______ _______ _____ _____    ______ ____
ROOT
ATOM      1  C   UNL     1       2.078   6.804  20.220  0.00  0.00    +0.000 A 
ATOM      2  C   UNL     1       1.341   5.624  20.777  0.00  0.00    +0.000 A 
ATOM      3  C   UNL     1       1.874   4.412  20.603  0.00  0.00    +0.000 A 
ATOM      4  C   UNL     1       3.073   4.281  19.877  0.00  0.00    +0.000 A 
ATOM      5  N   UNL     1       3.751   3.206  19.544  0.00  0.00    +0.000 NA
ATOM      6  C   UNL     1       4.818   3.674  18.823  0.00  0.00    +0.000 A 
ATOM      7  C   UNL     1       4.800   5.051  18.729  0.00  0.00    +0.000 A 
ATOM      8  N   UNL     1       3.659   5.442  19.391  0.00  0.00    +0.000 N 
ATOM      9  N   UNL     1       3.185   6.724  19.538  0.00  0.00    +0.000 NA
ENDROOT
BRANCH   1  14
ATOM     10  C   UNL     1       0.582  10.253  19.687  0.00  0.00    +0.000 A 
ATOM     11  C   UNL     1       0.209  10.601  20.983  0.00  0.00    +0.000 A 
ATOM     12  C   UNL     1       0.440   9.709  22.033  0.00  0.00    +0.000 A 
ATOM     13  C   UNL     1       1.049   8.471  21.787  0.00  0.00    +0.000 A 
ATOM     14  C   UNL     1       1.481   8.145  20.498  0.00  0.00    +0.000 A 
ATOM     15  C   UNL     1       1.270   9.058  19.458  0.00  0.00    +0.000 A 
BRANCH  10  16
ATOM     16  O   UNL     1       0.240  11.121  18.668  0.00  0.00    +0.000 OA
BRANCH  16  20
ATOM     17  C   UNL     1       2.093  14.861  18.698  0.00  0.00    +0.000 A 
ATOM     18  C   UNL     1       2.870  13.726  18.475  0.00  0.00    +0.000 A 
ATOM     19  C   UNL     1       2.264  12.474  18.400  0.00  0.00    +0.000 A 
ATOM     20  C   UNL     1       0.886  12.342  18.622  0.00  0.00    +0.000 A 
ATOM     21  C   UNL     1       0.104  13.483  18.805  0.00  0.00    +0.000 A 
ATOM     22  C   UNL     1       0.708  14.742  18.841  0.00  0.00    +0.000 A 
ENDBRANCH  16  20
ENDBRANCH  10  16
ENDBRANCH   1  14
BRANCH   7  23
ATOM     23  C   UNL     1       5.815   5.892  18.047  0.00  0.00    +0.000 A 
ATOM     24  C   UNL     1       7.148   6.147  18.459  0.00  0.00    +0.000 A 
ATOM     25  C   UNL     1       7.690   6.981  17.509  0.00  0.00    +0.000 A 
ATOM     26  O   UNL     1       6.776   7.261  16.545  0.00  0.00    +0.000 OA
ATOM     27  C   UNL     1       5.637   6.598  16.879  0.00  0.00    +0.000 A 
ENDBRANCH   7  23
TORSDOF 4
ENDMDL
