MODEL 1
REMARK VINA RESULT:      -7.5      0.000      0.000
REMARK  Name = 
REMARK  6 active torsions:
REMARK  status: ('A' for Active; 'I' for Inactive)
REMARK    1  A    between atoms: C_1  and  C_2
REMARK    2  A    between atoms: C_2  and  N_3
REMARK    3  A    between atoms: C_2  and  C_15
REMARK    4  A    between atoms: C_4  and  C_6
REMARK    5  A    between atoms: C_6  and  C_7
REMARK    6  A    between atoms: C_6  and  C_9
REMARK                            x       y       z     vdW  Elec       q    Type
REMARK                         _______ _______ _______ _____ _____    ______ ____
ROOT
ATOM      1  N   UNL     1       5.334   6.096  17.998  0.00  0.00    +0.000 N 
ATOM      2  C   UNL     1       4.839   5.374  19.065  0.00  0.00    +0.000 C 
ATOM      3  O   UNL     1       5.451   4.413  19.534  0.00  0.00    +0.000 OA
ATOM      4  H   UNL     1       4.792   6.840  17.579  0.00  0.00    +0.000 HD
ENDROOT
BRANCH   1   6
ATOM      5  C   UNL     1       7.493   7.091  17.297  0.00  0.00    +0.000 C 
ATOM      6  C   UNL     1       6.640   5.825  17.403  0.00  0.00    +0.000 C 
BRANCH   6   7
ATOM      7  C   UNL     1       6.467   5.169  16.043  0.00  0.00    +0.000 A 
ATOM      8  C   UNL     1       5.311   4.420  15.773  0.00  0.00    +0.000 A 
ATOM      9  C   UNL     1       5.139   3.797  14.535  0.00  0.00    +0.000 A 
ATOM     10  C   UNL     1       6.118   3.923  13.553  0.00  0.00    +0.000 A 
ATOM     11 CL   UNL     1       5.903   3.156  12.027  0.00  0.00    +0.000 Cl
ATOM     12  C   UNL     1       7.269   4.666  13.797  0.00  0.00    +0.000 A 
ATOM     13  C   UNL     1       7.444   5.286  15.037  0.00  0.00    +0.000 A 
ENDBRANCH   6   7
ENDBRANCH   1   6
BRANCH   2  14
ATOM     14  C   UNL     1       3.464   5.774  19.624  0.00  0.00    +0.000 C 
BRANCH  14  15
ATOM     15  C   UNL     1       2.456   4.623  19.585  0.00  0.00    +0.000 A 
ATOM     16  C   UNL     1       2.098   4.036  18.359  0.00  0.00    +0.000 A 
ATOM     17  C   UNL     1       1.219   2.950  18.318  0.00  0.00    +0.000 A 
ATOM     18  C   UNL     1       0.684   2.430  19.495  0.00  0.00    +0.000 A 
ATOM     19  C   UNL     1       1.032   2.994  20.718  0.00  0.00    +0.000 A 
ATOM     20  C   UNL     1       1.911   4.077  20.763  0.00  0.00    +0.000 A 
ENDBRANCH  14  15
BRANCH  14  21
ATOM     21  C   UNL     1       2.909   6.953  18.842  0.00  0.00    +0.000 C 
ATOM     22  N   UNL     1       2.449   7.932  18.194  0.00  0.00    +0.000 NA
ENDBRANCH  14  21
ENDBRANCH   2  14
TORSDOF 5
ENDMDL
MODEL 2
REMARK VINA RESULT:      -7.5      0.120      1.493
REMARK  Name = 
REMARK  6 active torsions:
REMARK  status: ('A' for Active; 'I' for Inactive)
REMARK    1  A    between atoms: C_1  and  C_2
REMARK    2  A    between atoms: C_2  and  N_3
REMARK    3  A    between atoms: C_2  and  C_15
REMARK    4  A    between atoms: C_4  and  C_6
REMARK    5  A    between atoms: C_6  and  C_7
REMARK    6  A    between atoms: C_6  and  C_9
REMARK                            x       y       z     vdW  Elec       q    Type
REMARK                         _______ _______ _______ _____ _____    ______ ____
ROOT
ATOM      1  N   UNL     1       5.366   6.052  18.044  0.00  0.00    +0.000 N 
ATOM      2  C   UNL     1       4.896   5.301  19.103  0.00  0.00    +0.000 C 
ATOM      3  O   UNL     1       5.528   4.340  19.543  0.00  0.00    +0.000 OA
ATOM      4  H   UNL     1       4.809   6.798  17.649  0.00  0.00    +0.000 HD
ENDROOT
BRANCH   1   6
ATOM      5  C   UNL     1       7.486   7.098  17.297  0.00  0.00    +0.000 C 
ATOM      6  C   UNL     1       6.667   5.811  17.425  0.00  0.00    +0.000 C 
BRANCH   6   7
ATOM      7  C   UNL     1       6.485   5.143  16.072  0.00  0.00    +0.000 A 
ATOM      8  C   UNL     1       7.457   5.316  15.074  0.00  0.00    +0.000 A 
ATOM      9  C   UNL     1       7.302   4.722  13.819  0.00  0.00    +0.000 A 
ATOM     10  C   UNL     1       6.178   3.946  13.553  0.00  0.00    +0.000 A 
ATOM     11 CL   UNL     1       5.990   3.215  12.006  0.00  0.00    +0.000 Cl
ATOM     12  C   UNL     1       5.205   3.757  14.530  0.00  0.00    +0.000 A 
ATOM     13  C   UNL     1       5.357   4.353  15.785  0.00  0.00    +0.000 A 
ENDBRANCH   6   7
ENDBRANCH   1   6
BRANCH   2  14
ATOM     14  C   UNL     1       3.524   5.671  19.689  0.00  0.00    +0.000 C 
BRANCH  14  15
ATOM     15  C   UNL     1       2.542   4.499  19.671  0.00  0.00    +0.000 A 
ATOM     16  C   UNL     1       2.041   3.976  20.875  0.00  0.00    +0.000 A 
ATOM     17  C   UNL     1       1.102   2.939  20.867  0.00  0.00    +0.000 A 
ATOM     18  C   UNL     1       0.647   2.408  19.661  0.00  0.00    +0.000 A 
ATOM     19  C   UNL     1       1.128   2.917  18.460  0.00  0.00    +0.000 A 
ATOM     20  C   UNL     1       2.063   3.954  18.464  0.00  0.00    +0.000 A 
ENDBRANCH  14  15
BRANCH  14  21
ATOM     21  C   UNL     1       2.928   6.837  18.918  0.00  0.00    +0.000 C 
ATOM     22  N   UNL     1       2.433   7.804  18.277  0.00  0.00    +0.000 NA
ENDBRANCH  14  21
ENDBRANCH   2  14
TORSDOF 5
ENDMDL
MODEL 3
REMARK VINA RESULT:      -7.4      0.297      1.093
REMARK  Name = 
REMARK  6 active torsions:
REMARK  status: ('A' for Active; 'I' for Inactive)
REMARK    1  A    between atoms: C_1  and  C_2
REMARK    2  A    between atoms: C_2  and  N_3
REMARK    3  A    between atoms: C_2  and  C_15
REMARK    4  A    between atoms: C_4  and  C_6
REMARK    5  A    between atoms: C_6  and  C_7
REMARK    6  A    between atoms: C_6  and  C_9
REMARK                            x       y       z     vdW  Elec       q    Type
REMARK                         _______ _______ _______ _____ _____    ______ ____
ROOT
ATOM      1  N   UNL     1       5.106   6.151  17.871  0.00  0.00    +0.000 N 
ATOM      2  C   UNL     1       4.666   5.709  19.103  0.00  0.00    +0.000 C 
ATOM      3  O   UNL     1       5.376   5.014  19.831  0.00  0.00    +0.000 OA
ATOM      4  H   UNL     1       4.492   6.665  17.255  0.00  0.00    +0.000 HD
ENDROOT
BRANCH   1   6
ATOM      5  C   UNL     1       7.295   7.171  17.314  0.00  0.00    +0.000 C 
ATOM      6  C   UNL     1       6.458   5.892  17.380  0.00  0.00    +0.000 C 
BRANCH   6   7
ATOM      7  C   UNL     1       6.397   5.208  16.024  0.00  0.00    +0.000 A 
ATOM      8  C   UNL     1       7.432   5.408  15.097  0.00  0.00    +0.000 A 
ATOM      9  C   UNL     1       7.389   4.801  13.840  0.00  0.00    +0.000 A 
ATOM     10  C   UNL     1       6.315   3.982  13.501  0.00  0.00    +0.000 A 
ATOM     11 CL   UNL     1       6.265   3.234  11.953  0.00  0.00    +0.000 Cl
ATOM     12  C   UNL     1       5.281   3.766  14.408  0.00  0.00    +0.000 A 
ATOM     13  C   UNL     1       5.321   4.376  15.664  0.00  0.00    +0.000 A 
ENDBRANCH   6   7
ENDBRANCH   1   6
BRANCH   2  14
ATOM     14  C   UNL     1       3.232   6.070  19.523  0.00  0.00    +0.000 C 
BRANCH  14  15
ATOM     15  C   UNL     1       2.293   4.863  19.506  0.00  0.00    +0.000 A 
ATOM     16  C   UNL     1       1.968   4.235  18.292  0.00  0.00    +0.000 A 
ATOM     17  C   UNL     1       1.154   3.099  18.272  0.00  0.00    +0.000 A 
ATOM     18  C   UNL     1       0.651   2.569  19.459  0.00  0.00    +0.000 A 
ATOM     19  C   UNL     1       0.967   3.174  20.671  0.00  0.00    +0.000 A 
ATOM     20  C   UNL     1       1.782   4.307  20.695  0.00  0.00    +0.000 A 
ENDBRANCH  14  15
BRANCH  14  21
ATOM     21  C   UNL     1       2.680   7.148  18.605  0.00  0.00    +0.000 C 
ATOM     22  N   UNL     1       2.220   8.043  17.844  0.00  0.00    +0.000 NA
ENDBRANCH  14  21
ENDBRANCH   2  14
TORSDOF 5
ENDMDL
MODEL 4
REMARK VINA RESULT:      -7.4      0.275      1.053
REMARK  Name = 
REMARK  6 active torsions:
REMARK  status: ('A' for Active; 'I' for Inactive)
REMARK    1  A    between atoms: C_1  and  C_2
REMARK    2  A    between atoms: C_2  and  N_3
REMARK    3  A    between atoms: C_2  and  C_15
REMARK    4  A    between atoms: C_4  and  C_6
REMARK    5  A    between atoms: C_6  and  C_7
REMARK    6  A    between atoms: C_6  and  C_9
REMARK                            x       y       z     vdW  Elec       q    Type
REMARK                         _______ _______ _______ _____ _____    ______ ____
ROOT
ATOM      1  N   UNL     1       5.332   6.048  17.960  0.00  0.00    +0.000 N 
ATOM      2  C   UNL     1       4.938   5.364  19.092  0.00  0.00    +0.000 C 
ATOM      3  O   UNL     1       5.662   4.516  19.618  0.00  0.00    +0.000 OA
ATOM      4  H   UNL     1       4.704   6.693  17.499  0.00  0.00    +0.000 HD
ENDROOT
BRANCH   1   6
ATOM      5  C   UNL     1       7.406   7.200  17.242  0.00  0.00    +0.000 C 
ATOM      6  C   UNL     1       6.650   5.874  17.354  0.00  0.00    +0.000 C 
BRANCH   6   7
ATOM      7  C   UNL     1       6.515   5.207  15.995  0.00  0.00    +0.000 A 
ATOM      8  C   UNL     1       5.424   4.361  15.740  0.00  0.00    +0.000 A 
ATOM      9  C   UNL     1       5.288   3.727  14.503  0.00  0.00    +0.000 A 
ATOM     10  C   UNL     1       6.239   3.938  13.508  0.00  0.00    +0.000 A 
ATOM     11 CL   UNL     1       6.069   3.156  11.984  0.00  0.00    +0.000 Cl
ATOM     12  C   UNL     1       7.325   4.777  13.738  0.00  0.00    +0.000 A 
ATOM     13  C   UNL     1       7.464   5.409  14.976  0.00  0.00    +0.000 A 
ENDBRANCH   6   7
ENDBRANCH   1   6
BRANCH   2  14
ATOM     14  C   UNL     1       3.538   5.655  19.654  0.00  0.00    +0.000 C 
BRANCH  14  15
ATOM     15  C   UNL     1       2.578   4.477  19.479  0.00  0.00    +0.000 A 
ATOM     16  C   UNL     1       1.639   4.173  20.480  0.00  0.00    +0.000 A 
ATOM     17  C   UNL     1       0.722   3.132  20.306  0.00  0.00    +0.000 A 
ATOM     18  C   UNL     1       0.726   2.376  19.134  0.00  0.00    +0.000 A 
ATOM     19  C   UNL     1       1.644   2.666  18.131  0.00  0.00    +0.000 A 
ATOM     20  C   UNL     1       2.559   3.707  18.300  0.00  0.00    +0.000 A 
ENDBRANCH  14  15
BRANCH  14  21
ATOM     21  C   UNL     1       2.952   6.883  18.977  0.00  0.00    +0.000 C 
ATOM     22  N   UNL     1       2.466   7.902  18.414  0.00  0.00    +0.000 NA
ENDBRANCH  14  21
ENDBRANCH   2  14
TORSDOF 5
ENDMDL
MODEL 5
REMARK VINA RESULT:      -7.1      1.140      1.551
REMARK  Name = 
REMARK  6 active torsions:
REMARK  status: ('A' for Active; 'I' for Inactive)
REMARK    1  A    between atoms: C_1  and  C_2
REMARK    2  A    between atoms: C_2  and  N_3
REMARK    3  A    between atoms: C_2  and  C_15
REMARK    4  A    between atoms: C_4  and  C_6
REMARK    5  A    between atoms: C_6  and  C_7
REMARK    6  A    between atoms: C_6  and  C_9
REMARK                            x       y       z     vdW  Elec       q    Type
REMARK                         _______ _______ _______ _____ _____    ______ ____
ROOT
ATOM      1  N   UNL     1       5.361   5.418  18.840  0.00  0.00    +0.000 N 
ATOM      2  C   UNL     1       4.491   6.351  18.313  0.00  0.00    +0.000 C 
ATOM      3  O   UNL     1       4.790   7.028  17.328  0.00  0.00    +0.000 OA
ATOM      4  H   UNL     1       5.132   4.915  19.687  0.00  0.00    +0.000 HD
ENDROOT
BRANCH   1   6
ATOM      5  C   UNL     1       7.622   6.297  18.330  0.00  0.00    +0.000 C 
ATOM      6  C   UNL     1       6.654   5.115  18.231  0.00  0.00    +0.000 C 
BRANCH   6   7
ATOM      7  C   UNL     1       6.461   4.688  16.785  0.00  0.00    +0.000 A 
ATOM      8  C   UNL     1       7.284   5.228  15.784  0.00  0.00    +0.000 A 
ATOM      9  C   UNL     1       7.114   4.860  14.447  0.00  0.00    +0.000 A 
ATOM     10  C   UNL     1       6.125   3.944  14.100  0.00  0.00    +0.000 A 
ATOM     11 CL   UNL     1       5.918   3.491  12.453  0.00  0.00    +0.000 Cl
ATOM     12  C   UNL     1       5.302   3.392  15.078  0.00  0.00    +0.000 A 
ATOM     13  C   UNL     1       5.468   3.763  16.415  0.00  0.00    +0.000 A 
ENDBRANCH   6   7
ENDBRANCH   1   6
BRANCH   2  14
ATOM     14  C   UNL     1       3.146   6.559  19.027  0.00  0.00    +0.000 C 
BRANCH  14  15
ATOM     15  C   UNL     1       2.301   5.284  19.072  0.00  0.00    +0.000 A 
ATOM     16  C   UNL     1       2.127   4.508  17.914  0.00  0.00    +0.000 A 
ATOM     17  C   UNL     1       1.401   3.314  17.958  0.00  0.00    +0.000 A 
ATOM     18  C   UNL     1       0.839   2.872  19.154  0.00  0.00    +0.000 A 
ATOM     19  C   UNL     1       1.007   3.624  20.312  0.00  0.00    +0.000 A 
ATOM     20  C   UNL     1       1.732   4.816  20.273  0.00  0.00    +0.000 A 
ENDBRANCH  14  15
BRANCH  14  21
ATOM     21  C   UNL     1       2.357   7.659  18.336  0.00  0.00    +0.000 C 
ATOM     22  N   UNL     1       1.703   8.573  17.763  0.00  0.00    +0.000 NA
ENDBRANCH  14  21
ENDBRANCH   2  14
TORSDOF 5
ENDMDL
MODEL 6
REMARK VINA RESULT:      -7.1      1.148      1.165
REMARK  Name = 
REMARK  6 active torsions:
REMARK  status: ('A' for Active; 'I' for Inactive)
REMARK    1  A    between atoms: C_1  and  C_2
REMARK    2  A    between atoms: C_2  and  N_3
REMARK    3  A    between atoms: C_2  and  C_15
REMARK    4  A    between atoms: C_4  and  C_6
REMARK    5  A    between atoms: C_6  and  C_7
REMARK    6  A    between atoms: C_6  and  C_9
REMARK                            x       y       z     vdW  Elec       q    Type
REMARK                         _______ _______ _______ _____ _____    ______ ____
ROOT
ATOM      1  N   UNL     1       5.322   5.386  18.883  0.00  0.00    +0.000 N 
ATOM      2  C   UNL     1       4.484   6.354  18.365  0.00  0.00    +0.000 C 
ATOM      3  O   UNL     1       4.814   7.044  17.400  0.00  0.00    +0.000 OA
ATOM      4  H   UNL     1       5.068   4.871  19.715  0.00  0.00    +0.000 HD
ENDROOT
BRANCH   1   6
ATOM      5  C   UNL     1       7.617   6.210  18.437  0.00  0.00    +0.000 C 
ATOM      6  C   UNL     1       6.615   5.063  18.283  0.00  0.00    +0.000 C 
BRANCH   6   7
ATOM      7  C   UNL     1       6.433   4.690  16.822  0.00  0.00    +0.000 A 
ATOM      8  C   UNL     1       5.423   3.786  16.455  0.00  0.00    +0.000 A 
ATOM      9  C   UNL     1       5.248   3.419  15.118  0.00  0.00    +0.000 A 
ATOM     10  C   UNL     1       6.076   3.956  14.137  0.00  0.00    +0.000 A 
ATOM     11 CL   UNL     1       5.857   3.503  12.491  0.00  0.00    +0.000 Cl
ATOM     12  C   UNL     1       7.079   4.858  14.478  0.00  0.00    +0.000 A 
ATOM     13  C   UNL     1       7.258   5.224  15.815  0.00  0.00    +0.000 A 
ENDBRANCH   6   7
ENDBRANCH   1   6
BRANCH   2  14
ATOM     14  C   UNL     1       3.135   6.582  19.066  0.00  0.00    +0.000 C 
BRANCH  14  15
ATOM     15  C   UNL     1       2.287   5.311  19.135  0.00  0.00    +0.000 A 
ATOM     16  C   UNL     1       2.077   4.535  17.981  0.00  0.00    +0.000 A 
ATOM     17  C   UNL     1       1.348   3.344  18.045  0.00  0.00    +0.000 A 
ATOM     18  C   UNL     1       0.817   2.905  19.257  0.00  0.00    +0.000 A 
ATOM     19  C   UNL     1       1.020   3.656  20.410  0.00  0.00    +0.000 A 
ATOM     20  C   UNL     1       1.749   4.845  20.351  0.00  0.00    +0.000 A 
ENDBRANCH  14  15
BRANCH  14  21
ATOM     21  C   UNL     1       2.354   7.668  18.345  0.00  0.00    +0.000 C 
ATOM     22  N   UNL     1       1.706   8.570  17.747  0.00  0.00    +0.000 NA
ENDBRANCH  14  21
ENDBRANCH   2  14
TORSDOF 5
ENDMDL
MODEL 7
REMARK VINA RESULT:      -7.1      1.119      1.542
REMARK  Name = 
REMARK  6 active torsions:
REMARK  status: ('A' for Active; 'I' for Inactive)
REMARK    1  A    between atoms: C_1  and  C_2
REMARK    2  A    between atoms: C_2  and  N_3
REMARK    3  A    between atoms: C_2  and  C_15
REMARK    4  A    between atoms: C_4  and  C_6
REMARK    5  A    between atoms: C_6  and  C_7
REMARK    6  A    between atoms: C_6  and  C_9
REMARK                            x       y       z     vdW  Elec       q    Type
REMARK                         _______ _______ _______ _____ _____    ______ ____
ROOT
ATOM      1  N   UNL     1       5.350   5.295  18.850  0.00  0.00    +0.000 N 
ATOM      2  C   UNL     1       4.527   6.300  18.384  0.00  0.00    +0.000 C 
ATOM      3  O   UNL     1       4.873   7.043  17.463  0.00  0.00    +0.000 OA
ATOM      4  H   UNL     1       5.083   4.734  19.648  0.00  0.00    +0.000 HD
ENDROOT
BRANCH   1   6
ATOM      5  C   UNL     1       7.637   6.147  18.415  0.00  0.00    +0.000 C 
ATOM      6  C   UNL     1       6.645   4.994  18.244  0.00  0.00    +0.000 C 
BRANCH   6   7
ATOM      7  C   UNL     1       6.464   4.644  16.776  0.00  0.00    +0.000 A 
ATOM      8  C   UNL     1       5.453   3.749  16.394  0.00  0.00    +0.000 A 
ATOM      9  C   UNL     1       5.278   3.402  15.052  0.00  0.00    +0.000 A 
ATOM     10  C   UNL     1       6.109   3.953  14.079  0.00  0.00    +0.000 A 
ATOM     11 CL   UNL     1       5.892   3.526  12.427  0.00  0.00    +0.000 Cl
ATOM     12  C   UNL     1       7.114   4.847  14.437  0.00  0.00    +0.000 A 
ATOM     13  C   UNL     1       7.292   5.191  15.779  0.00  0.00    +0.000 A 
ENDBRANCH   6   7
ENDBRANCH   1   6
BRANCH   2  14
ATOM     14  C   UNL     1       3.174   6.501  19.085  0.00  0.00    +0.000 C 
BRANCH  14  15
ATOM     15  C   UNL     1       2.353   5.213  19.158  0.00  0.00    +0.000 A 
ATOM     16  C   UNL     1       1.808   4.787  20.381  0.00  0.00    +0.000 A 
ATOM     17  C   UNL     1       1.012   3.640  20.447  0.00  0.00    +0.000 A 
ATOM     18  C   UNL     1       0.745   2.898  19.298  0.00  0.00    +0.000 A 
ATOM     19  C   UNL     1       1.270   3.308  18.077  0.00  0.00    +0.000 A 
ATOM     20  C   UNL     1       2.064   4.454  18.006  0.00  0.00    +0.000 A 
ENDBRANCH  14  15
BRANCH  14  21
ATOM     21  C   UNL     1       2.369   7.569  18.363  0.00  0.00    +0.000 C 
ATOM     22  N   UNL     1       1.700   8.455  17.764  0.00  0.00    +0.000 NA
ENDBRANCH  14  21
ENDBRANCH   2  14
TORSDOF 5
ENDMDL
MODEL 8
REMARK VINA RESULT:      -7.1      1.140      1.872
REMARK  Name = 
REMARK  6 active torsions:
REMARK  status: ('A' for Active; 'I' for Inactive)
REMARK    1  A    between atoms: C_1  and  C_2
REMARK    2  A    between atoms: C_2  and  N_3
REMARK    3  A    between atoms: C_2  and  C_15
REMARK    4  A    between atoms: C_4  and  C_6
REMARK    5  A    between atoms: C_6  and  C_7
REMARK    6  A    between atoms: C_6  and  C_9
REMARK                            x       y       z     vdW  Elec       q    Type
REMARK                         _______ _______ _______ _____ _____    ______ ____
ROOT
ATOM      1  N   UNL     1       5.344   5.405  18.875  0.00  0.00    +0.000 N 
ATOM      2  C   UNL     1       4.502   6.381  18.381  0.00  0.00    +0.000 C 
ATOM      3  O   UNL     1       4.830   7.098  17.434  0.00  0.00    +0.000 OA
ATOM      4  H   UNL     1       5.091   4.867  19.693  0.00  0.00    +0.000 HD
ENDROOT
BRANCH   1   6
ATOM      5  C   UNL     1       7.609   6.284  18.383  0.00  0.00    +0.000 C 
ATOM      6  C   UNL     1       6.640   5.105  18.270  0.00  0.00    +0.000 C 
BRANCH   6   7
ATOM      7  C   UNL     1       6.454   4.688  16.821  0.00  0.00    +0.000 A 
ATOM      8  C   UNL     1       7.289   5.227  15.829  0.00  0.00    +0.000 A 
ATOM      9  C   UNL     1       7.126   4.868  14.489  0.00  0.00    +0.000 A 
ATOM     10  C   UNL     1       6.132   3.962  14.129  0.00  0.00    +0.000 A 
ATOM     11 CL   UNL     1       5.934   3.521  12.478  0.00  0.00    +0.000 Cl
ATOM     12  C   UNL     1       5.298   3.412  15.097  0.00  0.00    +0.000 A 
ATOM     13  C   UNL     1       5.457   3.773  16.438  0.00  0.00    +0.000 A 
ENDBRANCH   6   7
ENDBRANCH   1   6
BRANCH   2  14
ATOM     14  C   UNL     1       3.150   6.583  19.084  0.00  0.00    +0.000 C 
BRANCH  14  15
ATOM     15  C   UNL     1       2.339   5.289  19.182  0.00  0.00    +0.000 A 
ATOM     16  C   UNL     1       1.812   4.875  20.416  0.00  0.00    +0.000 A 
ATOM     17  C   UNL     1       1.025   3.723  20.506  0.00  0.00    +0.000 A 
ATOM     18  C   UNL     1       0.750   2.965  19.368  0.00  0.00    +0.000 A 
ATOM     19  C   UNL     1       1.259   3.363  18.137  0.00  0.00    +0.000 A 
ATOM     20  C   UNL     1       2.043   4.515  18.043  0.00  0.00    +0.000 A 
ENDBRANCH  14  15
BRANCH  14  21
ATOM     21  C   UNL     1       2.334   7.632  18.347  0.00  0.00    +0.000 C 
ATOM     22  N   UNL     1       1.657   8.503  17.735  0.00  0.00    +0.000 NA
ENDBRANCH  14  21
ENDBRANCH   2  14
TORSDOF 5
ENDMDL
MODEL 9
REMARK VINA RESULT:      -7.0      2.929      6.827
REMARK  Name = 
REMARK  6 active torsions:
REMARK  status: ('A' for Active; 'I' for Inactive)
REMARK    1  A    between atoms: C_1  and  C_2
REMARK    2  A    between atoms: C_2  and  N_3
REMARK    3  A    between atoms: C_2  and  C_15
REMARK    4  A    between atoms: C_4  and  C_6
REMARK    5  A    between atoms: C_6  and  C_7
REMARK    6  A    between atoms: C_6  and  C_9
REMARK                            x       y       z     vdW  Elec       q    Type
REMARK                         _______ _______ _______ _____ _____    ______ ____
ROOT
ATOM      1  N   UNL     1       4.569   5.840  17.137  0.00  0.00    +0.000 N 
ATOM      2  C   UNL     1       5.231   6.365  16.046  0.00  0.00    +0.000 C 
ATOM      3  O   UNL     1       4.697   7.188  15.301  0.00  0.00    +0.000 OA
ATOM      4  H   UNL     1       4.993   5.117  17.703  0.00  0.00    +0.000 HD
ENDROOT
BRANCH   1   6
ATOM      5  C   UNL     1       3.216   7.725  18.008  0.00  0.00    +0.000 C 
ATOM      6  C   UNL     1       3.229   6.272  17.527  0.00  0.00    +0.000 C 
BRANCH   6   7
ATOM      7  C   UNL     1       2.669   5.341  18.589  0.00  0.00    +0.000 A 
ATOM      8  C   UNL     1       2.953   5.579  19.943  0.00  0.00    +0.000 A 
ATOM      9  C   UNL     1       2.460   4.727  20.935  0.00  0.00    +0.000 A 
ATOM     10  C   UNL     1       1.674   3.634  20.582  0.00  0.00    +0.000 A 
ATOM     11 CL   UNL     1       1.066   2.586  21.805  0.00  0.00    +0.000 Cl
ATOM     12  C   UNL     1       1.375   3.383  19.246  0.00  0.00    +0.000 A 
ATOM     13  C   UNL     1       1.871   4.232  18.253  0.00  0.00    +0.000 A 
ENDBRANCH   6   7
ENDBRANCH   1   6
BRANCH   2  14
ATOM     14  C   UNL     1       6.651   5.852  15.755  0.00  0.00    +0.000 C 
BRANCH  14  15
ATOM     15  C   UNL     1       6.731   5.056  14.451  0.00  0.00    +0.000 A 
ATOM     16  C   UNL     1       5.817   4.020  14.196  0.00  0.00    +0.000 A 
ATOM     17  C   UNL     1       5.850   3.323  12.984  0.00  0.00    +0.000 A 
ATOM     18  C   UNL     1       6.791   3.646  12.008  0.00  0.00    +0.000 A 
ATOM     19  C   UNL     1       7.700   4.672  12.241  0.00  0.00    +0.000 A 
ATOM     20  C   UNL     1       7.669   5.373  13.448  0.00  0.00    +0.000 A 
ENDBRANCH  14  15
BRANCH  14  21
ATOM     21  C   UNL     1       7.134   4.983  16.904  0.00  0.00    +0.000 C 
ATOM     22  N   UNL     1       7.534   4.261  17.858  0.00  0.00    +0.000 NA
ENDBRANCH  14  21
ENDBRANCH   2  14
TORSDOF 5
ENDMDL
