MODEL 1
REMARK VINA RESULT:      -6.8      0.000      0.000
REMARK  Name = 
REMARK  4 active torsions:
REMARK  status: ('A' for Active; 'I' for Inactive)
REMARK    1  A    between atoms: C_1  and  N_2
REMARK    2  A    between atoms: C_3  and  C_5
REMARK    3  A    between atoms: C_5  and  N_6
REMARK    4  A    between atoms: C_13  and  C_15
REMARK                            x       y       z     vdW  Elec       q    Type
REMARK                         _______ _______ _______ _____ _____    ______ ____
ROOT
ATOM      1  N   UNL     1       6.759   5.891  15.891  0.00  0.00    +0.000 NA
ATOM      2  C   UNL     1       7.377   7.003  16.655  0.00  0.00    +0.000 C 
ATOM      3  C   UNL     1       7.830   6.690  18.092  0.00  0.00    +0.000 C 
ATOM      4  O   UNL     1       6.784   6.072  18.840  0.00  0.00    +0.000 OA
ATOM      5  C   UNL     1       6.423   4.830  18.230  0.00  0.00    +0.000 C 
ATOM      6  C   UNL     1       5.184   4.253  18.925  0.00  0.00    +0.000 C 
ATOM      7  N   UNL     1       4.041   4.765  18.168  0.00  0.00    +0.000 N 
ATOM      8  C   UNL     1       2.697   4.791  18.514  0.00  0.00    +0.000 C 
ATOM      9  O   UNL     1       1.886   5.434  17.847  0.00  0.00    +0.000 OA
ATOM     10  C   UNL     1       4.512   5.532  17.015  0.00  0.00    +0.000 C 
ATOM     11  C   UNL     1       5.945   5.019  16.771  0.00  0.00    +0.000 C 
ENDROOT
BRANCH   8  12
ATOM     12  C   UNL     1       2.192   4.018  19.684  0.00  0.00    +0.000 A 
ATOM     13  C   UNL     1       2.501   4.366  21.000  0.00  0.00    +0.000 A 
ATOM     14  C   UNL     1       1.993   3.595  22.036  0.00  0.00    +0.000 A 
ATOM     15  N   UNL     1       1.263   2.479  21.846  0.00  0.00    +0.000 NA
ATOM     16  C   UNL     1       1.034   2.117  20.561  0.00  0.00    +0.000 A 
ATOM     17  C   UNL     1       1.464   2.848  19.466  0.00  0.00    +0.000 A 
ATOM     18  F   UNL     1       1.170   2.399  18.237  0.00  0.00    +0.000 F 
ENDBRANCH   8  12
BRANCH   1  19
ATOM     19  C   UNL     1       7.749   5.118  15.106  0.00  0.00    +0.000 C 
BRANCH  19  22
ATOM     20  C   UNL     1       5.947   3.302  12.253  0.00  0.00    +0.000 C 
ATOM     21  N   UNL     1       6.430   3.762  13.531  0.00  0.00    +0.000 N 
ATOM     22  C   UNL     1       7.283   4.832  13.666  0.00  0.00    +0.000 C 
ATOM     23  O   UNL     1       7.699   5.492  12.714  0.00  0.00    +0.000 OA
ATOM     24  H   UNL     1       6.171   3.270  14.381  0.00  0.00    +0.000 HD
ENDBRANCH  19  22
ENDBRANCH   1  19
TORSDOF 3
ENDMDL
MODEL 2
REMARK VINA RESULT:      -6.5      5.362      7.421
REMARK  Name = 
REMARK  4 active torsions:
REMARK  status: ('A' for Active; 'I' for Inactive)
REMARK    1  A    between atoms: C_1  and  N_2
REMARK    2  A    between atoms: C_3  and  C_5
REMARK    3  A    between atoms: C_5  and  N_6
REMARK    4  A    between atoms: C_13  and  C_15
REMARK                            x       y       z     vdW  Elec       q    Type
REMARK                         _______ _______ _______ _____ _____    ______ ____
ROOT
ATOM      1  N   UNL     1      -0.170  11.249  19.088  0.00  0.00    +0.000 NA
ATOM      2  C   UNL     1       0.872  12.263  19.384  0.00  0.00    +0.000 C 
ATOM      3  C   UNL     1       2.098  12.291  18.455  0.00  0.00    +0.000 C 
ATOM      4  O   UNL     1       2.671  10.992  18.318  0.00  0.00    +0.000 OA
ATOM      5  C   UNL     1       1.717  10.102  17.733  0.00  0.00    +0.000 C 
ATOM      6  C   UNL     1       2.265   8.670  17.750  0.00  0.00    +0.000 C 
ATOM      7  N   UNL     1       1.790   8.088  19.005  0.00  0.00    +0.000 N 
ATOM      8  C   UNL     1       2.211   6.936  19.656  0.00  0.00    +0.000 C 
ATOM      9  O   UNL     1       1.841   6.688  20.804  0.00  0.00    +0.000 OA
ATOM     10  C   UNL     1       0.920   9.038  19.696  0.00  0.00    +0.000 C 
ATOM     11  C   UNL     1       0.431   9.990  18.586  0.00  0.00    +0.000 C 
ENDROOT
BRANCH   8  12
ATOM     12  C   UNL     1       3.098   5.951  18.974  0.00  0.00    +0.000 A 
ATOM     13  C   UNL     1       4.472   5.890  19.214  0.00  0.00    +0.000 A 
ATOM     14  C   UNL     1       5.231   4.945  18.537  0.00  0.00    +0.000 A 
ATOM     15  N   UNL     1       4.728   4.114  17.603  0.00  0.00    +0.000 NA
ATOM     16  C   UNL     1       3.407   4.237  17.333  0.00  0.00    +0.000 A 
ATOM     17  C   UNL     1       2.564   5.121  17.987  0.00  0.00    +0.000 A 
ATOM     18  F   UNL     1       1.269   5.150  17.643  0.00  0.00    +0.000 F 
ENDBRANCH   8  12
BRANCH   1  19
ATOM     19  C   UNL     1      -1.224  11.760  18.182  0.00  0.00    +0.000 C 
BRANCH  19  22
ATOM     20  C   UNL     1      -2.944   9.803  15.373  0.00  0.00    +0.000 C 
ATOM     21  N   UNL     1      -2.157  10.724  16.153  0.00  0.00    +0.000 N 
ATOM     22  C   UNL     1      -2.044  10.637  17.521  0.00  0.00    +0.000 C 
ATOM     23  O   UNL     1      -2.597   9.766  18.193  0.00  0.00    +0.000 OA
ATOM     24  H   UNL     1      -1.681  11.500  15.701  0.00  0.00    +0.000 HD
ENDBRANCH  19  22
ENDBRANCH   1  19
TORSDOF 3
ENDMDL
MODEL 3
REMARK VINA RESULT:      -6.4      2.047      3.864
REMARK  Name = 
REMARK  4 active torsions:
REMARK  status: ('A' for Active; 'I' for Inactive)
REMARK    1  A    between atoms: C_1  and  N_2
REMARK    2  A    between atoms: C_3  and  C_5
REMARK    3  A    between atoms: C_5  and  N_6
REMARK    4  A    between atoms: C_13  and  C_15
REMARK                            x       y       z     vdW  Elec       q    Type
REMARK                         _______ _______ _______ _____ _____    ______ ____
ROOT
ATOM      1  N   UNL     1       7.416   6.054  16.800  0.00  0.00    +0.000 NA
ATOM      2  C   UNL     1       7.496   5.377  15.483  0.00  0.00    +0.000 C 
ATOM      3  C   UNL     1       6.195   5.291  14.666  0.00  0.00    +0.000 C 
ATOM      4  O   UNL     1       5.128   4.762  15.449  0.00  0.00    +0.000 OA
ATOM      5  C   UNL     1       4.872   5.623  16.562  0.00  0.00    +0.000 C 
ATOM      6  C   UNL     1       3.852   4.967  17.501  0.00  0.00    +0.000 C 
ATOM      7  N   UNL     1       4.647   4.219  18.476  0.00  0.00    +0.000 N 
ATOM      8  C   UNL     1       4.246   3.231  19.365  0.00  0.00    +0.000 C 
ATOM      9  O   UNL     1       5.075   2.564  19.983  0.00  0.00    +0.000 OA
ATOM     10  C   UNL     1       6.070   4.455  18.243  0.00  0.00    +0.000 C 
ATOM     11  C   UNL     1       6.118   5.786  17.465  0.00  0.00    +0.000 C 
ENDROOT
BRANCH   8  12
ATOM     12  C   UNL     1       2.800   2.970  19.621  0.00  0.00    +0.000 A 
ATOM     13  C   UNL     1       2.190   3.273  20.840  0.00  0.00    +0.000 A 
ATOM     14  C   UNL     1       0.840   2.998  21.001  0.00  0.00    +0.000 A 
ATOM     15  N   UNL     1       0.085   2.392  20.065  0.00  0.00    +0.000 NA
ATOM     16  C   UNL     1       0.711   2.042  18.917  0.00  0.00    +0.000 A 
ATOM     17  C   UNL     1       2.043   2.313  18.650  0.00  0.00    +0.000 A 
ATOM     18  F   UNL     1       2.556   1.929  17.473  0.00  0.00    +0.000 F 
ENDBRANCH   8  12
BRANCH   1  19
ATOM     19  C   UNL     1       7.708   7.504  16.718  0.00  0.00    +0.000 C 
BRANCH  19  22
ATOM     20  C   UNL     1       9.041  10.145  19.154  0.00  0.00    +0.000 C 
ATOM     21  N   UNL     1       8.469   9.440  18.034  0.00  0.00    +0.000 N 
ATOM     22  C   UNL     1       8.252   8.082  18.037  0.00  0.00    +0.000 C 
ATOM     23  O   UNL     1       8.520   7.355  18.994  0.00  0.00    +0.000 OA
ATOM     24  H   UNL     1       8.238   9.941  17.180  0.00  0.00    +0.000 HD
ENDBRANCH  19  22
ENDBRANCH   1  19
TORSDOF 3
ENDMDL
MODEL 4
REMARK VINA RESULT:      -6.4      2.209      4.066
REMARK  Name = 
REMARK  4 active torsions:
REMARK  status: ('A' for Active; 'I' for Inactive)
REMARK    1  A    between atoms: C_1  and  N_2
REMARK    2  A    between atoms: C_3  and  C_5
REMARK    3  A    between atoms: C_5  and  N_6
REMARK    4  A    between atoms: C_13  and  C_15
REMARK                            x       y       z     vdW  Elec       q    Type
REMARK                         _______ _______ _______ _____ _____    ______ ____
ROOT
ATOM      1  N   UNL     1       7.426   6.063  16.866  0.00  0.00    +0.000 NA
ATOM      2  C   UNL     1       7.599   5.360  15.571  0.00  0.00    +0.000 C 
ATOM      3  C   UNL     1       6.349   5.220  14.685  0.00  0.00    +0.000 C 
ATOM      4  O   UNL     1       5.253   4.678  15.420  0.00  0.00    +0.000 OA
ATOM      5  C   UNL     1       4.912   5.556  16.496  0.00  0.00    +0.000 C 
ATOM      6  C   UNL     1       3.858   4.893  17.391  0.00  0.00    +0.000 C 
ATOM      7  N   UNL     1       4.616   4.190  18.426  0.00  0.00    +0.000 N 
ATOM      8  C   UNL     1       4.191   3.211  19.315  0.00  0.00    +0.000 C 
ATOM      9  O   UNL     1       5.002   2.581  19.995  0.00  0.00    +0.000 OA
ATOM     10  C   UNL     1       6.044   4.460  18.268  0.00  0.00    +0.000 C 
ATOM     11  C   UNL     1       6.100   5.774  17.463  0.00  0.00    +0.000 C 
ENDROOT
BRANCH   8  12
ATOM     12  C   UNL     1       2.741   2.916  19.495  0.00  0.00    +0.000 A 
ATOM     13  C   UNL     1       2.013   2.155  18.578  0.00  0.00    +0.000 A 
ATOM     14  C   UNL     1       0.666   1.926  18.816  0.00  0.00    +0.000 A 
ATOM     15  N   UNL     1      -0.009   2.452  19.857  0.00  0.00    +0.000 NA
ATOM     16  C   UNL     1       0.699   3.245  20.696  0.00  0.00    +0.000 A 
ATOM     17  C   UNL     1       2.055   3.495  20.563  0.00  0.00    +0.000 A 
ATOM     18  F   UNL     1       2.655   4.289  21.461  0.00  0.00    +0.000 F 
ENDBRANCH   8  12
BRANCH   1  19
ATOM     19  C   UNL     1       7.684   7.519  16.766  0.00  0.00    +0.000 C 
BRANCH  19  22
ATOM     20  C   UNL     1       9.072  10.196  19.130  0.00  0.00    +0.000 C 
ATOM     21  N   UNL     1       8.471   9.475  18.036  0.00  0.00    +0.000 N 
ATOM     22  C   UNL     1       8.264   8.116  18.061  0.00  0.00    +0.000 C 
ATOM     23  O   UNL     1       8.565   7.402  19.017  0.00  0.00    +0.000 OA
ATOM     24  H   UNL     1       8.210   9.964  17.184  0.00  0.00    +0.000 HD
ENDBRANCH  19  22
ENDBRANCH   1  19
TORSDOF 3
ENDMDL
MODEL 5
REMARK VINA RESULT:      -6.3      4.272      6.098
REMARK  Name = 
REMARK  4 active torsions:
REMARK  status: ('A' for Active; 'I' for Inactive)
REMARK    1  A    between atoms: C_1  and  N_2
REMARK    2  A    between atoms: C_3  and  C_5
REMARK    3  A    between atoms: C_5  and  N_6
REMARK    4  A    between atoms: C_13  and  C_15
REMARK                            x       y       z     vdW  Elec       q    Type
REMARK                         _______ _______ _______ _____ _____    ______ ____
ROOT
ATOM      1  N   UNL     1       4.237   4.395  19.213  0.00  0.00    +0.000 NA
ATOM      2  C   UNL     1       3.225   3.398  18.786  0.00  0.00    +0.000 C 
ATOM      3  C   UNL     1       2.357   3.766  17.571  0.00  0.00    +0.000 C 
ATOM      4  O   UNL     1       1.771   5.057  17.727  0.00  0.00    +0.000 OA
ATOM      5  C   UNL     1       2.799   6.045  17.827  0.00  0.00    +0.000 C 
ATOM      6  C   UNL     1       2.180   7.404  18.174  0.00  0.00    +0.000 C 
ATOM      7  N   UNL     1       2.198   7.477  19.635  0.00  0.00    +0.000 N 
ATOM      8  C   UNL     1       1.518   8.343  20.481  0.00  0.00    +0.000 C 
ATOM      9  O   UNL     1       1.492   8.148  21.697  0.00  0.00    +0.000 OA
ATOM     10  C   UNL     1       2.868   6.299  20.184  0.00  0.00    +0.000 C 
ATOM     11  C   UNL     1       3.742   5.779  19.025  0.00  0.00    +0.000 C 
ENDROOT
BRANCH   8  12
ATOM     12  C   UNL     1       0.827   9.551  19.948  0.00  0.00    +0.000 A 
ATOM     13  C   UNL     1       1.410  10.386  18.992  0.00  0.00    +0.000 A 
ATOM     14  C   UNL     1       0.703  11.493  18.547  0.00  0.00    +0.000 A 
ATOM     15  N   UNL     1      -0.501  11.855  19.031  0.00  0.00    +0.000 NA
ATOM     16  C   UNL     1      -1.019  11.072  20.007  0.00  0.00    +0.000 A 
ATOM     17  C   UNL     1      -0.405   9.925  20.485  0.00  0.00    +0.000 A 
ATOM     18  F   UNL     1      -1.016   9.222  21.448  0.00  0.00    +0.000 F 
ENDBRANCH   8  12
BRANCH   1  19
ATOM     19  C   UNL     1       5.554   4.184  18.569  0.00  0.00    +0.000 C 
BRANCH  19  22
ATOM     20  C   UNL     1       7.769   7.238  17.898  0.00  0.00    +0.000 C 
ATOM     21  N   UNL     1       6.807   6.167  17.823  0.00  0.00    +0.000 N 
ATOM     22  C   UNL     1       6.558   5.312  18.871  0.00  0.00    +0.000 C 
ATOM     23  O   UNL     1       7.125   5.391  19.960  0.00  0.00    +0.000 OA
ATOM     24  H   UNL     1       6.302   5.995  16.958  0.00  0.00    +0.000 HD
ENDBRANCH  19  22
ENDBRANCH   1  19
TORSDOF 3
ENDMDL
MODEL 6
REMARK VINA RESULT:      -6.3      0.966      1.370
REMARK  Name = 
REMARK  4 active torsions:
REMARK  status: ('A' for Active; 'I' for Inactive)
REMARK    1  A    between atoms: C_1  and  N_2
REMARK    2  A    between atoms: C_3  and  C_5
REMARK    3  A    between atoms: C_5  and  N_6
REMARK    4  A    between atoms: C_13  and  C_15
REMARK                            x       y       z     vdW  Elec       q    Type
REMARK                         _______ _______ _______ _____ _____    ______ ____
ROOT
ATOM      1  N   UNL     1       6.742   5.870  15.853  0.00  0.00    +0.000 NA
ATOM      2  C   UNL     1       7.319   6.991  16.634  0.00  0.00    +0.000 C 
ATOM      3  C   UNL     1       7.768   6.678  18.072  0.00  0.00    +0.000 C 
ATOM      4  O   UNL     1       6.735   6.021  18.804  0.00  0.00    +0.000 OA
ATOM      5  C   UNL     1       6.417   4.775  18.178  0.00  0.00    +0.000 C 
ATOM      6  C   UNL     1       5.190   4.153  18.855  0.00  0.00    +0.000 C 
ATOM      7  N   UNL     1       4.039   4.638  18.093  0.00  0.00    +0.000 N 
ATOM      8  C   UNL     1       2.692   4.620  18.427  0.00  0.00    +0.000 C 
ATOM      9  O   UNL     1       1.867   5.245  17.758  0.00  0.00    +0.000 OA
ATOM     10  C   UNL     1       4.497   5.431  16.953  0.00  0.00    +0.000 C 
ATOM     11  C   UNL     1       5.947   4.965  16.716  0.00  0.00    +0.000 C 
ENDROOT
BRANCH   8  12
ATOM     12  C   UNL     1       2.199   3.820  19.584  0.00  0.00    +0.000 A 
ATOM     13  C   UNL     1       1.569   2.585  19.425  0.00  0.00    +0.000 A 
ATOM     14  C   UNL     1       1.137   1.901  20.552  0.00  0.00    +0.000 A 
ATOM     15  N   UNL     1       1.231   2.390  21.803  0.00  0.00    +0.000 NA
ATOM     16  C   UNL     1       1.781   3.622  21.931  0.00  0.00    +0.000 A 
ATOM     17  C   UNL     1       2.278   4.359  20.869  0.00  0.00    +0.000 A 
ATOM     18  F   UNL     1       2.810   5.564  21.115  0.00  0.00    +0.000 F 
ENDBRANCH   8  12
BRANCH   1  19
ATOM     19  C   UNL     1       7.763   5.135  15.069  0.00  0.00    +0.000 C 
BRANCH  19  22
ATOM     20  C   UNL     1       5.977   3.286  12.227  0.00  0.00    +0.000 C 
ATOM     21  N   UNL     1       6.450   3.763  13.503  0.00  0.00    +0.000 N 
ATOM     22  C   UNL     1       7.308   4.830  13.630  0.00  0.00    +0.000 C 
ATOM     23  O   UNL     1       7.739   5.471  12.672  0.00  0.00    +0.000 OA
ATOM     24  H   UNL     1       6.179   3.286  14.358  0.00  0.00    +0.000 HD
ENDBRANCH  19  22
ENDBRANCH   1  19
TORSDOF 3
ENDMDL
MODEL 7
REMARK VINA RESULT:      -6.2      5.959      8.415
REMARK  Name = 
REMARK  4 active torsions:
REMARK  status: ('A' for Active; 'I' for Inactive)
REMARK    1  A    between atoms: C_1  and  N_2
REMARK    2  A    between atoms: C_3  and  C_5
REMARK    3  A    between atoms: C_5  and  N_6
REMARK    4  A    between atoms: C_13  and  C_15
REMARK                            x       y       z     vdW  Elec       q    Type
REMARK                         _______ _______ _______ _____ _____    ______ ____
ROOT
ATOM      1  N   UNL     1       0.012  11.239  19.637  0.00  0.00    +0.000 NA
ATOM      2  C   UNL     1       1.110  12.234  19.703  0.00  0.00    +0.000 C 
ATOM      3  C   UNL     1       2.071  12.289  18.502  0.00  0.00    +0.000 C 
ATOM      4  O   UNL     1       2.573  10.993  18.183  0.00  0.00    +0.000 OA
ATOM      5  C   UNL     1       1.491  10.132  17.820  0.00  0.00    +0.000 C 
ATOM      6  C   UNL     1       2.005   8.696  17.652  0.00  0.00    +0.000 C 
ATOM      7  N   UNL     1       1.843   8.070  18.965  0.00  0.00    +0.000 N 
ATOM      8  C   UNL     1       2.394   6.892  19.451  0.00  0.00    +0.000 C 
ATOM      9  O   UNL     1       2.313   6.604  20.645  0.00  0.00    +0.000 OA
ATOM     10  C   UNL     1       1.184   8.999  19.881  0.00  0.00    +0.000 C 
ATOM     11  C   UNL     1       0.452   9.996  18.959  0.00  0.00    +0.000 C 
ENDROOT
BRANCH   8  12
ATOM     12  C   UNL     1       3.071   5.928  18.538  0.00  0.00    +0.000 A 
ATOM     13  C   UNL     1       4.308   6.197  17.950  0.00  0.00    +0.000 A 
ATOM     14  C   UNL     1       4.873   5.249  17.109  0.00  0.00    +0.000 A 
ATOM     15  N   UNL     1       4.264   4.096  16.770  0.00  0.00    +0.000 NA
ATOM     16  C   UNL     1       3.034   3.885  17.294  0.00  0.00    +0.000 A 
ATOM     17  C   UNL     1       2.410   4.754  18.174  0.00  0.00    +0.000 A 
ATOM     18  F   UNL     1       1.193   4.438  18.638  0.00  0.00    +0.000 F 
ENDBRANCH   8  12
BRANCH   1  19
ATOM     19  C   UNL     1      -1.225  11.790  19.037  0.00  0.00    +0.000 C 
BRANCH  19  22
ATOM     20  C   UNL     1      -4.487  13.254  20.415  0.00  0.00    +0.000 C 
ATOM     21  N   UNL     1      -3.431  12.737  19.581  0.00  0.00    +0.000 N 
ATOM     22  C   UNL     1      -2.264  12.217  20.090  0.00  0.00    +0.000 C 
ATOM     23  O   UNL     1      -2.024  12.141  21.295  0.00  0.00    +0.000 OA
ATOM     24  H   UNL     1      -3.513  12.778  18.569  0.00  0.00    +0.000 HD
ENDBRANCH  19  22
ENDBRANCH   1  19
TORSDOF 3
ENDMDL
MODEL 8
REMARK VINA RESULT:      -6.2      3.966      4.681
REMARK  Name = 
REMARK  4 active torsions:
REMARK  status: ('A' for Active; 'I' for Inactive)
REMARK    1  A    between atoms: C_1  and  N_2
REMARK    2  A    between atoms: C_3  and  C_5
REMARK    3  A    between atoms: C_5  and  N_6
REMARK    4  A    between atoms: C_13  and  C_15
REMARK                            x       y       z     vdW  Elec       q    Type
REMARK                         _______ _______ _______ _____ _____    ______ ____
ROOT
ATOM      1  N   UNL     1       5.422   5.336  16.952  0.00  0.00    +0.000 NA
ATOM      2  C   UNL     1       6.124   5.096  18.236  0.00  0.00    +0.000 C 
ATOM      3  C   UNL     1       5.258   4.660  19.431  0.00  0.00    +0.000 C 
ATOM      4  O   UNL     1       4.148   5.537  19.610  0.00  0.00    +0.000 OA
ATOM      5  C   UNL     1       3.314   5.505  18.449  0.00  0.00    +0.000 C 
ATOM      6  C   UNL     1       2.223   6.576  18.565  0.00  0.00    +0.000 C 
ATOM      7  N   UNL     1       2.781   7.768  17.927  0.00  0.00    +0.000 N 
ATOM      8  C   UNL     1       2.347   9.086  17.993  0.00  0.00    +0.000 C 
ATOM      9  O   UNL     1       3.042  10.002  17.553  0.00  0.00    +0.000 OA
ATOM     10  C   UNL     1       4.091   7.460  17.356  0.00  0.00    +0.000 C 
ATOM     11  C   UNL     1       4.081   5.929  17.174  0.00  0.00    +0.000 C 
ENDROOT
BRANCH   8  12
ATOM     12  C   UNL     1       1.016   9.427  18.570  0.00  0.00    +0.000 A 
ATOM     13  C   UNL     1      -0.045   9.881  17.784  0.00  0.00    +0.000 A 
ATOM     14  C   UNL     1      -1.254  10.180  18.396  0.00  0.00    +0.000 A 
ATOM     15  N   UNL     1      -1.452  10.119  19.727  0.00  0.00    +0.000 NA
ATOM     16  C   UNL     1      -0.390   9.745  20.479  0.00  0.00    +0.000 A 
ATOM     17  C   UNL     1       0.841   9.388  19.954  0.00  0.00    +0.000 A 
ATOM     18  F   UNL     1       1.819   9.024  20.794  0.00  0.00    +0.000 F 
ENDBRANCH   8  12
BRANCH   1  19
ATOM     19  C   UNL     1       5.360   4.127  16.099  0.00  0.00    +0.000 C 
BRANCH  19  22
ATOM     20  C   UNL     1       6.517   3.571  12.488  0.00  0.00    +0.000 C 
ATOM     21  N   UNL     1       5.771   3.647  13.720  0.00  0.00    +0.000 N 
ATOM     22  C   UNL     1       6.277   4.215  14.865  0.00  0.00    +0.000 C 
ATOM     23  O   UNL     1       7.401   4.712  14.936  0.00  0.00    +0.000 OA
ATOM     24  H   UNL     1       4.842   3.240  13.780  0.00  0.00    +0.000 HD
ENDBRANCH  19  22
ENDBRANCH   1  19
TORSDOF 3
ENDMDL
MODEL 9
REMARK VINA RESULT:      -6.2      5.813      8.135
REMARK  Name = 
REMARK  4 active torsions:
REMARK  status: ('A' for Active; 'I' for Inactive)
REMARK    1  A    between atoms: C_1  and  N_2
REMARK    2  A    between atoms: C_3  and  C_5
REMARK    3  A    between atoms: C_5  and  N_6
REMARK    4  A    between atoms: C_13  and  C_15
REMARK                            x       y       z     vdW  Elec       q    Type
REMARK                         _______ _______ _______ _____ _____    ______ ____
ROOT
ATOM      1  N   UNL     1      -0.153  11.239  18.994  0.00  0.00    +0.000 NA
ATOM      2  C   UNL     1       0.887  12.254  19.293  0.00  0.00    +0.000 C 
ATOM      3  C   UNL     1       2.132  12.260  18.389  0.00  0.00    +0.000 C 
ATOM      4  O   UNL     1       2.702  10.957  18.288  0.00  0.00    +0.000 OA
ATOM      5  C   UNL     1       1.758  10.060  17.700  0.00  0.00    +0.000 C 
ATOM      6  C   UNL     1       2.299   8.626  17.756  0.00  0.00    +0.000 C 
ATOM      7  N   UNL     1       1.795   8.070  19.012  0.00  0.00    +0.000 N 
ATOM      8  C   UNL     1       2.199   6.929  19.693  0.00  0.00    +0.000 C 
ATOM      9  O   UNL     1       1.804   6.704  20.837  0.00  0.00    +0.000 OA
ATOM     10  C   UNL     1       0.915   9.036  19.666  0.00  0.00    +0.000 C 
ATOM     11  C   UNL     1       0.454   9.969  18.529  0.00  0.00    +0.000 C 
ENDROOT
BRANCH   8  12
ATOM     12  C   UNL     1       3.096   5.928  19.048  0.00  0.00    +0.000 A 
ATOM     13  C   UNL     1       4.452   5.827  19.362  0.00  0.00    +0.000 A 
ATOM     14  C   UNL     1       5.222   4.870  18.716  0.00  0.00    +0.000 A 
ATOM     15  N   UNL     1       4.751   4.064  17.746  0.00  0.00    +0.000 NA
ATOM     16  C   UNL     1       3.450   4.225  17.406  0.00  0.00    +0.000 A 
ATOM     17  C   UNL     1       2.596   5.123  18.023  0.00  0.00    +0.000 A 
ATOM     18  F   UNL     1       1.322   5.190  17.610  0.00  0.00    +0.000 F 
ENDBRANCH   8  12
BRANCH   1  19
ATOM     19  C   UNL     1      -1.186  11.737  18.057  0.00  0.00    +0.000 C 
BRANCH  19  22
ATOM     20  C   UNL     1      -3.993  12.836  20.424  0.00  0.00    +0.000 C 
ATOM     21  N   UNL     1      -2.766  12.705  19.678  0.00  0.00    +0.000 N 
ATOM     22  C   UNL     1      -2.594  11.774  18.681  0.00  0.00    +0.000 C 
ATOM     23  O   UNL     1      -3.469  10.980  18.336  0.00  0.00    +0.000 OA
ATOM     24  H   UNL     1      -1.968  13.293  19.901  0.00  0.00    +0.000 HD
ENDBRANCH  19  22
ENDBRANCH   1  19
TORSDOF 3
ENDMDL
