MODEL 1
REMARK VINA RESULT:      -7.1      0.000      0.000
REMARK  Name = 
REMARK  7 active torsions:
REMARK  status: ('A' for Active; 'I' for Inactive)
REMARK    1  A    between atoms: C_1  and  N_2
REMARK    2  A    between atoms: N_2  and  C_3
REMARK    3  A    between atoms: C_3  and  C_4
REMARK    4  A    between atoms: C_7  and  C_8
REMARK    5  A    between atoms: C_9  and  C_10
REMARK    6  A    between atoms: C_15  and  O_16
REMARK    7  A    between atoms: O_16  and  C_17
REMARK                            x       y       z     vdW  Elec       q    Type
REMARK                         _______ _______ _______ _____ _____    ______ ____
ROOT
ATOM      1  C   UNL     1       6.331   4.546  14.952  0.00  0.00    +0.000 A 
ATOM      2  C   UNL     1       7.342   5.113  15.725  0.00  0.00    +0.000 A 
ATOM      3  C   UNL     1       7.166   5.294  17.087  0.00  0.00    +0.000 A 
ATOM      4  C   UNL     1       5.987   4.882  17.739  0.00  0.00    +0.000 A 
ATOM      5  C   UNL     1       5.970   5.106  19.228  0.00  0.00    +0.000 C 
ATOM      6  C   UNL     1       4.913   4.302  16.991  0.00  0.00    +0.000 A 
ATOM      7  C   UNL     1       5.130   4.170  15.593  0.00  0.00    +0.000 A 
ENDROOT
BRANCH   6   8
ATOM      8  C   UNL     1       3.629   3.807  17.622  0.00  0.00    +0.000 A 
ATOM      9  C   UNL     1       3.425   2.421  17.823  0.00  0.00    +0.000 A 
ATOM     10  C   UNL     1       2.202   1.882  18.237  0.00  0.00    +0.000 A 
ATOM     11  C   UNL     1       1.163   2.724  18.584  0.00  0.00    +0.000 A 
ATOM     12  C   UNL     1       1.350   4.100  18.511  0.00  0.00    +0.000 A 
ATOM     13  C   UNL     1       2.549   4.650  18.008  0.00  0.00    +0.000 A 
BRANCH  13  14
ATOM     14  O   UNL     1       2.714   6.009  17.884  0.00  0.00    +0.000 OA
ATOM     15  C   UNL     1       2.641   6.790  19.070  0.00  0.00    +0.000 C 
ENDBRANCH  13  14
ENDBRANCH   6   8
BRANCH   1  16
ATOM     16  C   UNL     1       6.625   4.249  13.500  0.00  0.00    +0.000 C 
BRANCH  16  18
ATOM     17  C   UNL     1       5.067   3.252  11.929  0.00  0.00    +0.000 C 
ATOM     18  N   UNL     1       6.081   3.004  12.947  0.00  0.00    +0.000 NA
ATOM     19  H   UNL     1       6.855   2.499  12.516  0.00  0.00    +0.000 HD
ENDBRANCH  16  18
ENDBRANCH   1  16
TORSDOF 4
ENDMDL
MODEL 2
REMARK VINA RESULT:      -6.9      1.552      2.470
REMARK  Name = 
REMARK  7 active torsions:
REMARK  status: ('A' for Active; 'I' for Inactive)
REMARK    1  A    between atoms: C_1  and  N_2
REMARK    2  A    between atoms: N_2  and  C_3
REMARK    3  A    between atoms: C_3  and  C_4
REMARK    4  A    between atoms: C_7  and  C_8
REMARK    5  A    between atoms: C_9  and  C_10
REMARK    6  A    between atoms: C_15  and  O_16
REMARK    7  A    between atoms: O_16  and  C_17
REMARK                            x       y       z     vdW  Elec       q    Type
REMARK                         _______ _______ _______ _____ _____    ______ ____
ROOT
ATOM      1  C   UNL     1       5.655   4.535  15.287  0.00  0.00    +0.000 A 
ATOM      2  C   UNL     1       6.981   4.774  15.642  0.00  0.00    +0.000 A 
ATOM      3  C   UNL     1       7.312   5.077  16.952  0.00  0.00    +0.000 A 
ATOM      4  C   UNL     1       6.338   5.119  17.968  0.00  0.00    +0.000 A 
ATOM      5  C   UNL     1       6.866   5.418  19.347  0.00  0.00    +0.000 C 
ATOM      6  C   UNL     1       4.960   4.891  17.657  0.00  0.00    +0.000 A 
ATOM      7  C   UNL     1       4.668   4.617  16.293  0.00  0.00    +0.000 A 
ENDROOT
BRANCH   6   8
ATOM      8  C   UNL     1       3.859   4.888  18.696  0.00  0.00    +0.000 A 
ATOM      9  C   UNL     1       3.114   6.066  18.944  0.00  0.00    +0.000 A 
ATOM     10  C   UNL     1       2.206   6.186  20.001  0.00  0.00    +0.000 A 
ATOM     11  C   UNL     1       1.916   5.087  20.787  0.00  0.00    +0.000 A 
ATOM     12  C   UNL     1       2.539   3.874  20.512  0.00  0.00    +0.000 A 
ATOM     13  C   UNL     1       3.523   3.767  19.507  0.00  0.00    +0.000 A 
BRANCH  13  14
ATOM     14  O   UNL     1       4.179   2.582  19.271  0.00  0.00    +0.000 OA
ATOM     15  C   UNL     1       3.493   1.592  18.515  0.00  0.00    +0.000 C 
ENDBRANCH  13  14
ENDBRANCH   6   8
BRANCH   1  16
ATOM     16  C   UNL     1       5.365   4.078  13.876  0.00  0.00    +0.000 C 
BRANCH  16  18
ATOM     17  C   UNL     1       5.977   2.785  11.915  0.00  0.00    +0.000 C 
ATOM     18  N   UNL     1       6.442   3.386  13.160  0.00  0.00    +0.000 NA
ATOM     19  H   UNL     1       7.155   4.080  12.938  0.00  0.00    +0.000 HD
ENDBRANCH  16  18
ENDBRANCH   1  16
TORSDOF 4
ENDMDL
MODEL 3
REMARK VINA RESULT:      -6.9      3.257      6.320
REMARK  Name = 
REMARK  7 active torsions:
REMARK  status: ('A' for Active; 'I' for Inactive)
REMARK    1  A    between atoms: C_1  and  N_2
REMARK    2  A    between atoms: N_2  and  C_3
REMARK    3  A    between atoms: C_3  and  C_4
REMARK    4  A    between atoms: C_7  and  C_8
REMARK    5  A    between atoms: C_9  and  C_10
REMARK    6  A    between atoms: C_15  and  O_16
REMARK    7  A    between atoms: O_16  and  C_17
REMARK                            x       y       z     vdW  Elec       q    Type
REMARK                         _______ _______ _______ _____ _____    ______ ____
ROOT
ATOM      1  C   UNL     1       2.270   6.488  19.891  0.00  0.00    +0.000 A 
ATOM      2  C   UNL     1       1.863   5.422  20.689  0.00  0.00    +0.000 A 
ATOM      3  C   UNL     1       2.402   4.160  20.504  0.00  0.00    +0.000 A 
ATOM      4  C   UNL     1       3.398   3.919  19.537  0.00  0.00    +0.000 A 
ATOM      5  C   UNL     1       3.914   2.504  19.492  0.00  0.00    +0.000 C 
ATOM      6  C   UNL     1       3.846   4.977  18.684  0.00  0.00    +0.000 A 
ATOM      7  C   UNL     1       3.238   6.244  18.892  0.00  0.00    +0.000 A 
ENDROOT
BRANCH   6   8
ATOM      8  C   UNL     1       4.933   4.805  17.643  0.00  0.00    +0.000 A 
ATOM      9  C   UNL     1       4.589   4.614  16.284  0.00  0.00    +0.000 A 
ATOM     10  C   UNL     1       5.526   4.278  15.300  0.00  0.00    +0.000 A 
ATOM     11  C   UNL     1       6.870   4.237  15.617  0.00  0.00    +0.000 A 
ATOM     12  C   UNL     1       7.270   4.528  16.916  0.00  0.00    +0.000 A 
ATOM     13  C   UNL     1       6.326   4.778  17.935  0.00  0.00    +0.000 A 
BRANCH  13  14
ATOM     14  O   UNL     1       6.718   5.012  19.232  0.00  0.00    +0.000 OA
ATOM     15  C   UNL     1       7.895   5.786  19.432  0.00  0.00    +0.000 C 
ENDBRANCH  13  14
ENDBRANCH   6   8
BRANCH   1  16
ATOM     16  C   UNL     1       1.751   7.868  20.223  0.00  0.00    +0.000 C 
BRANCH  16  18
ATOM     17  C   UNL     1       0.389   8.996  21.885  0.00  0.00    +0.000 C 
ATOM     18  N   UNL     1       1.587   8.200  21.642  0.00  0.00    +0.000 NA
ATOM     19  H   UNL     1       1.501   7.322  22.152  0.00  0.00    +0.000 HD
ENDBRANCH  16  18
ENDBRANCH   1  16
TORSDOF 4
ENDMDL
MODEL 4
REMARK VINA RESULT:      -6.8      2.870      6.092
REMARK  Name = 
REMARK  7 active torsions:
REMARK  status: ('A' for Active; 'I' for Inactive)
REMARK    1  A    between atoms: C_1  and  N_2
REMARK    2  A    between atoms: N_2  and  C_3
REMARK    3  A    between atoms: C_3  and  C_4
REMARK    4  A    between atoms: C_7  and  C_8
REMARK    5  A    between atoms: C_9  and  C_10
REMARK    6  A    between atoms: C_15  and  O_16
REMARK    7  A    between atoms: O_16  and  C_17
REMARK                            x       y       z     vdW  Elec       q    Type
REMARK                         _______ _______ _______ _____ _____    ______ ____
ROOT
ATOM      1  C   UNL     1       1.966   5.138  20.081  0.00  0.00    +0.000 A 
ATOM      2  C   UNL     1       1.493   3.866  20.394  0.00  0.00    +0.000 A 
ATOM      3  C   UNL     1       2.035   2.746  19.785  0.00  0.00    +0.000 A 
ATOM      4  C   UNL     1       3.096   2.849  18.864  0.00  0.00    +0.000 A 
ATOM      5  C   UNL     1       3.602   1.536  18.325  0.00  0.00    +0.000 C 
ATOM      6  C   UNL     1       3.613   4.132  18.498  0.00  0.00    +0.000 A 
ATOM      7  C   UNL     1       3.000   5.251  19.126  0.00  0.00    +0.000 A 
ENDROOT
BRANCH   6   8
ATOM      8  C   UNL     1       4.769   4.324  17.541  0.00  0.00    +0.000 A 
ATOM      9  C   UNL     1       4.564   4.198  16.146  0.00  0.00    +0.000 A 
ATOM     10  C   UNL     1       5.611   4.191  15.218  0.00  0.00    +0.000 A 
ATOM     11  C   UNL     1       6.905   4.430  15.640  0.00  0.00    +0.000 A 
ATOM     12  C   UNL     1       7.145   4.672  16.989  0.00  0.00    +0.000 A 
ATOM     13  C   UNL     1       6.108   4.591  17.943  0.00  0.00    +0.000 A 
BRANCH  13  14
ATOM     14  O   UNL     1       6.354   4.776  19.283  0.00  0.00    +0.000 OA
ATOM     15  C   UNL     1       7.446   5.615  19.640  0.00  0.00    +0.000 C 
ENDBRANCH  13  14
ENDBRANCH   6   8
BRANCH   1  16
ATOM     16  C   UNL     1       1.435   6.311  20.871  0.00  0.00    +0.000 C 
BRANCH  16  18
ATOM     17  C   UNL     1       1.182   8.687  20.444  0.00  0.00    +0.000 C 
ATOM     18  N   UNL     1       2.117   7.598  20.702  0.00  0.00    +0.000 NA
ATOM     19  H   UNL     1       2.613   7.796  21.570  0.00  0.00    +0.000 HD
ENDBRANCH  16  18
ENDBRANCH   1  16
TORSDOF 4
ENDMDL
MODEL 5
REMARK VINA RESULT:      -6.7      2.016      2.847
REMARK  Name = 
REMARK  7 active torsions:
REMARK  status: ('A' for Active; 'I' for Inactive)
REMARK    1  A    between atoms: C_1  and  N_2
REMARK    2  A    between atoms: N_2  and  C_3
REMARK    3  A    between atoms: C_3  and  C_4
REMARK    4  A    between atoms: C_7  and  C_8
REMARK    5  A    between atoms: C_9  and  C_10
REMARK    6  A    between atoms: C_15  and  O_16
REMARK    7  A    between atoms: O_16  and  C_17
REMARK                            x       y       z     vdW  Elec       q    Type
REMARK                         _______ _______ _______ _____ _____    ______ ____
ROOT
ATOM      1  C   UNL     1       5.161   4.454  15.945  0.00  0.00    +0.000 A 
ATOM      2  C   UNL     1       5.224   5.843  15.863  0.00  0.00    +0.000 A 
ATOM      3  C   UNL     1       4.504   6.631  16.746  0.00  0.00    +0.000 A 
ATOM      4  C   UNL     1       3.720   6.064  17.770  0.00  0.00    +0.000 A 
ATOM      5  C   UNL     1       3.037   7.056  18.675  0.00  0.00    +0.000 C 
ATOM      6  C   UNL     1       3.613   4.642  17.893  0.00  0.00    +0.000 A 
ATOM      7  C   UNL     1       4.343   3.879  16.942  0.00  0.00    +0.000 A 
ENDROOT
BRANCH   6   8
ATOM      8  C   UNL     1       2.817   3.957  18.983  0.00  0.00    +0.000 A 
ATOM      9  C   UNL     1       1.421   4.169  19.083  0.00  0.00    +0.000 A 
ATOM     10  C   UNL     1       0.655   3.710  20.160  0.00  0.00    +0.000 A 
ATOM     11  C   UNL     1       1.236   2.914  21.128  0.00  0.00    +0.000 A 
ATOM     12  C   UNL     1       2.582   2.582  21.015  0.00  0.00    +0.000 A 
ATOM     13  C   UNL     1       3.384   3.115  19.982  0.00  0.00    +0.000 A 
BRANCH  13  14
ATOM     14  O   UNL     1       4.727   2.832  19.901  0.00  0.00    +0.000 OA
ATOM     15  C   UNL     1       5.198   1.682  20.592  0.00  0.00    +0.000 C 
ENDBRANCH  13  14
ENDBRANCH   6   8
BRANCH   1  16
ATOM     16  C   UNL     1       6.067   3.645  15.047  0.00  0.00    +0.000 C 
BRANCH  16  18
ATOM     17  C   UNL     1       6.206   3.628  12.624  0.00  0.00    +0.000 C 
ATOM     18  N   UNL     1       6.597   4.310  13.852  0.00  0.00    +0.000 NA
ATOM     19  H   UNL     1       6.214   5.254  13.834  0.00  0.00    +0.000 HD
ENDBRANCH  16  18
ENDBRANCH   1  16
TORSDOF 4
ENDMDL
MODEL 6
REMARK VINA RESULT:      -6.6      2.937      5.863
REMARK  Name = 
REMARK  7 active torsions:
REMARK  status: ('A' for Active; 'I' for Inactive)
REMARK    1  A    between atoms: C_1  and  N_2
REMARK    2  A    between atoms: N_2  and  C_3
REMARK    3  A    between atoms: C_3  and  C_4
REMARK    4  A    between atoms: C_7  and  C_8
REMARK    5  A    between atoms: C_9  and  C_10
REMARK    6  A    between atoms: C_15  and  O_16
REMARK    7  A    between atoms: O_16  and  C_17
REMARK                            x       y       z     vdW  Elec       q    Type
REMARK                         _______ _______ _______ _____ _____    ______ ____
ROOT
ATOM      1  C   UNL     1       2.603   4.679  20.459  0.00  0.00    +0.000 A 
ATOM      2  C   UNL     1       1.902   5.882  20.500  0.00  0.00    +0.000 A 
ATOM      3  C   UNL     1       2.177   6.886  19.586  0.00  0.00    +0.000 A 
ATOM      4  C   UNL     1       3.138   6.715  18.571  0.00  0.00    +0.000 A 
ATOM      5  C   UNL     1       3.286   7.882  17.629  0.00  0.00    +0.000 C 
ATOM      6  C   UNL     1       3.894   5.502  18.488  0.00  0.00    +0.000 A 
ATOM      7  C   UNL     1       3.598   4.518  19.469  0.00  0.00    +0.000 A 
ENDROOT
BRANCH   6   8
ATOM      8  C   UNL     1       4.921   5.231  17.410  0.00  0.00    +0.000 A 
ATOM      9  C   UNL     1       4.537   4.589  16.208  0.00  0.00    +0.000 A 
ATOM     10  C   UNL     1       5.456   4.154  15.248  0.00  0.00    +0.000 A 
ATOM     11  C   UNL     1       6.797   4.451  15.396  0.00  0.00    +0.000 A 
ATOM     12  C   UNL     1       7.212   5.179  16.506  0.00  0.00    +0.000 A 
ATOM     13  C   UNL     1       6.305   5.543  17.524  0.00  0.00    +0.000 A 
BRANCH  13  14
ATOM     14  O   UNL     1       6.724   6.215  18.648  0.00  0.00    +0.000 OA
ATOM     15  C   UNL     1       7.889   5.732  19.305  0.00  0.00    +0.000 C 
ENDBRANCH  13  14
ENDBRANCH   6   8
BRANCH   1  16
ATOM     16  C   UNL     1       2.173   3.570  21.390  0.00  0.00    +0.000 C 
BRANCH  16  18
ATOM     17  C   UNL     1       0.815   2.519  19.675  0.00  0.00    +0.000 C 
ATOM     18  N   UNL     1       0.912   2.887  21.083  0.00  0.00    +0.000 NA
ATOM     19  H   UNL     1       0.883   2.035  21.642  0.00  0.00    +0.000 HD
ENDBRANCH  16  18
ENDBRANCH   1  16
TORSDOF 4
ENDMDL
MODEL 7
REMARK VINA RESULT:      -6.6      2.489      3.704
REMARK  Name = 
REMARK  7 active torsions:
REMARK  status: ('A' for Active; 'I' for Inactive)
REMARK    1  A    between atoms: C_1  and  N_2
REMARK    2  A    between atoms: N_2  and  C_3
REMARK    3  A    between atoms: C_3  and  C_4
REMARK    4  A    between atoms: C_7  and  C_8
REMARK    5  A    between atoms: C_9  and  C_10
REMARK    6  A    between atoms: C_15  and  O_16
REMARK    7  A    between atoms: O_16  and  C_17
REMARK                            x       y       z     vdW  Elec       q    Type
REMARK                         _______ _______ _______ _____ _____    ______ ____
ROOT
ATOM      1  C   UNL     1       6.573   5.714  17.843  0.00  0.00    +0.000 A 
ATOM      2  C   UNL     1       6.420   5.266  16.534  0.00  0.00    +0.000 A 
ATOM      3  C   UNL     1       5.360   4.442  16.193  0.00  0.00    +0.000 A 
ATOM      4  C   UNL     1       4.389   4.062  17.139  0.00  0.00    +0.000 A 
ATOM      5  C   UNL     1       3.275   3.202  16.601  0.00  0.00    +0.000 C 
ATOM      6  C   UNL     1       4.503   4.487  18.501  0.00  0.00    +0.000 A 
ATOM      7  C   UNL     1       5.626   5.302  18.807  0.00  0.00    +0.000 A 
ENDROOT
BRANCH   6   8
ATOM      8  C   UNL     1       3.485   4.146  19.569  0.00  0.00    +0.000 A 
ATOM      9  C   UNL     1       3.648   2.984  20.361  0.00  0.00    +0.000 A 
ATOM     10  C   UNL     1       2.667   2.517  21.242  0.00  0.00    +0.000 A 
ATOM     11  C   UNL     1       1.524   3.263  21.455  0.00  0.00    +0.000 A 
ATOM     12  C   UNL     1       1.367   4.471  20.785  0.00  0.00    +0.000 A 
ATOM     13  C   UNL     1       2.309   4.905  19.827  0.00  0.00    +0.000 A 
BRANCH  13  14
ATOM     14  O   UNL     1       2.127   6.073  19.124  0.00  0.00    +0.000 OA
ATOM     15  C   UNL     1       2.171   7.292  19.855  0.00  0.00    +0.000 C 
ENDBRANCH  13  14
ENDBRANCH   6   8
BRANCH   1  16
ATOM     16  C   UNL     1       7.667   6.716  18.132  0.00  0.00    +0.000 C 
BRANCH  16  18
ATOM     17  C   UNL     1       8.206   9.077  17.978  0.00  0.00    +0.000 C 
ATOM     18  N   UNL     1       7.745   7.893  17.262  0.00  0.00    +0.000 NA
ATOM     19  H   UNL     1       8.415   7.682  16.523  0.00  0.00    +0.000 HD
ENDBRANCH  16  18
ENDBRANCH   1  16
TORSDOF 4
ENDMDL
MODEL 8
REMARK VINA RESULT:      -6.5      1.283      1.371
REMARK  Name = 
REMARK  7 active torsions:
REMARK  status: ('A' for Active; 'I' for Inactive)
REMARK    1  A    between atoms: C_1  and  N_2
REMARK    2  A    between atoms: N_2  and  C_3
REMARK    3  A    between atoms: C_3  and  C_4
REMARK    4  A    between atoms: C_7  and  C_8
REMARK    5  A    between atoms: C_9  and  C_10
REMARK    6  A    between atoms: C_15  and  O_16
REMARK    7  A    between atoms: O_16  and  C_17
REMARK                            x       y       z     vdW  Elec       q    Type
REMARK                         _______ _______ _______ _____ _____    ______ ____
ROOT
ATOM      1  C   UNL     1       5.629   4.504  15.305  0.00  0.00    +0.000 A 
ATOM      2  C   UNL     1       6.928   4.863  15.656  0.00  0.00    +0.000 A 
ATOM      3  C   UNL     1       7.242   5.162  16.972  0.00  0.00    +0.000 A 
ATOM      4  C   UNL     1       6.279   5.080  17.996  0.00  0.00    +0.000 A 
ATOM      5  C   UNL     1       6.789   5.392  19.379  0.00  0.00    +0.000 C 
ATOM      6  C   UNL     1       4.926   4.726  17.689  0.00  0.00    +0.000 A 
ATOM      7  C   UNL     1       4.649   4.461  16.321  0.00  0.00    +0.000 A 
ENDROOT
BRANCH   6   8
ATOM      8  C   UNL     1       3.842   4.587  18.736  0.00  0.00    +0.000 A 
ATOM      9  C   UNL     1       3.521   3.312  19.261  0.00  0.00    +0.000 A 
ATOM     10  C   UNL     1       2.422   3.085  20.097  0.00  0.00    +0.000 A 
ATOM     11  C   UNL     1       1.664   4.152  20.540  0.00  0.00    +0.000 A 
ATOM     12  C   UNL     1       2.008   5.440  20.142  0.00  0.00    +0.000 A 
ATOM     13  C   UNL     1       3.058   5.669  19.227  0.00  0.00    +0.000 A 
BRANCH  13  14
ATOM     14  O   UNL     1       3.363   6.936  18.791  0.00  0.00    +0.000 OA
ATOM     15  C   UNL     1       2.311   7.705  18.222  0.00  0.00    +0.000 C 
ENDBRANCH  13  14
ENDBRANCH   6   8
BRANCH   1  16
ATOM     16  C   UNL     1       5.371   4.059  13.884  0.00  0.00    +0.000 C 
BRANCH  16  18
ATOM     17  C   UNL     1       6.023   2.800  11.914  0.00  0.00    +0.000 C 
ATOM     18  N   UNL     1       6.451   3.342  13.199  0.00  0.00    +0.000 NA
ATOM     19  H   UNL     1       7.203   4.010  13.034  0.00  0.00    +0.000 HD
ENDBRANCH  16  18
ENDBRANCH   1  16
TORSDOF 4
ENDMDL
MODEL 9
REMARK VINA RESULT:      -6.5      1.977      3.141
REMARK  Name = 
REMARK  7 active torsions:
REMARK  status: ('A' for Active; 'I' for Inactive)
REMARK    1  A    between atoms: C_1  and  N_2
REMARK    2  A    between atoms: N_2  and  C_3
REMARK    3  A    between atoms: C_3  and  C_4
REMARK    4  A    between atoms: C_7  and  C_8
REMARK    5  A    between atoms: C_9  and  C_10
REMARK    6  A    between atoms: C_15  and  O_16
REMARK    7  A    between atoms: O_16  and  C_17
REMARK                            x       y       z     vdW  Elec       q    Type
REMARK                         _______ _______ _______ _____ _____    ______ ____
ROOT
ATOM      1  C   UNL     1       5.690   5.335  16.901  0.00  0.00    +0.000 A 
ATOM      2  C   UNL     1       5.421   6.665  16.585  0.00  0.00    +0.000 A 
ATOM      3  C   UNL     1       4.299   7.296  17.096  0.00  0.00    +0.000 A 
ATOM      4  C   UNL     1       3.418   6.635  17.974  0.00  0.00    +0.000 A 
ATOM      5  C   UNL     1       2.272   7.472  18.478  0.00  0.00    +0.000 C 
ATOM      6  C   UNL     1       3.642   5.265  18.325  0.00  0.00    +0.000 A 
ATOM      7  C   UNL     1       4.787   4.654  17.747  0.00  0.00    +0.000 A 
ENDROOT
BRANCH   6   8
ATOM      8  C   UNL     1       2.759   4.496  19.285  0.00  0.00    +0.000 A 
ATOM      9  C   UNL     1       2.779   4.800  20.667  0.00  0.00    +0.000 A 
ATOM     10  C   UNL     1       2.125   4.022  21.629  0.00  0.00    +0.000 A 
ATOM     11  C   UNL     1       1.323   2.969  21.232  0.00  0.00    +0.000 A 
ATOM     12  C   UNL     1       1.180   2.699  19.875  0.00  0.00    +0.000 A 
ATOM     13  C   UNL     1       1.907   3.421  18.904  0.00  0.00    +0.000 A 
BRANCH  13  14
ATOM     14  O   UNL     1       1.809   3.118  17.566  0.00  0.00    +0.000 OA
ATOM     15  C   UNL     1       2.566   2.013  17.087  0.00  0.00    +0.000 C 
ENDBRANCH  13  14
ENDBRANCH   6   8
BRANCH   1  16
ATOM     16  C   UNL     1       6.994   4.738  16.427  0.00  0.00    +0.000 C 
BRANCH  16  18
ATOM     17  C   UNL     1       6.926   4.651  14.002  0.00  0.00    +0.000 C 
ATOM     18  N   UNL     1       7.552   5.255  15.173  0.00  0.00    +0.000 NA
ATOM     19  H   UNL     1       7.377   6.258  15.153  0.00  0.00    +0.000 HD
ENDBRANCH  16  18
ENDBRANCH   1  16
TORSDOF 4
ENDMDL
