MODEL 1
REMARK VINA RESULT:      -6.7      0.000      0.000
REMARK  Name = 
REMARK  3 active torsions:
REMARK  status: ('A' for Active; 'I' for Inactive)
REMARK    1  A    between atoms: C_2  and  C_11
REMARK    2  A    between atoms: N_3  and  C_4
REMARK    3  A    between atoms: C_17  and  O_18
REMARK                            x       y       z     vdW  Elec       q    Type
REMARK                         _______ _______ _______ _____ _____    ______ ____
ROOT
ATOM      1  O   UNL     1       4.589   5.703  16.898  0.00  0.00    +0.000 OA
ATOM      2  C   UNL     1       4.905   4.605  16.441  0.00  0.00    +0.000 C 
ATOM      3  N   UNL     1       4.515   3.378  16.936  0.00  0.00    +0.000 N 
ATOM      4  H   UNL     1       4.963   2.569  16.513  0.00  0.00    +0.000 HD
ENDROOT
BRANCH   3   5
ATOM      5  C   UNL     1       3.693   3.142  18.056  0.00  0.00    +0.000 A 
ATOM      6  C   UNL     1       2.297   3.219  18.017  0.00  0.00    +0.000 A 
ATOM      7  C   UNL     1       1.539   3.038  19.178  0.00  0.00    +0.000 A 
ATOM      8  C   UNL     1       2.175   2.769  20.383  0.00  0.00    +0.000 A 
ATOM      9 CL   UNL     1       1.246   2.586  21.819  0.00  0.00    +0.000 Cl
ATOM     10  C   UNL     1       3.563   2.654  20.433  0.00  0.00    +0.000 A 
ATOM     11  C   UNL     1       4.319   2.830  19.269  0.00  0.00    +0.000 A 
ENDBRANCH   3   5
BRANCH   2  12
ATOM     12  C   UNL     1       5.794   4.587  15.241  0.00  0.00    +0.000 A 
ATOM     13  C   UNL     1       5.375   3.790  14.161  0.00  0.00    +0.000 A 
ATOM     14  C   UNL     1       6.127   3.742  12.990  0.00  0.00    +0.000 A 
ATOM     15  I   UNL     1       5.502   2.543  11.412  0.00  0.00    +0.000 I 
ATOM     16  C   UNL     1       7.295   4.493  12.873  0.00  0.00    +0.000 A 
ATOM     17  C   UNL     1       7.720   5.289  13.939  0.00  0.00    +0.000 A 
ATOM     18  C   UNL     1       6.976   5.332  15.121  0.00  0.00    +0.000 A 
BRANCH  18  19
ATOM     19  O   UNL     1       7.420   6.114  16.154  0.00  0.00    +0.000 OA
ATOM     20  H   UNL     1       8.287   5.782  16.448  0.00  0.00    +0.000 HD
ENDBRANCH  18  19
ENDBRANCH   2  12
TORSDOF 3
ENDMDL
MODEL 2
REMARK VINA RESULT:      -6.5      0.945      1.005
REMARK  Name = 
REMARK  3 active torsions:
REMARK  status: ('A' for Active; 'I' for Inactive)
REMARK    1  A    between atoms: C_2  and  C_11
REMARK    2  A    between atoms: N_3  and  C_4
REMARK    3  A    between atoms: C_17  and  O_18
REMARK                            x       y       z     vdW  Elec       q    Type
REMARK                         _______ _______ _______ _____ _____    ______ ____
ROOT
ATOM      1  O   UNL     1       6.264   4.386  17.428  0.00  0.00    +0.000 OA
ATOM      2  C   UNL     1       5.564   4.201  16.434  0.00  0.00    +0.000 C 
ATOM      3  N   UNL     1       4.225   3.864  16.435  0.00  0.00    +0.000 N 
ATOM      4  H   UNL     1       3.829   3.631  15.528  0.00  0.00    +0.000 HD
ENDROOT
BRANCH   3   5
ATOM      5  C   UNL     1       3.408   3.660  17.564  0.00  0.00    +0.000 A 
ATOM      6  C   UNL     1       2.667   4.677  18.174  0.00  0.00    +0.000 A 
ATOM      7  C   UNL     1       1.925   4.425  19.331  0.00  0.00    +0.000 A 
ATOM      8  C   UNL     1       1.913   3.149  19.880  0.00  0.00    +0.000 A 
ATOM      9 CL   UNL     1       1.033   2.848  21.327  0.00  0.00    +0.000 Cl
ATOM     10  C   UNL     1       2.617   2.115  19.266  0.00  0.00    +0.000 A 
ATOM     11  C   UNL     1       3.355   2.369  18.104  0.00  0.00    +0.000 A 
ENDBRANCH   3   5
BRANCH   2  12
ATOM     12  C   UNL     1       6.211   4.350  15.097  0.00  0.00    +0.000 A 
ATOM     13  C   UNL     1       5.744   3.504  14.075  0.00  0.00    +0.000 A 
ATOM     14  C   UNL     1       6.269   3.600  12.789  0.00  0.00    +0.000 A 
ATOM     15  I   UNL     1       5.579   2.328  11.297  0.00  0.00    +0.000 I 
ATOM     16  C   UNL     1       7.253   4.543  12.498  0.00  0.00    +0.000 A 
ATOM     17  C   UNL     1       7.723   5.389  13.505  0.00  0.00    +0.000 A 
ATOM     18  C   UNL     1       7.210   5.289  14.801  0.00  0.00    +0.000 A 
BRANCH  18  19
ATOM     19  O   UNL     1       7.695   6.126  15.771  0.00  0.00    +0.000 OA
ATOM     20  H   UNL     1       8.121   5.589  16.463  0.00  0.00    +0.000 HD
ENDBRANCH  18  19
ENDBRANCH   2  12
TORSDOF 3
ENDMDL
MODEL 3
REMARK VINA RESULT:      -6.5      0.263      1.164
REMARK  Name = 
REMARK  3 active torsions:
REMARK  status: ('A' for Active; 'I' for Inactive)
REMARK    1  A    between atoms: C_2  and  C_11
REMARK    2  A    between atoms: N_3  and  C_4
REMARK    3  A    between atoms: C_17  and  O_18
REMARK                            x       y       z     vdW  Elec       q    Type
REMARK                         _______ _______ _______ _____ _____    ______ ____
ROOT
ATOM      1  O   UNL     1       4.941   5.799  16.988  0.00  0.00    +0.000 OA
ATOM      2  C   UNL     1       5.070   4.693  16.467  0.00  0.00    +0.000 C 
ATOM      3  N   UNL     1       4.570   3.502  16.955  0.00  0.00    +0.000 N 
ATOM      4  H   UNL     1       4.871   2.664  16.465  0.00  0.00    +0.000 HD
ENDROOT
BRANCH   3   5
ATOM      5  C   UNL     1       3.826   3.321  18.138  0.00  0.00    +0.000 A 
ATOM      6  C   UNL     1       4.395   2.929  19.354  0.00  0.00    +0.000 A 
ATOM      7  C   UNL     1       3.595   2.703  20.477  0.00  0.00    +0.000 A 
ATOM      8  C   UNL     1       2.219   2.877  20.392  0.00  0.00    +0.000 A 
ATOM      9 CL   UNL     1       1.230   2.560  21.763  0.00  0.00    +0.000 Cl
ATOM     10  C   UNL     1       1.639   3.303  19.198  0.00  0.00    +0.000 A 
ATOM     11  C   UNL     1       2.443   3.533  18.077  0.00  0.00    +0.000 A 
ENDBRANCH   3   5
BRANCH   2  12
ATOM     12  C   UNL     1       5.841   4.617  15.191  0.00  0.00    +0.000 A 
ATOM     13  C   UNL     1       5.242   3.904  14.136  0.00  0.00    +0.000 A 
ATOM     14  C   UNL     1       5.876   3.813  12.900  0.00  0.00    +0.000 A 
ATOM     15  I   UNL     1       4.983   2.739  11.361  0.00  0.00    +0.000 I 
ATOM     16  C   UNL     1       7.104   4.437  12.691  0.00  0.00    +0.000 A 
ATOM     17  C   UNL     1       7.708   5.148  13.731  0.00  0.00    +0.000 A 
ATOM     18  C   UNL     1       7.083   5.233  14.978  0.00  0.00    +0.000 A 
BRANCH  18  19
ATOM     19  O   UNL     1       7.701   5.930  15.982  0.00  0.00    +0.000 OA
ATOM     20  H   UNL     1       7.142   5.894  16.778  0.00  0.00    +0.000 HD
ENDBRANCH  18  19
ENDBRANCH   2  12
TORSDOF 3
ENDMDL
MODEL 4
REMARK VINA RESULT:      -6.4      5.355      6.433
REMARK  Name = 
REMARK  3 active torsions:
REMARK  status: ('A' for Active; 'I' for Inactive)
REMARK    1  A    between atoms: C_2  and  C_11
REMARK    2  A    between atoms: N_3  and  C_4
REMARK    3  A    between atoms: C_17  and  O_18
REMARK                            x       y       z     vdW  Elec       q    Type
REMARK                         _______ _______ _______ _____ _____    ______ ____
ROOT
ATOM      1  O   UNL     1       1.447   5.509  20.526  0.00  0.00    +0.000 OA
ATOM      2  C   UNL     1       2.131   6.166  19.743  0.00  0.00    +0.000 C 
ATOM      3  N   UNL     1       2.166   7.543  19.655  0.00  0.00    +0.000 N 
ATOM      4  H   UNL     1       2.695   7.921  18.873  0.00  0.00    +0.000 HD
ENDROOT
BRANCH   3   5
ATOM      5  C   UNL     1       1.427   8.458  20.431  0.00  0.00    +0.000 A 
ATOM      6  C   UNL     1       1.407   8.441  21.829  0.00  0.00    +0.000 A 
ATOM      7  C   UNL     1       0.602   9.335  22.542  0.00  0.00    +0.000 A 
ATOM      8  C   UNL     1      -0.181  10.257  21.858  0.00  0.00    +0.000 A 
ATOM      9 CL   UNL     1      -1.201  11.329  22.734  0.00  0.00    +0.000 Cl
ATOM     10  C   UNL     1      -0.145  10.310  20.466  0.00  0.00    +0.000 A 
ATOM     11  C   UNL     1       0.665   9.418  19.755  0.00  0.00    +0.000 A 
ENDBRANCH   3   5
BRANCH   2  12
ATOM     12  C   UNL     1       3.006   5.416  18.794  0.00  0.00    +0.000 A 
ATOM     13  C   UNL     1       4.386   5.676  18.872  0.00  0.00    +0.000 A 
ATOM     14  C   UNL     1       5.277   4.995  18.047  0.00  0.00    +0.000 A 
ATOM     15  I   UNL     1       7.310   5.408  18.164  0.00  0.00    +0.000 I 
ATOM     16  C   UNL     1       4.812   4.040  17.145  0.00  0.00    +0.000 A 
ATOM     17  C   UNL     1       3.443   3.773  17.060  0.00  0.00    +0.000 A 
ATOM     18  C   UNL     1       2.543   4.462  17.876  0.00  0.00    +0.000 A 
BRANCH  18  19
ATOM     19  O   UNL     1       1.205   4.186  17.766  0.00  0.00    +0.000 OA
ATOM     20  H   UNL     1       0.858   4.633  16.973  0.00  0.00    +0.000 HD
ENDBRANCH  18  19
ENDBRANCH   2  12
TORSDOF 3
ENDMDL
MODEL 5
REMARK VINA RESULT:      -6.4      6.073      8.019
REMARK  Name = 
REMARK  3 active torsions:
REMARK  status: ('A' for Active; 'I' for Inactive)
REMARK    1  A    between atoms: C_2  and  C_11
REMARK    2  A    between atoms: N_3  and  C_4
REMARK    3  A    between atoms: C_17  and  O_18
REMARK                            x       y       z     vdW  Elec       q    Type
REMARK                         _______ _______ _______ _____ _____    ______ ____
ROOT
ATOM      1  O   UNL     1       2.257   8.898  17.317  0.00  0.00    +0.000 OA
ATOM      2  C   UNL     1       2.184   8.287  18.382  0.00  0.00    +0.000 C 
ATOM      3  N   UNL     1       2.808   7.092  18.676  0.00  0.00    +0.000 N 
ATOM      4  H   UNL     1       2.545   6.664  19.560  0.00  0.00    +0.000 HD
ENDROOT
BRANCH   3   5
ATOM      5  C   UNL     1       3.636   6.339  17.820  0.00  0.00    +0.000 A 
ATOM      6  C   UNL     1       4.663   6.899  17.053  0.00  0.00    +0.000 A 
ATOM      7  C   UNL     1       5.409   6.109  16.174  0.00  0.00    +0.000 A 
ATOM      8  C   UNL     1       5.135   4.751  16.063  0.00  0.00    +0.000 A 
ATOM      9 CL   UNL     1       6.026   3.788  14.951  0.00  0.00    +0.000 Cl
ATOM     10  C   UNL     1       4.139   4.170  16.846  0.00  0.00    +0.000 A 
ATOM     11  C   UNL     1       3.398   4.962  17.730  0.00  0.00    +0.000 A 
ENDBRANCH   3   5
BRANCH   2  12
ATOM     12  C   UNL     1       1.343   8.883  19.463  0.00  0.00    +0.000 A 
ATOM     13  C   UNL     1       0.594  10.023  19.120  0.00  0.00    +0.000 A 
ATOM     14  C   UNL     1      -0.242  10.622  20.058  0.00  0.00    +0.000 A 
ATOM     15  I   UNL     1      -1.326  12.317  19.538  0.00  0.00    +0.000 I 
ATOM     16  C   UNL     1      -0.356  10.091  21.341  0.00  0.00    +0.000 A 
ATOM     17  C   UNL     1       0.383   8.958  21.692  0.00  0.00    +0.000 A 
ATOM     18  C   UNL     1       1.234   8.360  20.759  0.00  0.00    +0.000 A 
BRANCH  18  19
ATOM     19  O   UNL     1       1.953   7.255  21.133  0.00  0.00    +0.000 OA
ATOM     20  H   UNL     1       1.427   6.741  21.772  0.00  0.00    +0.000 HD
ENDBRANCH  18  19
ENDBRANCH   2  12
TORSDOF 3
ENDMDL
MODEL 6
REMARK VINA RESULT:      -6.3      4.333      4.803
REMARK  Name = 
REMARK  3 active torsions:
REMARK  status: ('A' for Active; 'I' for Inactive)
REMARK    1  A    between atoms: C_2  and  C_11
REMARK    2  A    between atoms: N_3  and  C_4
REMARK    3  A    between atoms: C_17  and  O_18
REMARK                            x       y       z     vdW  Elec       q    Type
REMARK                         _______ _______ _______ _____ _____    ______ ____
ROOT
ATOM      1  O   UNL     1       2.518   5.215  17.925  0.00  0.00    +0.000 OA
ATOM      2  C   UNL     1       3.493   5.960  17.844  0.00  0.00    +0.000 C 
ATOM      3  N   UNL     1       3.508   7.310  18.132  0.00  0.00    +0.000 N 
ATOM      4  H   UNL     1       4.367   7.801  17.897  0.00  0.00    +0.000 HD
ENDROOT
BRANCH   3   5
ATOM      5  C   UNL     1       2.420   8.094  18.563  0.00  0.00    +0.000 A 
ATOM      6  C   UNL     1       1.753   9.005  17.738  0.00  0.00    +0.000 A 
ATOM      7  C   UNL     1       0.720   9.802  18.242  0.00  0.00    +0.000 A 
ATOM      8  C   UNL     1       0.344   9.684  19.574  0.00  0.00    +0.000 A 
ATOM      9 CL   UNL     1      -0.899  10.692  20.205  0.00  0.00    +0.000 Cl
ATOM     10  C   UNL     1       0.974   8.755  20.401  0.00  0.00    +0.000 A 
ATOM     11  C   UNL     1       2.003   7.956  19.892  0.00  0.00    +0.000 A 
ENDBRANCH   3   5
BRANCH   2  12
ATOM     12  C   UNL     1       4.784   5.361  17.392  0.00  0.00    +0.000 A 
ATOM     13  C   UNL     1       4.875   5.020  16.031  0.00  0.00    +0.000 A 
ATOM     14  C   UNL     1       6.055   4.488  15.517  0.00  0.00    +0.000 A 
ATOM     15  I   UNL     1       6.163   3.971  13.507  0.00  0.00    +0.000 I 
ATOM     16  C   UNL     1       7.161   4.301  16.344  0.00  0.00    +0.000 A 
ATOM     17  C   UNL     1       7.082   4.638  17.698  0.00  0.00    +0.000 A 
ATOM     18  C   UNL     1       5.896   5.160  18.221  0.00  0.00    +0.000 A 
BRANCH  18  19
ATOM     19  O   UNL     1       5.844   5.474  19.554  0.00  0.00    +0.000 OA
ATOM     20  H   UNL     1       6.753   5.573  19.888  0.00  0.00    +0.000 HD
ENDBRANCH  18  19
ENDBRANCH   2  12
TORSDOF 3
ENDMDL
MODEL 7
REMARK VINA RESULT:      -6.3      5.407      6.390
REMARK  Name = 
REMARK  3 active torsions:
REMARK  status: ('A' for Active; 'I' for Inactive)
REMARK    1  A    between atoms: C_2  and  C_11
REMARK    2  A    between atoms: N_3  and  C_4
REMARK    3  A    between atoms: C_17  and  O_18
REMARK                            x       y       z     vdW  Elec       q    Type
REMARK                         _______ _______ _______ _____ _____    ______ ____
ROOT
ATOM      1  O   UNL     1       1.387   5.554  20.452  0.00  0.00    +0.000 OA
ATOM      2  C   UNL     1       2.101   6.217  19.702  0.00  0.00    +0.000 C 
ATOM      3  N   UNL     1       2.123   7.595  19.611  0.00  0.00    +0.000 N 
ATOM      4  H   UNL     1       2.685   7.977  18.855  0.00  0.00    +0.000 HD
ENDROOT
BRANCH   3   5
ATOM      5  C   UNL     1       1.334   8.502  20.346  0.00  0.00    +0.000 A 
ATOM      6  C   UNL     1       0.542   9.490  19.753  0.00  0.00    +0.000 A 
ATOM      7  C   UNL     1      -0.168  10.402  20.539  0.00  0.00    +0.000 A 
ATOM      8  C   UNL     1      -0.095  10.325  21.924  0.00  0.00    +0.000 A 
ATOM      9 CL   UNL     1      -0.937  11.473  22.890  0.00  0.00    +0.000 Cl
ATOM     10  C   UNL     1       0.661   9.325  22.532  0.00  0.00    +0.000 A 
ATOM     11  C   UNL     1       1.366   8.409  21.743  0.00  0.00    +0.000 A 
ENDBRANCH   3   5
BRANCH   2  12
ATOM     12  C   UNL     1       3.032   5.476  18.800  0.00  0.00    +0.000 A 
ATOM     13  C   UNL     1       4.403   5.754  18.947  0.00  0.00    +0.000 A 
ATOM     14  C   UNL     1       5.343   5.082  18.170  0.00  0.00    +0.000 A 
ATOM     15  I   UNL     1       7.363   5.520  18.389  0.00  0.00    +0.000 I 
ATOM     16  C   UNL     1       4.936   4.119  17.249  0.00  0.00    +0.000 A 
ATOM     17  C   UNL     1       3.577   3.834  17.095  0.00  0.00    +0.000 A 
ATOM     18  C   UNL     1       2.628   4.514  17.863  0.00  0.00    +0.000 A 
BRANCH  18  19
ATOM     19  O   UNL     1       1.301   4.221  17.686  0.00  0.00    +0.000 OA
ATOM     20  H   UNL     1       1.156   3.284  17.906  0.00  0.00    +0.000 HD
ENDBRANCH  18  19
ENDBRANCH   2  12
TORSDOF 3
ENDMDL
MODEL 8
REMARK VINA RESULT:      -6.3      5.940      7.276
REMARK  Name = 
REMARK  3 active torsions:
REMARK  status: ('A' for Active; 'I' for Inactive)
REMARK    1  A    between atoms: C_2  and  C_11
REMARK    2  A    between atoms: N_3  and  C_4
REMARK    3  A    between atoms: C_17  and  O_18
REMARK                            x       y       z     vdW  Elec       q    Type
REMARK                         _______ _______ _______ _____ _____    ______ ____
ROOT
ATOM      1  O   UNL     1       3.157   7.821  17.811  0.00  0.00    +0.000 OA
ATOM      2  C   UNL     1       2.307   7.683  18.689  0.00  0.00    +0.000 C 
ATOM      3  N   UNL     1       1.914   6.489  19.258  0.00  0.00    +0.000 N 
ATOM      4  H   UNL     1       1.114   6.540  19.884  0.00  0.00    +0.000 HD
ENDROOT
BRANCH   3   5
ATOM      5  C   UNL     1       2.400   5.204  18.943  0.00  0.00    +0.000 A 
ATOM      6  C   UNL     1       1.854   4.399  17.938  0.00  0.00    +0.000 A 
ATOM      7  C   UNL     1       2.339   3.107  17.716  0.00  0.00    +0.000 A 
ATOM      8  C   UNL     1       3.379   2.616  18.495  0.00  0.00    +0.000 A 
ATOM      9 CL   UNL     1       3.947   1.011  18.249  0.00  0.00    +0.000 Cl
ATOM     10  C   UNL     1       3.958   3.417  19.477  0.00  0.00    +0.000 A 
ATOM     11  C   UNL     1       3.474   4.712  19.694  0.00  0.00    +0.000 A 
ENDBRANCH   3   5
BRANCH   2  12
ATOM     12  C   UNL     1       1.627   8.914  19.191  0.00  0.00    +0.000 A 
ATOM     13  C   UNL     1       1.072   8.843  20.482  0.00  0.00    +0.000 A 
ATOM     14  C   UNL     1       0.450   9.956  21.041  0.00  0.00    +0.000 A 
ATOM     15  I   UNL     1      -0.381   9.825  22.941  0.00  0.00    +0.000 I 
ATOM     16  C   UNL     1       0.383  11.155  20.334  0.00  0.00    +0.000 A 
ATOM     17  C   UNL     1       0.933  11.238  19.052  0.00  0.00    +0.000 A 
ATOM     18  C   UNL     1       1.547  10.120  18.480  0.00  0.00    +0.000 A 
BRANCH  18  19
ATOM     19  O   UNL     1       2.070  10.227  17.218  0.00  0.00    +0.000 OA
ATOM     20  H   UNL     1       2.859  10.796  17.254  0.00  0.00    +0.000 HD
ENDBRANCH  18  19
ENDBRANCH   2  12
TORSDOF 3
ENDMDL
MODEL 9
REMARK VINA RESULT:      -6.3      6.115      8.002
REMARK  Name = 
REMARK  3 active torsions:
REMARK  status: ('A' for Active; 'I' for Inactive)
REMARK    1  A    between atoms: C_2  and  C_11
REMARK    2  A    between atoms: N_3  and  C_4
REMARK    3  A    between atoms: C_17  and  O_18
REMARK                            x       y       z     vdW  Elec       q    Type
REMARK                         _______ _______ _______ _____ _____    ______ ____
ROOT
ATOM      1  O   UNL     1       2.078   8.738  17.286  0.00  0.00    +0.000 OA
ATOM      2  C   UNL     1       2.150   8.223  18.400  0.00  0.00    +0.000 C 
ATOM      3  N   UNL     1       2.830   7.064  18.717  0.00  0.00    +0.000 N 
ATOM      4  H   UNL     1       2.687   6.713  19.660  0.00  0.00    +0.000 HD
ENDROOT
BRANCH   3   5
ATOM      5  C   UNL     1       3.561   6.247  17.832  0.00  0.00    +0.000 A 
ATOM      6  C   UNL     1       3.309   4.883  17.658  0.00  0.00    +0.000 A 
ATOM      7  C   UNL     1       4.112   4.110  16.813  0.00  0.00    +0.000 A 
ATOM      8  C   UNL     1       5.169   4.703  16.132  0.00  0.00    +0.000 A 
ATOM      9 CL   UNL     1       6.181   3.745  15.125  0.00  0.00    +0.000 Cl
ATOM     10  C   UNL     1       5.412   6.068  16.268  0.00  0.00    +0.000 A 
ATOM     11  C   UNL     1       4.603   6.840  17.109  0.00  0.00    +0.000 A 
ENDBRANCH   3   5
BRANCH   2  12
ATOM     12  C   UNL     1       1.438   8.904  19.522  0.00  0.00    +0.000 A 
ATOM     13  C   UNL     1       0.870  10.158  19.237  0.00  0.00    +0.000 A 
ATOM     14  C   UNL     1       0.158  10.847  20.215  0.00  0.00    +0.000 A 
ATOM     15  I   UNL     1      -0.657  12.708  19.779  0.00  0.00    +0.000 I 
ATOM     16  C   UNL     1      -0.009  10.294  21.484  0.00  0.00    +0.000 A 
ATOM     17  C   UNL     1       0.550   9.048  21.778  0.00  0.00    +0.000 A 
ATOM     18  C   UNL     1       1.276   8.358  20.804  0.00  0.00    +0.000 A 
BRANCH  18  19
ATOM     19  O   UNL     1       1.820   7.142  21.122  0.00  0.00    +0.000 OA
ATOM     20  H   UNL     1       1.977   7.111  22.083  0.00  0.00    +0.000 HD
ENDBRANCH  18  19
ENDBRANCH   2  12
TORSDOF 3
ENDMDL
