MODEL 1
REMARK VINA RESULT:      -7.7      0.000      0.000
REMARK  Name = 
REMARK  6 active torsions:
REMARK  status: ('A' for Active; 'I' for Inactive)
REMARK    1  A    between atoms: C_1  and  C_2
REMARK    2  A    between atoms: C_5  and  C_6
REMARK    3  A    between atoms: C_6  and  C_7
REMARK    4  A    between atoms: C_7  and  C_8
REMARK    5  A    between atoms: N_14  and  C_15
REMARK    6  A    between atoms: C_16  and  C_17
REMARK                            x       y       z     vdW  Elec       q    Type
REMARK                         _______ _______ _______ _____ _____    ______ ____
ROOT
ATOM      1  C   UNL     1       6.527   4.646  14.283  0.00  0.00    +0.000 C 
ATOM      2  O   UNL     1       7.261   5.482  13.753  0.00  0.00    +0.000 OA
ATOM      3  N   UNL     1       6.341   4.582  15.651  0.00  0.00    +0.000 N 
ATOM      4  C   UNL     1       6.931   5.540  16.566  0.00  0.00    +0.000 C 
ATOM      5  C   UNL     1       6.175   5.360  17.892  0.00  0.00    +0.000 C 
ATOM      6  C   UNL     1       5.240   6.510  18.239  0.00  0.00    +0.000 C 
ATOM      7  N   UNL     1       4.036   6.223  17.470  0.00  0.00    +0.000 NA
ATOM      8  C   UNL     1       2.908   7.066  17.826  0.00  0.00    +0.000 C 
ATOM      9  C   UNL     1       3.812   4.765  17.519  0.00  0.00    +0.000 C 
ATOM     10  C   UNL     1       5.231   4.161  17.675  0.00  0.00    +0.000 C 
ATOM     11  C   UNL     1       5.717   3.511  16.391  0.00  0.00    +0.000 C 
ENDROOT
BRANCH   9  12
ATOM     12  C   UNL     1       2.814   4.288  18.567  0.00  0.00    +0.000 A 
ATOM     13  C   UNL     1       3.206   4.275  19.919  0.00  0.00    +0.000 A 
ATOM     14  C   UNL     1       2.371   3.753  20.906  0.00  0.00    +0.000 A 
ATOM     15  C   UNL     1       1.118   3.253  20.560  0.00  0.00    +0.000 A 
ATOM     16  C   UNL     1       0.701   3.281  19.232  0.00  0.00    +0.000 A 
ATOM     17  C   UNL     1       1.545   3.786  18.241  0.00  0.00    +0.000 A 
ENDBRANCH   9  12
BRANCH   1  18
ATOM     18  C   UNL     1       5.675   3.688  13.482  0.00  0.00    +0.000 C 
BRANCH  18  19
ATOM     19  C   UNL     1       5.913   3.760  11.981  0.00  0.00    +0.000 C 
BRANCH  19  24
ATOM     20  C   UNL     1       2.410   4.961   8.872  0.00  0.00    +0.000 C 
ATOM     21  C   UNL     1       3.055   4.051   9.840  0.00  0.00    +0.000 A 
ATOM     22  C   UNL     1       2.740   2.795  10.312  0.00  0.00    +0.000 A 
ATOM     23  C   UNL     1       3.755   2.451  11.236  0.00  0.00    +0.000 A 
ATOM     24  C   UNL     1       4.627   3.518  11.271  0.00  0.00    +0.000 A 
ATOM     25  O   UNL     1       4.207   4.494  10.417  0.00  0.00    +0.000 OA
ENDBRANCH  19  24
ENDBRANCH  18  19
ENDBRANCH   1  18
TORSDOF 4
ENDMDL
MODEL 2
REMARK VINA RESULT:      -7.5      0.638      1.103
REMARK  Name = 
REMARK  6 active torsions:
REMARK  status: ('A' for Active; 'I' for Inactive)
REMARK    1  A    between atoms: C_1  and  C_2
REMARK    2  A    between atoms: C_5  and  C_6
REMARK    3  A    between atoms: C_6  and  C_7
REMARK    4  A    between atoms: C_7  and  C_8
REMARK    5  A    between atoms: N_14  and  C_15
REMARK    6  A    between atoms: C_16  and  C_17
REMARK                            x       y       z     vdW  Elec       q    Type
REMARK                         _______ _______ _______ _____ _____    ______ ____
ROOT
ATOM      1  C   UNL     1       6.222   4.640  14.448  0.00  0.00    +0.000 C 
ATOM      2  O   UNL     1       7.000   5.483  13.998  0.00  0.00    +0.000 OA
ATOM      3  N   UNL     1       6.176   4.315  15.791  0.00  0.00    +0.000 N 
ATOM      4  C   UNL     1       6.979   4.994  16.788  0.00  0.00    +0.000 C 
ATOM      5  C   UNL     1       6.350   4.626  18.142  0.00  0.00    +0.000 C 
ATOM      6  C   UNL     1       5.617   5.774  18.822  0.00  0.00    +0.000 C 
ATOM      7  N   UNL     1       4.311   5.783  18.175  0.00  0.00    +0.000 NA
ATOM      8  C   UNL     1       3.347   6.651  18.830  0.00  0.00    +0.000 C 
ATOM      9  C   UNL     1       3.904   4.379  17.972  0.00  0.00    +0.000 C 
ATOM     10  C   UNL     1       5.240   3.607  17.823  0.00  0.00    +0.000 C 
ATOM     11  C   UNL     1       5.497   3.188  16.386  0.00  0.00    +0.000 C 
ENDROOT
BRANCH   9  12
ATOM     12  C   UNL     1       2.968   3.806  19.029  0.00  0.00    +0.000 A 
ATOM     13  C   UNL     1       1.578   3.923  18.837  0.00  0.00    +0.000 A 
ATOM     14  C   UNL     1       0.679   3.510  19.819  0.00  0.00    +0.000 A 
ATOM     15  C   UNL     1       1.153   2.953  21.004  0.00  0.00    +0.000 A 
ATOM     16  C   UNL     1       2.524   2.804  21.201  0.00  0.00    +0.000 A 
ATOM     17  C   UNL     1       3.425   3.236  20.227  0.00  0.00    +0.000 A 
ENDBRANCH   9  12
BRANCH   1  18
ATOM     18  C   UNL     1       5.172   3.965  13.596  0.00  0.00    +0.000 C 
BRANCH  18  19
ATOM     19  C   UNL     1       5.678   3.521  12.232  0.00  0.00    +0.000 C 
BRANCH  19  24
ATOM     20  C   UNL     1       2.341   5.031   9.076  0.00  0.00    +0.000 C 
ATOM     21  C   UNL     1       3.023   3.992   9.872  0.00  0.00    +0.000 A 
ATOM     22  C   UNL     1       2.861   2.628   9.986  0.00  0.00    +0.000 A 
ATOM     23  C   UNL     1       3.826   2.188  10.923  0.00  0.00    +0.000 A 
ATOM     24  C   UNL     1       4.517   3.311  11.325  0.00  0.00    +0.000 A 
ATOM     25  O   UNL     1       4.035   4.412  10.682  0.00  0.00    +0.000 OA
ENDBRANCH  19  24
ENDBRANCH  18  19
ENDBRANCH   1  18
TORSDOF 4
ENDMDL
MODEL 3
REMARK VINA RESULT:      -7.3      1.483      2.002
REMARK  Name = 
REMARK  6 active torsions:
REMARK  status: ('A' for Active; 'I' for Inactive)
REMARK    1  A    between atoms: C_1  and  C_2
REMARK    2  A    between atoms: C_5  and  C_6
REMARK    3  A    between atoms: C_6  and  C_7
REMARK    4  A    between atoms: C_7  and  C_8
REMARK    5  A    between atoms: N_14  and  C_15
REMARK    6  A    between atoms: C_16  and  C_17
REMARK                            x       y       z     vdW  Elec       q    Type
REMARK                         _______ _______ _______ _____ _____    ______ ____
ROOT
ATOM      1  C   UNL     1       7.061   5.101  15.616  0.00  0.00    +0.000 C 
ATOM      2  O   UNL     1       7.765   6.055  15.283  0.00  0.00    +0.000 OA
ATOM      3  N   UNL     1       6.569   4.953  16.899  0.00  0.00    +0.000 N 
ATOM      4  C   UNL     1       6.776   5.947  17.935  0.00  0.00    +0.000 C 
ATOM      5  C   UNL     1       5.764   5.603  19.040  0.00  0.00    +0.000 C 
ATOM      6  C   UNL     1       4.612   6.592  19.160  0.00  0.00    +0.000 C 
ATOM      7  N   UNL     1       3.681   6.167  18.123  0.00  0.00    +0.000 NA
ATOM      8  C   UNL     1       2.387   6.824  18.204  0.00  0.00    +0.000 C 
ATOM      9  C   UNL     1       3.672   4.691  18.107  0.00  0.00    +0.000 C 
ATOM     10  C   UNL     1       5.088   4.292  18.595  0.00  0.00    +0.000 C 
ATOM     11  C   UNL     1       5.955   3.773  17.461  0.00  0.00    +0.000 C 
ENDROOT
BRANCH   9  12
ATOM     12  C   UNL     1       2.538   4.032  18.882  0.00  0.00    +0.000 A 
ATOM     13  C   UNL     1       2.633   3.951  20.284  0.00  0.00    +0.000 A 
ATOM     14  C   UNL     1       1.675   3.269  21.032  0.00  0.00    +0.000 A 
ATOM     15  C   UNL     1       0.592   2.672  20.393  0.00  0.00    +0.000 A 
ATOM     16  C   UNL     1       0.466   2.763  19.009  0.00  0.00    +0.000 A 
ATOM     17  C   UNL     1       1.435   3.429  18.257  0.00  0.00    +0.000 A 
ENDBRANCH   9  12
BRANCH   1  18
ATOM     18  C   UNL     1       6.575   4.065  14.627  0.00  0.00    +0.000 C 
BRANCH  18  19
ATOM     19  C   UNL     1       6.705   4.493  13.173  0.00  0.00    +0.000 C 
BRANCH  19  24
ATOM     20  C   UNL     1       6.088   0.239  10.959  0.00  0.00    +0.000 C 
ATOM     21  C   UNL     1       5.658   1.600  11.336  0.00  0.00    +0.000 A 
ATOM     22  C   UNL     1       4.518   2.335  11.089  0.00  0.00    +0.000 A 
ATOM     23  C   UNL     1       4.706   3.587  11.722  0.00  0.00    +0.000 A 
ATOM     24  C   UNL     1       5.949   3.540  12.315  0.00  0.00    +0.000 A 
ATOM     25  O   UNL     1       6.531   2.328  12.087  0.00  0.00    +0.000 OA
ENDBRANCH  19  24
ENDBRANCH  18  19
ENDBRANCH   1  18
TORSDOF 4
ENDMDL
MODEL 4
REMARK VINA RESULT:      -7.1      7.338      9.641
REMARK  Name = 
REMARK  6 active torsions:
REMARK  status: ('A' for Active; 'I' for Inactive)
REMARK    1  A    between atoms: C_1  and  C_2
REMARK    2  A    between atoms: C_5  and  C_6
REMARK    3  A    between atoms: C_6  and  C_7
REMARK    4  A    between atoms: C_7  and  C_8
REMARK    5  A    between atoms: N_14  and  C_15
REMARK    6  A    between atoms: C_16  and  C_17
REMARK                            x       y       z     vdW  Elec       q    Type
REMARK                         _______ _______ _______ _____ _____    ______ ____
ROOT
ATOM      1  C   UNL     1       9.347  11.325  18.814  0.00  0.00    +0.000 C 
ATOM      2  O   UNL     1       9.493  11.928  17.749  0.00  0.00    +0.000 OA
ATOM      3  N   UNL     1       9.527  11.932  20.042  0.00  0.00    +0.000 N 
ATOM      4  C   UNL     1       9.823  13.345  20.179  0.00  0.00    +0.000 C 
ATOM      5  C   UNL     1       9.550  13.679  21.655  0.00  0.00    +0.000 C 
ATOM      6  C   UNL     1       8.309  14.532  21.882  0.00  0.00    +0.000 C 
ATOM      7  N   UNL     1       7.217  13.567  21.860  0.00  0.00    +0.000 NA
ATOM      8  C   UNL     1       5.946  14.123  22.294  0.00  0.00    +0.000 C 
ATOM      9  C   UNL     1       7.680  12.352  22.558  0.00  0.00    +0.000 C 
ATOM     10  C   UNL     1       9.213  12.337  22.332  0.00  0.00    +0.000 C 
ATOM     11  C   UNL     1       9.628  11.278  21.326  0.00  0.00    +0.000 C 
ENDROOT
BRANCH   9  12
ATOM     12  C   UNL     1       7.264  12.236  24.019  0.00  0.00    +0.000 A 
ATOM     13  C   UNL     1       8.034  12.896  24.996  0.00  0.00    +0.000 A 
ATOM     14  C   UNL     1       7.760  12.739  26.354  0.00  0.00    +0.000 A 
ATOM     15  C   UNL     1       6.698  11.935  26.760  0.00  0.00    +0.000 A 
ATOM     16  C   UNL     1       5.909  11.295  25.808  0.00  0.00    +0.000 A 
ATOM     17  C   UNL     1       6.194  11.435  24.448  0.00  0.00    +0.000 A 
ENDBRANCH   9  12
BRANCH   1  18
ATOM     18  C   UNL     1       8.850   9.899  18.879  0.00  0.00    +0.000 C 
BRANCH  18  19
ATOM     19  C   UNL     1       8.129   9.440  17.620  0.00  0.00    +0.000 C 
BRANCH  19  24
ATOM     20  C   UNL     1       6.012   5.356  16.132  0.00  0.00    +0.000 C 
ATOM     21  C   UNL     1       6.847   6.140  17.063  0.00  0.00    +0.000 A 
ATOM     22  C   UNL     1       7.548   5.821  18.206  0.00  0.00    +0.000 A 
ATOM     23  C   UNL     1       8.153   7.019  18.651  0.00  0.00    +0.000 A 
ATOM     24  C   UNL     1       7.783   7.998  17.754  0.00  0.00    +0.000 A 
ATOM     25  O   UNL     1       6.992   7.465  16.780  0.00  0.00    +0.000 OA
ENDBRANCH  19  24
ENDBRANCH  18  19
ENDBRANCH   1  18
TORSDOF 4
ENDMDL
MODEL 5
REMARK VINA RESULT:      -7.1      4.286      7.073
REMARK  Name = 
REMARK  6 active torsions:
REMARK  status: ('A' for Active; 'I' for Inactive)
REMARK    1  A    between atoms: C_1  and  C_2
REMARK    2  A    between atoms: C_5  and  C_6
REMARK    3  A    between atoms: C_6  and  C_7
REMARK    4  A    between atoms: C_7  and  C_8
REMARK    5  A    between atoms: N_14  and  C_15
REMARK    6  A    between atoms: C_16  and  C_17
REMARK                            x       y       z     vdW  Elec       q    Type
REMARK                         _______ _______ _______ _____ _____    ______ ____
ROOT
ATOM      1  C   UNL     1       7.194   5.558  18.071  0.00  0.00    +0.000 C 
ATOM      2  O   UNL     1       7.734   4.453  18.141  0.00  0.00    +0.000 OA
ATOM      3  N   UNL     1       5.884   5.719  17.660  0.00  0.00    +0.000 N 
ATOM      4  C   UNL     1       5.017   4.597  17.353  0.00  0.00    +0.000 C 
ATOM      5  C   UNL     1       3.592   5.174  17.335  0.00  0.00    +0.000 C 
ATOM      6  C   UNL     1       2.730   4.744  18.514  0.00  0.00    +0.000 C 
ATOM      7  N   UNL     1       3.125   5.653  19.582  0.00  0.00    +0.000 NA
ATOM      8  C   UNL     1       2.259   5.585  20.747  0.00  0.00    +0.000 C 
ATOM      9  C   UNL     1       3.322   6.987  18.982  0.00  0.00    +0.000 C 
ATOM     10  C   UNL     1       3.754   6.695  17.523  0.00  0.00    +0.000 C 
ATOM     11  C   UNL     1       5.234   6.958  17.304  0.00  0.00    +0.000 C 
ENDROOT
BRANCH   9  12
ATOM     12  C   UNL     1       2.143   7.943  19.103  0.00  0.00    +0.000 A 
ATOM     13  C   UNL     1       1.654   8.567  17.939  0.00  0.00    +0.000 A 
ATOM     14  C   UNL     1       0.646   9.527  18.006  0.00  0.00    +0.000 A 
ATOM     15  C   UNL     1       0.092   9.867  19.237  0.00  0.00    +0.000 A 
ATOM     16  C   UNL     1       0.543   9.243  20.397  0.00  0.00    +0.000 A 
ATOM     17  C   UNL     1       1.567   8.295  20.334  0.00  0.00    +0.000 A 
ENDBRANCH   9  12
BRANCH   1  18
ATOM     18  C   UNL     1       7.872   6.826  18.535  0.00  0.00    +0.000 C 
BRANCH  18  19
ATOM     19  C   UNL     1       7.833   7.955  17.515  0.00  0.00    +0.000 C 
BRANCH  19  24
ATOM     20  C   UNL     1       8.682  12.712  17.677  0.00  0.00    +0.000 C 
ATOM     21  C   UNL     1       8.793  11.338  18.204  0.00  0.00    +0.000 A 
ATOM     22  C   UNL     1       9.379  10.800  19.330  0.00  0.00    +0.000 A 
ATOM     23  C   UNL     1       9.147   9.406  19.274  0.00  0.00    +0.000 A 
ATOM     24  C   UNL     1       8.434   9.177  18.117  0.00  0.00    +0.000 A 
ATOM     25  O   UNL     1       8.211  10.353  17.464  0.00  0.00    +0.000 OA
ENDBRANCH  19  24
ENDBRANCH  18  19
ENDBRANCH   1  18
TORSDOF 4
ENDMDL
MODEL 6
REMARK VINA RESULT:      -7.1      0.996      1.229
REMARK  Name = 
REMARK  6 active torsions:
REMARK  status: ('A' for Active; 'I' for Inactive)
REMARK    1  A    between atoms: C_1  and  C_2
REMARK    2  A    between atoms: C_5  and  C_6
REMARK    3  A    between atoms: C_6  and  C_7
REMARK    4  A    between atoms: C_7  and  C_8
REMARK    5  A    between atoms: N_14  and  C_15
REMARK    6  A    between atoms: C_16  and  C_17
REMARK                            x       y       z     vdW  Elec       q    Type
REMARK                         _______ _______ _______ _____ _____    ______ ____
ROOT
ATOM      1  C   UNL     1       6.846   5.003  15.211  0.00  0.00    +0.000 C 
ATOM      2  O   UNL     1       7.747   5.825  15.036  0.00  0.00    +0.000 OA
ATOM      3  N   UNL     1       6.473   4.568  16.469  0.00  0.00    +0.000 N 
ATOM      4  C   UNL     1       7.056   5.099  17.685  0.00  0.00    +0.000 C 
ATOM      5  C   UNL     1       6.113   4.660  18.817  0.00  0.00    +0.000 C 
ATOM      6  C   UNL     1       5.299   5.794  19.426  0.00  0.00    +0.000 C 
ATOM      7  N   UNL     1       4.182   5.952  18.505  0.00  0.00    +0.000 NA
ATOM      8  C   UNL     1       3.137   6.827  19.009  0.00  0.00    +0.000 C 
ATOM      9  C   UNL     1       3.763   4.604  18.074  0.00  0.00    +0.000 C 
ATOM     10  C   UNL     1       5.057   3.754  18.154  0.00  0.00    +0.000 C 
ATOM     11  C   UNL     1       5.620   3.444  16.778  0.00  0.00    +0.000 C 
ENDROOT
BRANCH   9  12
ATOM     12  C   UNL     1       2.581   4.010  18.829  0.00  0.00    +0.000 A 
ATOM     13  C   UNL     1       2.678   3.855  20.225  0.00  0.00    +0.000 A 
ATOM     14  C   UNL     1       1.668   3.224  20.951  0.00  0.00    +0.000 A 
ATOM     15  C   UNL     1       0.533   2.755  20.296  0.00  0.00    +0.000 A 
ATOM     16  C   UNL     1       0.406   2.922  18.919  0.00  0.00    +0.000 A 
ATOM     17  C   UNL     1       1.425   3.536  18.189  0.00  0.00    +0.000 A 
ENDBRANCH   9  12
BRANCH   1  18
ATOM     18  C   UNL     1       5.990   4.482  14.080  0.00  0.00    +0.000 C 
BRANCH  18  19
ATOM     19  C   UNL     1       6.776   3.762  12.994  0.00  0.00    +0.000 C 
BRANCH  19  24
ATOM     20  C   UNL     1       2.899   3.653  10.107  0.00  0.00    +0.000 C 
ATOM     21  C   UNL     1       4.083   3.043  10.741  0.00  0.00    +0.000 A 
ATOM     22  C   UNL     1       4.665   1.796  10.658  0.00  0.00    +0.000 A 
ATOM     23  C   UNL     1       5.789   1.821  11.517  0.00  0.00    +0.000 A 
ATOM     24  C   UNL     1       5.825   3.082  12.073  0.00  0.00    +0.000 A 
ATOM     25  O   UNL     1       4.790   3.832  11.598  0.00  0.00    +0.000 OA
ENDBRANCH  19  24
ENDBRANCH  18  19
ENDBRANCH   1  18
TORSDOF 4
ENDMDL
MODEL 7
REMARK VINA RESULT:      -7.1      1.390      2.156
REMARK  Name = 
REMARK  6 active torsions:
REMARK  status: ('A' for Active; 'I' for Inactive)
REMARK    1  A    between atoms: C_1  and  C_2
REMARK    2  A    between atoms: C_5  and  C_6
REMARK    3  A    between atoms: C_6  and  C_7
REMARK    4  A    between atoms: C_7  and  C_8
REMARK    5  A    between atoms: N_14  and  C_15
REMARK    6  A    between atoms: C_16  and  C_17
REMARK                            x       y       z     vdW  Elec       q    Type
REMARK                         _______ _______ _______ _____ _____    ______ ____
ROOT
ATOM      1  C   UNL     1       7.033   4.984  15.563  0.00  0.00    +0.000 C 
ATOM      2  O   UNL     1       7.751   5.937  15.253  0.00  0.00    +0.000 OA
ATOM      3  N   UNL     1       6.584   4.784  16.855  0.00  0.00    +0.000 N 
ATOM      4  C   UNL     1       6.854   5.717  17.931  0.00  0.00    +0.000 C 
ATOM      5  C   UNL     1       5.873   5.343  19.054  0.00  0.00    +0.000 C 
ATOM      6  C   UNL     1       4.753   6.352  19.266  0.00  0.00    +0.000 C 
ATOM      7  N   UNL     1       3.775   6.004  18.244  0.00  0.00    +0.000 NA
ATOM      8  C   UNL     1       2.502   6.688  18.406  0.00  0.00    +0.000 C 
ATOM      9  C   UNL     1       3.726   4.531  18.155  0.00  0.00    +0.000 C 
ATOM     10  C   UNL     1       5.148   4.073  18.569  0.00  0.00    +0.000 C 
ATOM     11  C   UNL     1       5.959   3.592  17.379  0.00  0.00    +0.000 C 
ENDROOT
BRANCH   9  12
ATOM     12  C   UNL     1       2.603   3.862  18.937  0.00  0.00    +0.000 A 
ATOM     13  C   UNL     1       1.595   3.182  18.227  0.00  0.00    +0.000 A 
ATOM     14  C   UNL     1       0.492   2.641  18.884  0.00  0.00    +0.000 A 
ATOM     15  C   UNL     1       0.386   2.752  20.268  0.00  0.00    +0.000 A 
ATOM     16  C   UNL     1       1.385   3.397  20.992  0.00  0.00    +0.000 A 
ATOM     17  C   UNL     1       2.481   3.956  20.332  0.00  0.00    +0.000 A 
ENDBRANCH   9  12
BRANCH   1  18
ATOM     18  C   UNL     1       6.486   4.012  14.543  0.00  0.00    +0.000 C 
BRANCH  18  19
ATOM     19  C   UNL     1       5.551   4.649  13.526  0.00  0.00    +0.000 C 
BRANCH  19  24
ATOM     20  C   UNL     1       6.388   0.595  11.028  0.00  0.00    +0.000 C 
ATOM     21  C   UNL     1       5.601   1.801  11.351  0.00  0.00    +0.000 A 
ATOM     22  C   UNL     1       4.420   2.320  10.866  0.00  0.00    +0.000 A 
ATOM     23  C   UNL     1       4.184   3.516  11.584  0.00  0.00    +0.000 A 
ATOM     24  C   UNL     1       5.236   3.655  12.464  0.00  0.00    +0.000 A 
ATOM     25  O   UNL     1       6.100   2.609  12.329  0.00  0.00    +0.000 OA
ENDBRANCH  19  24
ENDBRANCH  18  19
ENDBRANCH   1  18
TORSDOF 4
ENDMDL
MODEL 8
REMARK VINA RESULT:      -7.1      1.772      2.520
REMARK  Name = 
REMARK  6 active torsions:
REMARK  status: ('A' for Active; 'I' for Inactive)
REMARK    1  A    between atoms: C_1  and  C_2
REMARK    2  A    between atoms: C_5  and  C_6
REMARK    3  A    between atoms: C_6  and  C_7
REMARK    4  A    between atoms: C_7  and  C_8
REMARK    5  A    between atoms: N_14  and  C_15
REMARK    6  A    between atoms: C_16  and  C_17
REMARK                            x       y       z     vdW  Elec       q    Type
REMARK                         _______ _______ _______ _____ _____    ______ ____
ROOT
ATOM      1  C   UNL     1       6.112   4.753  14.759  0.00  0.00    +0.000 C 
ATOM      2  O   UNL     1       6.773   5.664  14.257  0.00  0.00    +0.000 OA
ATOM      3  N   UNL     1       6.051   4.545  16.124  0.00  0.00    +0.000 N 
ATOM      4  C   UNL     1       6.693   5.427  17.079  0.00  0.00    +0.000 C 
ATOM      5  C   UNL     1       6.064   5.086  18.440  0.00  0.00    +0.000 C 
ATOM      6  C   UNL     1       5.132   6.162  18.982  0.00  0.00    +0.000 C 
ATOM      7  N   UNL     1       3.873   5.909  18.294  0.00  0.00    +0.000 NA
ATOM      8  C   UNL     1       2.757   6.671  18.831  0.00  0.00    +0.000 C 
ATOM      9  C   UNL     1       3.694   4.446  18.211  0.00  0.00    +0.000 C 
ATOM     10  C   UNL     1       5.138   3.882  18.181  0.00  0.00    +0.000 C 
ATOM     11  C   UNL     1       5.524   3.383  16.801  0.00  0.00    +0.000 C 
ENDROOT
BRANCH   9  12
ATOM     12  C   UNL     1       2.807   3.830  19.286  0.00  0.00    +0.000 A 
ATOM     13  C   UNL     1       1.440   3.637  19.007  0.00  0.00    +0.000 A 
ATOM     14  C   UNL     1       0.564   3.174  19.987  0.00  0.00    +0.000 A 
ATOM     15  C   UNL     1       1.043   2.876  21.260  0.00  0.00    +0.000 A 
ATOM     16  C   UNL     1       2.396   3.035  21.548  0.00  0.00    +0.000 A 
ATOM     17  C   UNL     1       3.270   3.517  20.573  0.00  0.00    +0.000 A 
ENDBRANCH   9  12
BRANCH   1  18
ATOM     18  C   UNL     1       5.219   3.850  13.939  0.00  0.00    +0.000 C 
BRANCH  18  19
ATOM     19  C   UNL     1       5.359   4.044  12.437  0.00  0.00    +0.000 C 
BRANCH  19  24
ATOM     20  C   UNL     1       5.947  -0.570  11.117  0.00  0.00    +0.000 C 
ATOM     21  C   UNL     1       6.400   0.829  11.246  0.00  0.00    +0.000 A 
ATOM     22  C   UNL     1       7.553   1.488  10.878  0.00  0.00    +0.000 A 
ATOM     23  C   UNL     1       7.389   2.834  11.280  0.00  0.00    +0.000 A 
ATOM     24  C   UNL     1       6.146   2.915  11.871  0.00  0.00    +0.000 A 
ATOM     25  O   UNL     1       5.537   1.695  11.847  0.00  0.00    +0.000 OA
ENDBRANCH  19  24
ENDBRANCH  18  19
ENDBRANCH   1  18
TORSDOF 4
ENDMDL
MODEL 9
REMARK VINA RESULT:      -6.7      7.761     10.178
REMARK  Name = 
REMARK  6 active torsions:
REMARK  status: ('A' for Active; 'I' for Inactive)
REMARK    1  A    between atoms: C_1  and  C_2
REMARK    2  A    between atoms: C_5  and  C_6
REMARK    3  A    between atoms: C_6  and  C_7
REMARK    4  A    between atoms: C_7  and  C_8
REMARK    5  A    between atoms: N_14  and  C_15
REMARK    6  A    between atoms: C_16  and  C_17
REMARK                            x       y       z     vdW  Elec       q    Type
REMARK                         _______ _______ _______ _____ _____    ______ ____
ROOT
ATOM      1  C   UNL     1       9.918  11.034  18.676  0.00  0.00    +0.000 C 
ATOM      2  O   UNL     1      10.432  11.250  17.576  0.00  0.00    +0.000 OA
ATOM      3  N   UNL     1      10.108  11.869  19.760  0.00  0.00    +0.000 N 
ATOM      4  C   UNL     1      10.859  13.106  19.673  0.00  0.00    +0.000 C 
ATOM      5  C   UNL     1      10.497  13.897  20.941  0.00  0.00    +0.000 C 
ATOM      6  C   UNL     1       9.618  15.114  20.686  0.00  0.00    +0.000 C 
ATOM      7  N   UNL     1       8.273  14.560  20.601  0.00  0.00    +0.000 NA
ATOM      8  C   UNL     1       7.230  15.572  20.596  0.00  0.00    +0.000 C 
ATOM      9  C   UNL     1       8.161  13.501  21.623  0.00  0.00    +0.000 C 
ATOM     10  C   UNL     1       9.605  12.958  21.777  0.00  0.00    +0.000 C 
ATOM     11  C   UNL     1       9.770  11.591  21.137  0.00  0.00    +0.000 C 
ENDROOT
BRANCH   9  12
ATOM     12  C   UNL     1       7.509  13.919  22.934  0.00  0.00    +0.000 A 
ATOM     13  C   UNL     1       6.148  13.624  23.138  0.00  0.00    +0.000 A 
ATOM     14  C   UNL     1       5.476  14.074  24.274  0.00  0.00    +0.000 A 
ATOM     15  C   UNL     1       6.160  14.810  25.238  0.00  0.00    +0.000 A 
ATOM     16  C   UNL     1       7.514  15.089  25.068  0.00  0.00    +0.000 A 
ATOM     17  C   UNL     1       8.182  14.656  23.921  0.00  0.00    +0.000 A 
ENDBRANCH   9  12
BRANCH   1  18
ATOM     18  C   UNL     1       8.945   9.901  18.910  0.00  0.00    +0.000 C 
BRANCH  18  19
ATOM     19  C   UNL     1       8.155   9.503  17.672  0.00  0.00    +0.000 C 
BRANCH  19  24
ATOM     20  C   UNL     1       5.905   5.510  16.132  0.00  0.00    +0.000 C 
ATOM     21  C   UNL     1       6.789   6.248  17.055  0.00  0.00    +0.000 A 
ATOM     22  C   UNL     1       7.525   5.877  18.160  0.00  0.00    +0.000 A 
ATOM     23  C   UNL     1       8.169   7.049  18.622  0.00  0.00    +0.000 A 
ATOM     24  C   UNL     1       7.786   8.064  17.772  0.00  0.00    +0.000 A 
ATOM     25  O   UNL     1       6.949   7.578  16.811  0.00  0.00    +0.000 OA
ENDBRANCH  19  24
ENDBRANCH  18  19
ENDBRANCH   1  18
TORSDOF 4
ENDMDL
