MODEL 1
REMARK VINA RESULT:      -7.1      0.000      0.000
REMARK  Name = 
REMARK  4 active torsions:
REMARK  status: ('A' for Active; 'I' for Inactive)
REMARK    1  A    between atoms: N_1  and  S_2
REMARK    2  A    between atoms: S_2  and  C_5
REMARK    3  A    between atoms: C_8  and  C_9
REMARK    4  A    between atoms: C_9  and  N_10
REMARK                            x       y       z     vdW  Elec       q    Type
REMARK                         _______ _______ _______ _____ _____    ______ ____
ROOT
ATOM      1  C   UNL     1       0.897  10.777  19.540  0.00  0.00    +0.000 C 
ENDROOT
BRANCH   1   2
ATOM      2  N   UNL     1      -0.324  11.069  20.273  0.00  0.00    +0.000 NA
ATOM      3  S   UNL     1      -1.527  11.789  19.341  0.00  0.00    +0.000 S 
ATOM      4  O   UNL     1      -0.989  12.946  18.663  0.00  0.00    +0.000 OA
ATOM      5  O   UNL     1      -2.234  10.747  18.639  0.00  0.00    +0.000 OA
ATOM      6  C   UNL     1      -2.545  12.362  20.637  0.00  0.00    +0.000 A 
ATOM      7  C   UNL     1      -3.853  12.788  20.486  0.00  0.00    +0.000 A 
ATOM      8  C   UNL     1      -4.571  13.102  21.642  0.00  0.00    +0.000 A 
ATOM      9  C   UNL     1      -3.985  12.941  22.911  0.00  0.00    +0.000 A 
ATOM     10  C   UNL     1      -2.658  12.514  23.041  0.00  0.00    +0.000 A 
ATOM     11  C   UNL     1      -1.945  12.269  21.881  0.00  0.00    +0.000 A 
ATOM     12  S   UNL     1      -0.264  11.762  21.789  0.00  0.00    +0.000 S 
ATOM     13  O   UNL     1       0.537  12.962  21.743  0.00  0.00    +0.000 OA
ATOM     14  O   UNL     1      -0.069  10.730  22.782  0.00  0.00    +0.000 OA
ENDBRANCH   1   2
BRANCH   1  18
ATOM     15  C   UNL     1       2.490   6.790  19.319  0.00  0.00    +0.000 A 
ATOM     16  C   UNL     1       2.501   7.592  18.174  0.00  0.00    +0.000 A 
ATOM     17  C   UNL     1       1.912   8.861  18.219  0.00  0.00    +0.000 A 
ATOM     18  C   UNL     1       1.328   9.333  19.406  0.00  0.00    +0.000 A 
ATOM     19  C   UNL     1       1.254   8.478  20.518  0.00  0.00    +0.000 A 
ATOM     20  C   UNL     1       1.836   7.210  20.477  0.00  0.00    +0.000 A 
BRANCH  15  21
ATOM     21  S   UNL     1       3.405   5.275  19.343  0.00  0.00    +0.000 S 
ATOM     22  O   UNL     1       2.796   4.369  20.287  0.00  0.00    +0.000 OA
ATOM     23  O   UNL     1       4.820   5.565  19.338  0.00  0.00    +0.000 OA
BRANCH  21  24
ATOM     24  N   UNL     1       3.087   4.655  17.811  0.00  0.00    +0.000 NA
ATOM     25  H   UNL     1       3.821   3.995  17.555  0.00  0.00    +0.000 HD
ATOM     26  H   UNL     1       2.969   5.417  17.142  0.00  0.00    +0.000 HD
ENDBRANCH  21  24
ENDBRANCH  15  21
ENDBRANCH   1  18
TORSDOF 4
ENDMDL
MODEL 2
REMARK VINA RESULT:      -7.0      1.417      1.891
REMARK  Name = 
REMARK  4 active torsions:
REMARK  status: ('A' for Active; 'I' for Inactive)
REMARK    1  A    between atoms: N_1  and  S_2
REMARK    2  A    between atoms: S_2  and  C_5
REMARK    3  A    between atoms: C_8  and  C_9
REMARK    4  A    between atoms: C_9  and  N_10
REMARK                            x       y       z     vdW  Elec       q    Type
REMARK                         _______ _______ _______ _____ _____    ______ ____
ROOT
ATOM      1  C   UNL     1       1.466   9.735  19.200  0.00  0.00    +0.000 C 
ENDROOT
BRANCH   1   2
ATOM      2  N   UNL     1       0.360  10.238  19.998  0.00  0.00    +0.000 NA
ATOM      3  S   UNL     1      -0.810  11.059  19.109  0.00  0.00    +0.000 S 
ATOM      4  O   UNL     1      -0.182  12.086  18.311  0.00  0.00    +0.000 OA
ATOM      5  O   UNL     1      -1.705  10.083  18.538  0.00  0.00    +0.000 OA
ATOM      6  C   UNL     1      -1.631  11.844  20.432  0.00  0.00    +0.000 A 
ATOM      7  C   UNL     1      -2.880  12.437  20.349  0.00  0.00    +0.000 A 
ATOM      8  C   UNL     1      -3.451  12.917  21.529  0.00  0.00    +0.000 A 
ATOM      9  C   UNL     1      -2.787  12.754  22.760  0.00  0.00    +0.000 A 
ATOM     10  C   UNL     1      -1.523  12.157  22.821  0.00  0.00    +0.000 A 
ATOM     11  C   UNL     1      -0.948  11.745  21.632  0.00  0.00    +0.000 A 
ATOM     12  S   UNL     1       0.637  11.006  21.452  0.00  0.00    +0.000 S 
ATOM     13  O   UNL     1       1.584  12.079  21.261  0.00  0.00    +0.000 OA
ATOM     14  O   UNL     1       0.775  10.021  22.499  0.00  0.00    +0.000 OA
ENDBRANCH   1   2
BRANCH   1  18
ATOM     15  C   UNL     1       2.132   5.492  19.388  0.00  0.00    +0.000 A 
ATOM     16  C   UNL     1       1.745   6.172  20.546  0.00  0.00    +0.000 A 
ATOM     17  C   UNL     1       1.604   7.564  20.510  0.00  0.00    +0.000 A 
ATOM     18  C   UNL     1       1.834   8.273  19.318  0.00  0.00    +0.000 A 
ATOM     19  C   UNL     1       2.304   7.579  18.191  0.00  0.00    +0.000 A 
ATOM     20  C   UNL     1       2.450   6.192  18.223  0.00  0.00    +0.000 A 
BRANCH  15  21
ATOM     21  S   UNL     1       2.116   3.723  19.358  0.00  0.00    +0.000 S 
ATOM     22  O   UNL     1       3.234   3.226  20.125  0.00  0.00    +0.000 OA
ATOM     23  O   UNL     1       1.820   3.265  18.020  0.00  0.00    +0.000 OA
BRANCH  21  24
ATOM     24  N   UNL     1       0.732   3.374  20.250  0.00  0.00    +0.000 NA
ATOM     25  H   UNL     1       0.991   2.842  21.080  0.00  0.00    +0.000 HD
ATOM     26  H   UNL     1       0.045   2.905  19.660  0.00  0.00    +0.000 HD
ENDBRANCH  21  24
ENDBRANCH  15  21
ENDBRANCH   1  18
TORSDOF 4
ENDMDL
MODEL 3
REMARK VINA RESULT:      -7.0      7.467      9.940
REMARK  Name = 
REMARK  4 active torsions:
REMARK  status: ('A' for Active; 'I' for Inactive)
REMARK    1  A    between atoms: N_1  and  S_2
REMARK    2  A    between atoms: S_2  and  C_5
REMARK    3  A    between atoms: C_8  and  C_9
REMARK    4  A    between atoms: C_9  and  N_10
REMARK                            x       y       z     vdW  Elec       q    Type
REMARK                         _______ _______ _______ _____ _____    ______ ____
ROOT
ATOM      1  C   UNL     1       7.850   7.391  17.481  0.00  0.00    +0.000 C 
ENDROOT
BRANCH   1   2
ATOM      2  N   UNL     1       6.641   6.722  17.936  0.00  0.00    +0.000 NA
ATOM      3  S   UNL     1       6.918   5.235  18.675  0.00  0.00    +0.000 S 
ATOM      4  O   UNL     1       7.728   4.406  17.812  0.00  0.00    +0.000 OA
ATOM      5  O   UNL     1       7.266   5.478  20.053  0.00  0.00    +0.000 OA
ATOM      6  C   UNL     1       5.288   4.618  18.624  0.00  0.00    +0.000 A 
ATOM      7  C   UNL     1       4.828   3.536  19.356  0.00  0.00    +0.000 A 
ATOM      8  C   UNL     1       3.464   3.243  19.294  0.00  0.00    +0.000 A 
ATOM      9  C   UNL     1       2.593   4.057  18.545  0.00  0.00    +0.000 A 
ATOM     10  C   UNL     1       3.081   5.141  17.807  0.00  0.00    +0.000 A 
ATOM     11  C   UNL     1       4.444   5.377  17.832  0.00  0.00    +0.000 A 
ATOM     12  S   UNL     1       5.289   6.649  16.963  0.00  0.00    +0.000 S 
ATOM     13  O   UNL     1       5.648   6.112  15.671  0.00  0.00    +0.000 OA
ATOM     14  O   UNL     1       4.520   7.862  17.117  0.00  0.00    +0.000 OA
ENDBRANCH   1   2
BRANCH   1  18
ATOM     15  C   UNL     1       9.008  11.347  18.702  0.00  0.00    +0.000 A 
ATOM     16  C   UNL     1       9.408  10.252  19.473  0.00  0.00    +0.000 A 
ATOM     17  C   UNL     1       8.968   8.970  19.126  0.00  0.00    +0.000 A 
ATOM     18  C   UNL     1       8.144   8.779  18.004  0.00  0.00    +0.000 A 
ATOM     19  C   UNL     1       7.687   9.902  17.294  0.00  0.00    +0.000 A 
ATOM     20  C   UNL     1       8.119  11.183  17.639  0.00  0.00    +0.000 A 
BRANCH  15  21
ATOM     21  S   UNL     1       9.716  12.941  19.001  0.00  0.00    +0.000 S 
ATOM     22  O   UNL     1      11.103  12.782  19.369  0.00  0.00    +0.000 OA
ATOM     23  O   UNL     1       8.791  13.745  19.765  0.00  0.00    +0.000 OA
BRANCH  21  24
ATOM     24  N   UNL     1       9.706  13.618  17.460  0.00  0.00    +0.000 NA
ATOM     25  H   UNL     1      10.601  14.076  17.287  0.00  0.00    +0.000 HD
ATOM     26  H   UNL     1       8.902  14.238  17.356  0.00  0.00    +0.000 HD
ENDBRANCH  21  24
ENDBRANCH  15  21
ENDBRANCH   1  18
TORSDOF 4
ENDMDL
MODEL 4
REMARK VINA RESULT:      -6.9      3.066      4.300
REMARK  Name = 
REMARK  4 active torsions:
REMARK  status: ('A' for Active; 'I' for Inactive)
REMARK    1  A    between atoms: N_1  and  S_2
REMARK    2  A    between atoms: S_2  and  C_5
REMARK    3  A    between atoms: C_8  and  C_9
REMARK    4  A    between atoms: C_9  and  N_10
REMARK                            x       y       z     vdW  Elec       q    Type
REMARK                         _______ _______ _______ _____ _____    ______ ____
ROOT
ATOM      1  C   UNL     1       1.755   7.395  19.193  0.00  0.00    +0.000 C 
ENDROOT
BRANCH   1   2
ATOM      2  N   UNL     1       1.593   8.790  19.570  0.00  0.00    +0.000 NA
ATOM      3  S   UNL     1       0.777   9.016  21.025  0.00  0.00    +0.000 S 
ATOM      4  O   UNL     1      -0.473   8.294  20.998  0.00  0.00    +0.000 OA
ATOM      5  O   UNL     1       1.727   8.867  22.099  0.00  0.00    +0.000 OA
ATOM      6  C   UNL     1       0.411  10.713  20.850  0.00  0.00    +0.000 A 
ATOM      7  C   UNL     1      -0.004  11.543  21.878  0.00  0.00    +0.000 A 
ATOM      8  C   UNL     1      -0.139  12.904  21.599  0.00  0.00    +0.000 A 
ATOM      9  C   UNL     1       0.184  13.406  20.323  0.00  0.00    +0.000 A 
ATOM     10  C   UNL     1       0.596  12.548  19.297  0.00  0.00    +0.000 A 
ATOM     11  C   UNL     1       0.663  11.195  19.578  0.00  0.00    +0.000 A 
ATOM     12  S   UNL     1       1.117   9.927  18.447  0.00  0.00    +0.000 S 
ATOM     13  O   UNL     1      -0.095   9.488  17.797  0.00  0.00    +0.000 OA
ATOM     14  O   UNL     1       2.271  10.394  17.715  0.00  0.00    +0.000 OA
ENDBRANCH   1   2
BRANCH   1  18
ATOM     15  C   UNL     1       5.465   5.761  17.761  0.00  0.00    +0.000 A 
ATOM     16  C   UNL     1       4.956   5.322  18.987  0.00  0.00    +0.000 A 
ATOM     17  C   UNL     1       3.791   5.907  19.496  0.00  0.00    +0.000 A 
ATOM     18  C   UNL     1       3.129   6.916  18.777  0.00  0.00    +0.000 A 
ATOM     19  C   UNL     1       3.704   7.400  17.590  0.00  0.00    +0.000 A 
ATOM     20  C   UNL     1       4.868   6.822  17.080  0.00  0.00    +0.000 A 
BRANCH  15  21
ATOM     21  S   UNL     1       6.812   4.896  17.006  0.00  0.00    +0.000 S 
ATOM     22  O   UNL     1       7.665   4.356  18.037  0.00  0.00    +0.000 OA
ATOM     23  O   UNL     1       7.320   5.669  15.896  0.00  0.00    +0.000 OA
BRANCH  21  24
ATOM     24  N   UNL     1       6.029   3.586  16.298  0.00  0.00    +0.000 NA
ATOM     25  H   UNL     1       6.451   3.391  15.390  0.00  0.00    +0.000 HD
ATOM     26  H   UNL     1       5.024   3.761  16.253  0.00  0.00    +0.000 HD
ENDBRANCH  21  24
ENDBRANCH  15  21
ENDBRANCH   1  18
TORSDOF 4
ENDMDL
MODEL 5
REMARK VINA RESULT:      -6.8      7.469      9.924
REMARK  Name = 
REMARK  4 active torsions:
REMARK  status: ('A' for Active; 'I' for Inactive)
REMARK    1  A    between atoms: N_1  and  S_2
REMARK    2  A    between atoms: S_2  and  C_5
REMARK    3  A    between atoms: C_8  and  C_9
REMARK    4  A    between atoms: C_9  and  N_10
REMARK                            x       y       z     vdW  Elec       q    Type
REMARK                         _______ _______ _______ _____ _____    ______ ____
ROOT
ATOM      1  C   UNL     1       7.768   7.382  17.391  0.00  0.00    +0.000 C 
ENDROOT
BRANCH   1   2
ATOM      2  N   UNL     1       6.571   6.705  17.864  0.00  0.00    +0.000 NA
ATOM      3  S   UNL     1       6.871   5.227  18.612  0.00  0.00    +0.000 S 
ATOM      4  O   UNL     1       7.680   4.399  17.747  0.00  0.00    +0.000 OA
ATOM      5  O   UNL     1       7.231   5.485  19.984  0.00  0.00    +0.000 OA
ATOM      6  C   UNL     1       5.247   4.593  18.584  0.00  0.00    +0.000 A 
ATOM      7  C   UNL     1       4.805   3.513  19.330  0.00  0.00    +0.000 A 
ATOM      8  C   UNL     1       3.444   3.205  19.285  0.00  0.00    +0.000 A 
ATOM      9  C   UNL     1       2.557   4.004  18.538  0.00  0.00    +0.000 A 
ATOM     10  C   UNL     1       3.025   5.088  17.786  0.00  0.00    +0.000 A 
ATOM     11  C   UNL     1       4.386   5.337  17.795  0.00  0.00    +0.000 A 
ATOM     12  S   UNL     1       5.209   6.611  16.906  0.00  0.00    +0.000 S 
ATOM     13  O   UNL     1       5.560   6.067  15.616  0.00  0.00    +0.000 OA
ATOM     14  O   UNL     1       4.429   7.817  17.059  0.00  0.00    +0.000 OA
ENDBRANCH   1   2
BRANCH   1  18
ATOM     15  C   UNL     1       9.077  11.222  18.815  0.00  0.00    +0.000 A 
ATOM     16  C   UNL     1       9.423  10.075  19.534  0.00  0.00    +0.000 A 
ATOM     17  C   UNL     1       8.934   8.830  19.121  0.00  0.00    +0.000 A 
ATOM     18  C   UNL     1       8.114   8.730  17.984  0.00  0.00    +0.000 A 
ATOM     19  C   UNL     1       7.710   9.904  17.328  0.00  0.00    +0.000 A 
ATOM     20  C   UNL     1       8.192  11.147  17.739  0.00  0.00    +0.000 A 
BRANCH  15  21
ATOM     21  S   UNL     1       9.847  12.768  19.198  0.00  0.00    +0.000 S 
ATOM     22  O   UNL     1       8.835  13.794  19.282  0.00  0.00    +0.000 OA
ATOM     23  O   UNL     1      11.049  12.918  18.409  0.00  0.00    +0.000 OA
BRANCH  21  24
ATOM     24  N   UNL     1      10.392  12.504  20.768  0.00  0.00    +0.000 NA
ATOM     25  H   UNL     1       9.995  11.634  21.121  0.00  0.00    +0.000 HD
ATOM     26  H   UNL     1      10.185  13.316  21.351  0.00  0.00    +0.000 HD
ENDBRANCH  21  24
ENDBRANCH  15  21
ENDBRANCH   1  18
TORSDOF 4
ENDMDL
MODEL 6
REMARK VINA RESULT:      -6.8      3.242      8.402
REMARK  Name = 
REMARK  4 active torsions:
REMARK  status: ('A' for Active; 'I' for Inactive)
REMARK    1  A    between atoms: N_1  and  S_2
REMARK    2  A    between atoms: S_2  and  C_5
REMARK    3  A    between atoms: C_8  and  C_9
REMARK    4  A    between atoms: C_9  and  N_10
REMARK                            x       y       z     vdW  Elec       q    Type
REMARK                         _______ _______ _______ _____ _____    ______ ____
ROOT
ATOM      1  C   UNL     1      -1.083  11.783  22.828  0.00  0.00    +0.000 C 
ENDROOT
BRANCH   1   2
ATOM      2  N   UNL     1      -0.568  10.984  21.728  0.00  0.00    +0.000 NA
ATOM      3  S   UNL     1       0.124   9.526  22.205  0.00  0.00    +0.000 S 
ATOM      4  O   UNL     1       1.111   9.770  23.231  0.00  0.00    +0.000 OA
ATOM      5  O   UNL     1      -0.935   8.561  22.372  0.00  0.00    +0.000 OA
ATOM      6  C   UNL     1       0.975   9.153  20.730  0.00  0.00    +0.000 A 
ATOM      7  C   UNL     1       1.502   7.912  20.412  0.00  0.00    +0.000 A 
ATOM      8  C   UNL     1       2.049   7.746  19.138  0.00  0.00    +0.000 A 
ATOM      9  C   UNL     1       2.017   8.800  18.205  0.00  0.00    +0.000 A 
ATOM     10  C   UNL     1       1.485  10.048  18.549  0.00  0.00    +0.000 A 
ATOM     11  C   UNL     1       1.005  10.210  19.837  0.00  0.00    +0.000 A 
ATOM     12  S   UNL     1       0.327  11.686  20.508  0.00  0.00    +0.000 S 
ATOM     13  O   UNL     1       1.423  12.433  21.080  0.00  0.00    +0.000 OA
ATOM     14  O   UNL     1      -0.564  12.243  19.517  0.00  0.00    +0.000 OA
ENDBRANCH   1   2
BRANCH   1  18
ATOM     15  C   UNL     1      -5.152  13.169  22.895  0.00  0.00    +0.000 A 
ATOM     16  C   UNL     1      -4.578  12.685  24.074  0.00  0.00    +0.000 A 
ATOM     17  C   UNL     1      -3.282  12.159  24.042  0.00  0.00    +0.000 A 
ATOM     18  C   UNL     1      -2.555  12.130  22.839  0.00  0.00    +0.000 A 
ATOM     19  C   UNL     1      -3.183  12.544  21.652  0.00  0.00    +0.000 A 
ATOM     20  C   UNL     1      -4.476  13.066  21.679  0.00  0.00    +0.000 A 
BRANCH  15  21
ATOM     21  S   UNL     1      -6.702  14.022  22.955  0.00  0.00    +0.000 S 
ATOM     22  O   UNL     1      -7.629  13.383  22.051  0.00  0.00    +0.000 OA
ATOM     23  O   UNL     1      -6.469  15.447  22.960  0.00  0.00    +0.000 OA
BRANCH  21  24
ATOM     24  N   UNL     1      -7.232  13.666  24.512  0.00  0.00    +0.000 NA
ATOM     25  H   UNL     1      -6.654  14.166  25.188  0.00  0.00    +0.000 HD
ATOM     26  H   UNL     1      -7.248  12.656  24.655  0.00  0.00    +0.000 HD
ENDBRANCH  21  24
ENDBRANCH  15  21
ENDBRANCH   1  18
TORSDOF 4
ENDMDL
MODEL 7
REMARK VINA RESULT:      -6.8      2.940      8.463
REMARK  Name = 
REMARK  4 active torsions:
REMARK  status: ('A' for Active; 'I' for Inactive)
REMARK    1  A    between atoms: N_1  and  S_2
REMARK    2  A    between atoms: S_2  and  C_5
REMARK    3  A    between atoms: C_8  and  C_9
REMARK    4  A    between atoms: C_9  and  N_10
REMARK                            x       y       z     vdW  Elec       q    Type
REMARK                         _______ _______ _______ _____ _____    ______ ____
ROOT
ATOM      1  C   UNL     1       2.218   7.384  20.435  0.00  0.00    +0.000 C 
ENDROOT
BRANCH   1   2
ATOM      2  N   UNL     1       2.345   6.169  19.647  0.00  0.00    +0.000 NA
ATOM      3  S   UNL     1       1.809   4.782  20.436  0.00  0.00    +0.000 S 
ATOM      4  O   UNL     1       2.445   4.681  21.729  0.00  0.00    +0.000 OA
ATOM      5  O   UNL     1       0.378   4.701  20.276  0.00  0.00    +0.000 OA
ATOM      6  C   UNL     1       2.544   3.595  19.391  0.00  0.00    +0.000 A 
ATOM      7  C   UNL     1       2.214   2.250  19.365  0.00  0.00    +0.000 A 
ATOM      8  C   UNL     1       2.810   1.454  18.385  0.00  0.00    +0.000 A 
ATOM      9  C   UNL     1       3.679   2.023  17.435  0.00  0.00    +0.000 A 
ATOM     10  C   UNL     1       4.004   3.384  17.483  0.00  0.00    +0.000 A 
ATOM     11  C   UNL     1       3.451   4.142  18.500  0.00  0.00    +0.000 A 
ATOM     12  S   UNL     1       3.738   5.853  18.786  0.00  0.00    +0.000 S 
ATOM     13  O   UNL     1       4.882   5.949  19.662  0.00  0.00    +0.000 OA
ATOM     14  O   UNL     1       3.675   6.521  17.507  0.00  0.00    +0.000 OA
ENDBRANCH   1   2
BRANCH   1  18
ATOM     15  C   UNL     1      -0.445  10.328  18.784  0.00  0.00    +0.000 A 
ATOM     16  C   UNL     1       0.554   9.782  17.973  0.00  0.00    +0.000 A 
ATOM     17  C   UNL     1       1.473   8.883  18.525  0.00  0.00    +0.000 A 
ATOM     18  C   UNL     1       1.386   8.519  19.880  0.00  0.00    +0.000 A 
ATOM     19  C   UNL     1       0.427   9.144  20.695  0.00  0.00    +0.000 A 
ATOM     20  C   UNL     1      -0.489  10.043  20.149  0.00  0.00    +0.000 A 
BRANCH  15  21
ATOM     21  S   UNL     1      -1.735  11.300  18.060  0.00  0.00    +0.000 S 
ATOM     22  O   UNL     1      -2.675  11.680  19.087  0.00  0.00    +0.000 OA
ATOM     23  O   UNL     1      -2.142  10.707  16.807  0.00  0.00    +0.000 OA
BRANCH  21  24
ATOM     24  N   UNL     1      -0.909  12.701  17.626  0.00  0.00    +0.000 NA
ATOM     25  H   UNL     1      -0.029  12.747  18.139  0.00  0.00    +0.000 HD
ATOM     26  H   UNL     1      -1.507  13.517  17.764  0.00  0.00    +0.000 HD
ENDBRANCH  21  24
ENDBRANCH  15  21
ENDBRANCH   1  18
TORSDOF 4
ENDMDL
MODEL 8
REMARK VINA RESULT:      -6.8      1.413      2.071
REMARK  Name = 
REMARK  4 active torsions:
REMARK  status: ('A' for Active; 'I' for Inactive)
REMARK    1  A    between atoms: N_1  and  S_2
REMARK    2  A    between atoms: S_2  and  C_5
REMARK    3  A    between atoms: C_8  and  C_9
REMARK    4  A    between atoms: C_9  and  N_10
REMARK                            x       y       z     vdW  Elec       q    Type
REMARK                         _______ _______ _______ _____ _____    ______ ____
ROOT
ATOM      1  C   UNL     1       0.358  10.844  18.324  0.00  0.00    +0.000 C 
ENDROOT
BRANCH   1   2
ATOM      2  N   UNL     1      -0.893  11.106  19.017  0.00  0.00    +0.000 NA
ATOM      3  S   UNL     1      -2.254  11.018  18.032  0.00  0.00    +0.000 S 
ATOM      4  O   UNL     1      -2.070  11.859  16.871  0.00  0.00    +0.000 OA
ATOM      5  O   UNL     1      -2.640   9.633  17.923  0.00  0.00    +0.000 OA
ATOM      6  C   UNL     1      -3.387  11.819  19.090  0.00  0.00    +0.000 A 
ATOM      7  C   UNL     1      -4.763  11.791  18.943  0.00  0.00    +0.000 A 
ATOM      8  C   UNL     1      -5.535  12.383  19.944  0.00  0.00    +0.000 A 
ATOM      9  C   UNL     1      -4.921  12.945  21.080  0.00  0.00    +0.000 A 
ATOM     10  C   UNL     1      -3.528  12.968  21.205  0.00  0.00    +0.000 A 
ATOM     11  C   UNL     1      -2.779  12.432  20.172  0.00  0.00    +0.000 A 
ATOM     12  S   UNL     1      -1.024  12.380  20.087  0.00  0.00    +0.000 S 
ATOM     13  O   UNL     1      -0.596  13.599  19.443  0.00  0.00    +0.000 OA
ATOM     14  O   UNL     1      -0.541  11.970  21.385  0.00  0.00    +0.000 OA
ENDBRANCH   1   2
BRANCH   1  18
ATOM     15  C   UNL     1       2.328   7.157  19.327  0.00  0.00    +0.000 A 
ATOM     16  C   UNL     1       1.647   7.858  20.325  0.00  0.00    +0.000 A 
ATOM     17  C   UNL     1       1.071   9.097  20.024  0.00  0.00    +0.000 A 
ATOM     18  C   UNL     1       1.163   9.628  18.726  0.00  0.00    +0.000 A 
ATOM     19  C   UNL     1       1.924   8.946  17.762  0.00  0.00    +0.000 A 
ATOM     20  C   UNL     1       2.502   7.712  18.059  0.00  0.00    +0.000 A 
BRANCH  15  21
ATOM     21  S   UNL     1       2.881   5.503  19.632  0.00  0.00    +0.000 S 
ATOM     22  O   UNL     1       4.323   5.490  19.691  0.00  0.00    +0.000 OA
ATOM     23  O   UNL     1       2.123   4.582  18.817  0.00  0.00    +0.000 OA
BRANCH  21  24
ATOM     24  N   UNL     1       2.336   5.240  21.202  0.00  0.00    +0.000 NA
ATOM     25  H   UNL     1       3.115   5.346  21.852  0.00  0.00    +0.000 HD
ATOM     26  H   UNL     1       1.871   4.334  21.263  0.00  0.00    +0.000 HD
ENDBRANCH  21  24
ENDBRANCH  15  21
ENDBRANCH   1  18
TORSDOF 4
ENDMDL
MODEL 9
REMARK VINA RESULT:      -6.8      3.141      4.238
REMARK  Name = 
REMARK  4 active torsions:
REMARK  status: ('A' for Active; 'I' for Inactive)
REMARK    1  A    between atoms: N_1  and  S_2
REMARK    2  A    between atoms: S_2  and  C_5
REMARK    3  A    between atoms: C_8  and  C_9
REMARK    4  A    between atoms: C_9  and  N_10
REMARK                            x       y       z     vdW  Elec       q    Type
REMARK                         _______ _______ _______ _____ _____    ______ ____
ROOT
ATOM      1  C   UNL     1       1.619   7.438  19.555  0.00  0.00    +0.000 C 
ENDROOT
BRANCH   1   2
ATOM      2  N   UNL     1       1.594   8.885  19.695  0.00  0.00    +0.000 NA
ATOM      3  S   UNL     1       0.834   9.425  21.096  0.00  0.00    +0.000 S 
ATOM      4  O   UNL     1      -0.478   8.829  21.199  0.00  0.00    +0.000 OA
ATOM      5  O   UNL     1       1.790   9.368  22.174  0.00  0.00    +0.000 OA
ATOM      6  C   UNL     1       0.622  11.096  20.643  0.00  0.00    +0.000 A 
ATOM      7  C   UNL     1       0.308  12.121  21.520  0.00  0.00    +0.000 A 
ATOM      8  C   UNL     1       0.292  13.424  21.018  0.00  0.00    +0.000 A 
ATOM      9  C   UNL     1       0.632  13.674  19.675  0.00  0.00    +0.000 A 
ATOM     10  C   UNL     1       0.940  12.623  18.804  0.00  0.00    +0.000 A 
ATOM     11  C   UNL     1       0.889  11.335  19.306  0.00  0.00    +0.000 A 
ATOM     12  S   UNL     1       1.199   9.860  18.400  0.00  0.00    +0.000 S 
ATOM     13  O   UNL     1      -0.062   9.435  17.840  0.00  0.00    +0.000 OA
ATOM     14  O   UNL     1       2.375  10.088  17.593  0.00  0.00    +0.000 OA
ENDBRANCH   1   2
BRANCH   1  18
ATOM     15  C   UNL     1       5.318   5.872  18.023  0.00  0.00    +0.000 A 
ATOM     16  C   UNL     1       4.616   6.819  17.272  0.00  0.00    +0.000 A 
ATOM     17  C   UNL     1       3.373   7.273  17.727  0.00  0.00    +0.000 A 
ATOM     18  C   UNL     1       2.839   6.795  18.936  0.00  0.00    +0.000 A 
ATOM     19  C   UNL     1       3.522   5.782  19.630  0.00  0.00    +0.000 A 
ATOM     20  C   UNL     1       4.759   5.323  19.178  0.00  0.00    +0.000 A 
BRANCH  15  21
ATOM     21  S   UNL     1       6.974   5.441  17.573  0.00  0.00    +0.000 S 
ATOM     22  O   UNL     1       7.697   5.039  18.756  0.00  0.00    +0.000 OA
ATOM     23  O   UNL     1       7.488   6.412  16.635  0.00  0.00    +0.000 OA
BRANCH  21  24
ATOM     24  N   UNL     1       6.734   4.047  16.662  0.00  0.00    +0.000 NA
ATOM     25  H   UNL     1       7.582   3.481  16.681  0.00  0.00    +0.000 HD
ATOM     26  H   UNL     1       6.427   4.293  15.720  0.00  0.00    +0.000 HD
ENDBRANCH  21  24
ENDBRANCH  15  21
ENDBRANCH   1  18
TORSDOF 4
ENDMDL
