MODEL 1
REMARK VINA RESULT:      -9.4      0.000      0.000
REMARK  Name = 
REMARK  4 active torsions:
REMARK  status: ('A' for Active; 'I' for Inactive)
REMARK    1  A    between atoms: C_1  and  C_2
REMARK    2  A    between atoms: C_4  and  C_5
REMARK    3  A    between atoms: C_6  and  C_7
REMARK    4  A    between atoms: C_15  and  C_16
REMARK                            x       y       z     vdW  Elec       q    Type
REMARK                         _______ _______ _______ _____ _____    ______ ____
ROOT
ATOM      1  C   UNL     1       4.452   7.048  16.790  0.00  0.00    +0.000 C 
ATOM      2  C   UNL     1       3.775   6.759  17.912  0.00  0.00    +0.000 C 
ATOM      3  C   UNL     1       3.929   5.512  18.757  0.00  0.00    +0.000 C 
ATOM      4  O   UNL     1       4.583   4.508  18.551  0.00  0.00    +0.000 OA
ATOM      5  N   UNL     1       3.108   5.719  19.851  0.00  0.00    +0.000 N 
ATOM      6  C   UNL     1       2.427   6.925  19.758  0.00  0.00    +0.000 A 
ATOM      7  C   UNL     1       1.517   7.404  20.671  0.00  0.00    +0.000 A 
ATOM      8  C   UNL     1       0.906   8.622  20.379  0.00  0.00    +0.000 A 
ATOM      9  C   UNL     1       1.202   9.331  19.188  0.00  0.00    +0.000 A 
ATOM     10  C   UNL     1       2.165   8.822  18.290  0.00  0.00    +0.000 A 
ATOM     11  C   UNL     1       2.771   7.608  18.586  0.00  0.00    +0.000 A 
ATOM     12  H   UNL     1       3.011   5.036  20.584  0.00  0.00    +0.000 HD
ENDROOT
BRANCH   9  13
ATOM     13  C   UNL     1       0.521  10.597  18.914  0.00  0.00    +0.000 A 
ATOM     14  C   UNL     1      -0.850  10.701  18.739  0.00  0.00    +0.000 A 
ATOM     15  S   UNL     1      -1.305  12.344  18.579  0.00  0.00    +0.000 S 
ATOM     16  C   UNL     1       0.337  12.781  18.701  0.00  0.00    +0.000 A 
ATOM     17  N   UNL     1       0.699  14.133  18.686  0.00  0.00    +0.000 N 
ATOM     18  C   UNL     1       1.971  14.665  18.695  0.00  0.00    +0.000 A 
ATOM     19  C   UNL     1       1.839  16.030  18.771  0.00  0.00    +0.000 A 
ATOM     20  C   UNL     1       0.452  16.247  18.790  0.00  0.00    +0.000 A 
ATOM     21  N   UNL     1      -0.246  15.114  18.707  0.00  0.00    +0.000 NA
ATOM     22  N   UNL     1       1.210  11.798  18.824  0.00  0.00    +0.000 NA
ENDBRANCH   9  13
BRANCH   1  28
ATOM     23  C   UNL     1       6.172   3.685  13.687  0.00  0.00    +0.000 C 
ATOM     24  C   UNL     1       6.227   4.648  14.813  0.00  0.00    +0.000 A 
ATOM     25  C   UNL     1       7.232   4.919  15.717  0.00  0.00    +0.000 A 
ATOM     26  C   UNL     1       6.750   5.891  16.639  0.00  0.00    +0.000 A 
ATOM     27  C   UNL     1       7.495   6.427  17.806  0.00  0.00    +0.000 C 
ATOM     28  C   UNL     1       5.451   6.194  16.261  0.00  0.00    +0.000 A 
ATOM     29  N   UNL     1       5.155   5.442  15.148  0.00  0.00    +0.000 N 
ATOM     30  H   UNL     1       4.262   5.434  14.675  0.00  0.00    +0.000 HD
ENDBRANCH   1  28
TORSDOF 2
ENDMDL
MODEL 2
REMARK VINA RESULT:      -9.2      2.282      2.692
REMARK  Name = 
REMARK  4 active torsions:
REMARK  status: ('A' for Active; 'I' for Inactive)
REMARK    1  A    between atoms: C_1  and  C_2
REMARK    2  A    between atoms: C_4  and  C_5
REMARK    3  A    between atoms: C_6  and  C_7
REMARK    4  A    between atoms: C_15  and  C_16
REMARK                            x       y       z     vdW  Elec       q    Type
REMARK                         _______ _______ _______ _____ _____    ______ ____
ROOT
ATOM      1  C   UNL     1       4.584   6.281  16.916  0.00  0.00    +0.000 C 
ATOM      2  C   UNL     1       3.875   5.773  17.937  0.00  0.00    +0.000 C 
ATOM      3  C   UNL     1       3.911   4.342  18.429  0.00  0.00    +0.000 C 
ATOM      4  O   UNL     1       4.476   3.372  17.962  0.00  0.00    +0.000 OA
ATOM      5  N   UNL     1       3.104   4.331  19.552  0.00  0.00    +0.000 N 
ATOM      6  C   UNL     1       2.532   5.575  19.782  0.00  0.00    +0.000 A 
ATOM      7  C   UNL     1       1.660   5.880  20.802  0.00  0.00    +0.000 A 
ATOM      8  C   UNL     1       1.162   7.181  20.843  0.00  0.00    +0.000 A 
ATOM      9  C   UNL     1       1.529   8.144  19.870  0.00  0.00    +0.000 A 
ATOM     10  C   UNL     1       2.451   7.801  18.857  0.00  0.00    +0.000 A 
ATOM     11  C   UNL     1       2.945   6.504  18.821  0.00  0.00    +0.000 A 
ATOM     12  H   UNL     1       2.940   3.493  20.086  0.00  0.00    +0.000 HD
ENDROOT
BRANCH   9  13
ATOM     13  C   UNL     1       0.965   9.493  19.941  0.00  0.00    +0.000 A 
ATOM     14  C   UNL     1       1.112  10.433  18.933  0.00  0.00    +0.000 A 
ATOM     15  S   UNL     1       0.205  11.839  19.296  0.00  0.00    +0.000 S 
ATOM     16  C   UNL     1      -0.266  11.121  20.767  0.00  0.00    +0.000 A 
ATOM     17  N   UNL     1      -1.145  11.798  21.621  0.00  0.00    +0.000 N 
ATOM     18  C   UNL     1      -1.569  11.410  22.874  0.00  0.00    +0.000 A 
ATOM     19  C   UNL     1      -2.497  12.333  23.291  0.00  0.00    +0.000 A 
ATOM     20  C   UNL     1      -2.569  13.258  22.238  0.00  0.00    +0.000 A 
ATOM     21  N   UNL     1      -1.736  12.964  21.239  0.00  0.00    +0.000 NA
ATOM     22  N   UNL     1       0.221   9.922  21.030  0.00  0.00    +0.000 NA
ENDBRANCH   9  13
BRANCH   1  28
ATOM     23  C   UNL     1       6.026   3.696  13.026  0.00  0.00    +0.000 C 
ATOM     24  C   UNL     1       6.157   4.327  14.362  0.00  0.00    +0.000 A 
ATOM     25  C   UNL     1       7.174   4.266  15.290  0.00  0.00    +0.000 A 
ATOM     26  C   UNL     1       6.772   5.005  16.439  0.00  0.00    +0.000 A 
ATOM     27  C   UNL     1       7.551   5.153  17.694  0.00  0.00    +0.000 C 
ATOM     28  C   UNL     1       5.509   5.508  16.170  0.00  0.00    +0.000 A 
ATOM     29  N   UNL     1       5.156   5.098  14.905  0.00  0.00    +0.000 N 
ATOM     30  H   UNL     1       4.270   5.292  14.459  0.00  0.00    +0.000 HD
ENDBRANCH   1  28
TORSDOF 2
ENDMDL
MODEL 3
REMARK VINA RESULT:      -9.0      1.569      2.007
REMARK  Name = 
REMARK  4 active torsions:
REMARK  status: ('A' for Active; 'I' for Inactive)
REMARK    1  A    between atoms: C_1  and  C_2
REMARK    2  A    between atoms: C_4  and  C_5
REMARK    3  A    between atoms: C_6  and  C_7
REMARK    4  A    between atoms: C_15  and  C_16
REMARK                            x       y       z     vdW  Elec       q    Type
REMARK                         _______ _______ _______ _____ _____    ______ ____
ROOT
ATOM      1  C   UNL     1       4.550   5.949  16.963  0.00  0.00    +0.000 C 
ATOM      2  C   UNL     1       3.799   5.328  17.886  0.00  0.00    +0.000 C 
ATOM      3  C   UNL     1       3.744   3.837  18.142  0.00  0.00    +0.000 C 
ATOM      4  O   UNL     1       4.257   2.922  17.528  0.00  0.00    +0.000 OA
ATOM      5  N   UNL     1       2.923   3.695  19.246  0.00  0.00    +0.000 N 
ATOM      6  C   UNL     1       2.422   4.918  19.671  0.00  0.00    +0.000 A 
ATOM      7  C   UNL     1       1.557   5.109  20.723  0.00  0.00    +0.000 A 
ATOM      8  C   UNL     1       1.135   6.413  20.970  0.00  0.00    +0.000 A 
ATOM      9  C   UNL     1       1.571   7.496  20.166  0.00  0.00    +0.000 A 
ATOM     10  C   UNL     1       2.484   7.265  19.115  0.00  0.00    +0.000 A 
ATOM     11  C   UNL     1       2.902   5.963  18.872  0.00  0.00    +0.000 A 
ATOM     12  H   UNL     1       2.703   2.794  19.638  0.00  0.00    +0.000 HD
ENDROOT
BRANCH   9  13
ATOM     13  C   UNL     1       1.087   8.847  20.450  0.00  0.00    +0.000 A 
ATOM     14  C   UNL     1       0.296   9.158  21.546  0.00  0.00    +0.000 A 
ATOM     15  S   UNL     1       0.041  10.849  21.634  0.00  0.00    +0.000 S 
ATOM     16  C   UNL     1       0.946  11.031  20.202  0.00  0.00    +0.000 A 
ATOM     17  N   UNL     1       1.185  12.312  19.690  0.00  0.00    +0.000 N 
ATOM     18  C   UNL     1       1.822  12.643  18.513  0.00  0.00    +0.000 A 
ATOM     19  C   UNL     1       1.910  14.014  18.472  0.00  0.00    +0.000 A 
ATOM     20  C   UNL     1       1.289  14.440  19.657  0.00  0.00    +0.000 A 
ATOM     21  N   UNL     1       0.820  13.426  20.384  0.00  0.00    +0.000 NA
ATOM     22  N   UNL     1       1.405   9.928  19.640  0.00  0.00    +0.000 NA
ENDBRANCH   9  13
BRANCH   1  28
ATOM     23  C   UNL     1       5.775   3.664  12.819  0.00  0.00    +0.000 C 
ATOM     24  C   UNL     1       5.984   4.209  14.182  0.00  0.00    +0.000 A 
ATOM     25  C   UNL     1       7.064   4.113  15.033  0.00  0.00    +0.000 A 
ATOM     26  C   UNL     1       6.726   4.764  16.254  0.00  0.00    +0.000 A 
ATOM     27  C   UNL     1       7.587   4.850  17.461  0.00  0.00    +0.000 C 
ATOM     28  C   UNL     1       5.437   5.251  16.106  0.00  0.00    +0.000 A 
ATOM     29  N   UNL     1       5.007   4.917  14.843  0.00  0.00    +0.000 N 
ATOM     30  H   UNL     1       4.088   5.116  14.471  0.00  0.00    +0.000 HD
ENDBRANCH   1  28
TORSDOF 2
ENDMDL
MODEL 4
REMARK VINA RESULT:      -8.8      3.131      9.262
REMARK  Name = 
REMARK  4 active torsions:
REMARK  status: ('A' for Active; 'I' for Inactive)
REMARK    1  A    between atoms: C_1  and  C_2
REMARK    2  A    between atoms: C_4  and  C_5
REMARK    3  A    between atoms: C_6  and  C_7
REMARK    4  A    between atoms: C_15  and  C_16
REMARK                            x       y       z     vdW  Elec       q    Type
REMARK                         _______ _______ _______ _____ _____    ______ ____
ROOT
ATOM      1  C   UNL     1       1.652   9.323  18.372  0.00  0.00    +0.000 C 
ATOM      2  C   UNL     1       1.942   8.232  19.097  0.00  0.00    +0.000 C 
ATOM      3  C   UNL     1       1.380   7.885  20.460  0.00  0.00    +0.000 C 
ATOM      4  O   UNL     1       0.669   8.539  21.198  0.00  0.00    +0.000 OA
ATOM      5  N   UNL     1       1.886   6.630  20.745  0.00  0.00    +0.000 N 
ATOM      6  C   UNL     1       2.735   6.181  19.743  0.00  0.00    +0.000 A 
ATOM      7  C   UNL     1       3.417   4.987  19.745  0.00  0.00    +0.000 A 
ATOM      8  C   UNL     1       4.256   4.732  18.662  0.00  0.00    +0.000 A 
ATOM      9  C   UNL     1       4.409   5.669  17.609  0.00  0.00    +0.000 A 
ATOM     10  C   UNL     1       3.668   6.871  17.628  0.00  0.00    +0.000 A 
ATOM     11  C   UNL     1       2.833   7.120  18.709  0.00  0.00    +0.000 A 
ATOM     12  H   UNL     1       1.675   6.151  21.606  0.00  0.00    +0.000 HD
ENDROOT
BRANCH   9  13
ATOM     13  C   UNL     1       5.316   5.369  16.501  0.00  0.00    +0.000 A 
ATOM     14  C   UNL     1       6.683   5.595  16.555  0.00  0.00    +0.000 A 
ATOM     15  S   UNL     1       7.439   4.995  15.140  0.00  0.00    +0.000 S 
ATOM     16  C   UNL     1       5.908   4.533  14.552  0.00  0.00    +0.000 A 
ATOM     17  N   UNL     1       5.808   3.871  13.322  0.00  0.00    +0.000 N 
ATOM     18  C   UNL     1       4.659   3.496  12.659  0.00  0.00    +0.000 A 
ATOM     19  C   UNL     1       5.045   2.792  11.545  0.00  0.00    +0.000 A 
ATOM     20  C   UNL     1       6.448   2.797  11.597  0.00  0.00    +0.000 A 
ATOM     21  N   UNL     1       6.920   3.471  12.647  0.00  0.00    +0.000 NA
ATOM     22  N   UNL     1       4.865   4.814  15.312  0.00  0.00    +0.000 NA
ENDBRANCH   9  13
BRANCH   1  28
ATOM     23  C   UNL     1       0.183  13.059  21.161  0.00  0.00    +0.000 C 
ATOM     24  C   UNL     1       0.071  12.032  20.097  0.00  0.00    +0.000 A 
ATOM     25  C   UNL     1      -0.993  11.682  19.294  0.00  0.00    +0.000 A 
ATOM     26  C   UNL     1      -0.592  10.587  18.477  0.00  0.00    +0.000 A 
ATOM     27  C   UNL     1      -1.451   9.868  17.503  0.00  0.00    +0.000 C 
ATOM     28  C   UNL     1       0.725  10.303  18.806  0.00  0.00    +0.000 A 
ATOM     29  N   UNL     1       1.114  11.194  19.779  0.00  0.00    +0.000 N 
ATOM     30  H   UNL     1       2.017  11.200  20.232  0.00  0.00    +0.000 HD
ENDBRANCH   1  28
TORSDOF 2
ENDMDL
MODEL 5
REMARK VINA RESULT:      -8.6      3.163      9.142
REMARK  Name = 
REMARK  4 active torsions:
REMARK  status: ('A' for Active; 'I' for Inactive)
REMARK    1  A    between atoms: C_1  and  C_2
REMARK    2  A    between atoms: C_4  and  C_5
REMARK    3  A    between atoms: C_6  and  C_7
REMARK    4  A    between atoms: C_15  and  C_16
REMARK                            x       y       z     vdW  Elec       q    Type
REMARK                         _______ _______ _______ _____ _____    ______ ____
ROOT
ATOM      1  C   UNL     1       1.572   9.581  18.034  0.00  0.00    +0.000 C 
ATOM      2  C   UNL     1       1.866   8.557  18.851  0.00  0.00    +0.000 C 
ATOM      3  C   UNL     1       1.293   8.319  20.232  0.00  0.00    +0.000 C 
ATOM      4  O   UNL     1       0.568   9.024  20.906  0.00  0.00    +0.000 OA
ATOM      5  N   UNL     1       1.810   7.097  20.626  0.00  0.00    +0.000 N 
ATOM      6  C   UNL     1       2.675   6.577  19.673  0.00  0.00    +0.000 A 
ATOM      7  C   UNL     1       3.369   5.395  19.781  0.00  0.00    +0.000 A 
ATOM      8  C   UNL     1       4.222   5.061  18.731  0.00  0.00    +0.000 A 
ATOM      9  C   UNL     1       4.375   5.908  17.605  0.00  0.00    +0.000 A 
ATOM     10  C   UNL     1       3.621   7.099  17.516  0.00  0.00    +0.000 A 
ATOM     11  C   UNL     1       2.773   7.427  18.565  0.00  0.00    +0.000 A 
ATOM     12  H   UNL     1       1.596   6.689  21.521  0.00  0.00    +0.000 HD
ENDROOT
BRANCH   9  13
ATOM     13  C   UNL     1       5.297   5.527  16.534  0.00  0.00    +0.000 A 
ATOM     14  C   UNL     1       6.673   5.662  16.631  0.00  0.00    +0.000 A 
ATOM     15  S   UNL     1       7.435   4.987  15.255  0.00  0.00    +0.000 S 
ATOM     16  C   UNL     1       5.897   4.616  14.621  0.00  0.00    +0.000 A 
ATOM     17  N   UNL     1       5.794   3.940  13.400  0.00  0.00    +0.000 N 
ATOM     18  C   UNL     1       4.645   3.630  12.703  0.00  0.00    +0.000 A 
ATOM     19  C   UNL     1       5.021   2.880  11.615  0.00  0.00    +0.000 A 
ATOM     20  C   UNL     1       6.419   2.793  11.716  0.00  0.00    +0.000 A 
ATOM     21  N   UNL     1       6.899   3.453  12.770  0.00  0.00    +0.000 NA
ATOM     22  N   UNL     1       4.851   4.981  15.339  0.00  0.00    +0.000 NA
ENDBRANCH   9  13
BRANCH   1  28
ATOM     23  C   UNL     1      -2.940  11.412  18.462  0.00  0.00    +0.000 C 
ATOM     24  C   UNL     1      -1.461  11.404  18.574  0.00  0.00    +0.000 A 
ATOM     25  C   UNL     1      -0.582  12.396  18.955  0.00  0.00    +0.000 A 
ATOM     26  C   UNL     1       0.742  11.888  18.828  0.00  0.00    +0.000 A 
ATOM     27  C   UNL     1       1.992  12.646  19.088  0.00  0.00    +0.000 C 
ATOM     28  C   UNL     1       0.630  10.583  18.376  0.00  0.00    +0.000 A 
ATOM     29  N   UNL     1      -0.710  10.302  18.238  0.00  0.00    +0.000 N 
ATOM     30  H   UNL     1      -1.087   9.431  17.892  0.00  0.00    +0.000 HD
ENDBRANCH   1  28
TORSDOF 2
ENDMDL
MODEL 6
REMARK VINA RESULT:      -8.0      4.377     10.086
REMARK  Name = 
REMARK  4 active torsions:
REMARK  status: ('A' for Active; 'I' for Inactive)
REMARK    1  A    between atoms: C_1  and  C_2
REMARK    2  A    between atoms: C_4  and  C_5
REMARK    3  A    between atoms: C_6  and  C_7
REMARK    4  A    between atoms: C_15  and  C_16
REMARK                            x       y       z     vdW  Elec       q    Type
REMARK                         _______ _______ _______ _____ _____    ______ ____
ROOT
ATOM      1  C   UNL     1      -3.732  11.127  18.101  0.00  0.00    +0.000 C 
ATOM      2  C   UNL     1      -2.922  11.574  19.074  0.00  0.00    +0.000 C 
ATOM      3  C   UNL     1      -3.232  12.680  20.061  0.00  0.00    +0.000 C 
ATOM      4  O   UNL     1      -4.183  13.435  20.111  0.00  0.00    +0.000 OA
ATOM      5  N   UNL     1      -2.149  12.701  20.922  0.00  0.00    +0.000 N 
ATOM      6  C   UNL     1      -1.185  11.774  20.554  0.00  0.00    +0.000 A 
ATOM      7  C   UNL     1       0.018  11.572  21.191  0.00  0.00    +0.000 A 
ATOM      8  C   UNL     1       0.874  10.618  20.645  0.00  0.00    +0.000 A 
ATOM      9  C   UNL     1       0.524   9.894  19.477  0.00  0.00    +0.000 A 
ATOM     10  C   UNL     1      -0.732  10.107  18.870  0.00  0.00    +0.000 A 
ATOM     11  C   UNL     1      -1.582  11.059  19.418  0.00  0.00    +0.000 A 
ATOM     12  H   UNL     1      -2.086  13.355  21.686  0.00  0.00    +0.000 HD
ENDROOT
BRANCH   9  13
ATOM     13  C   UNL     1       1.463   8.915  18.927  0.00  0.00    +0.000 A 
ATOM     14  C   UNL     1       2.290   9.178  17.846  0.00  0.00    +0.000 A 
ATOM     15  S   UNL     1       3.347   7.859  17.572  0.00  0.00    +0.000 S 
ATOM     16  C   UNL     1       2.601   7.031  18.861  0.00  0.00    +0.000 A 
ATOM     17  N   UNL     1       3.069   5.766  19.237  0.00  0.00    +0.000 N 
ATOM     18  C   UNL     1       2.543   4.924  20.194  0.00  0.00    +0.000 A 
ATOM     19  C   UNL     1       3.384   3.842  20.287  0.00  0.00    +0.000 A 
ATOM     20  C   UNL     1       4.390   4.098  19.341  0.00  0.00    +0.000 A 
ATOM     21  N   UNL     1       4.194   5.239  18.680  0.00  0.00    +0.000 NA
ATOM     22  N   UNL     1       1.602   7.645  19.468  0.00  0.00    +0.000 NA
ENDBRANCH   9  13
BRANCH   1  28
ATOM     23  C   UNL     1      -6.950  14.430  16.479  0.00  0.00    +0.000 C 
ATOM     24  C   UNL     1      -6.503  13.176  17.132  0.00  0.00    +0.000 A 
ATOM     25  C   UNL     1      -7.219  12.206  17.801  0.00  0.00    +0.000 A 
ATOM     26  C   UNL     1      -6.300  11.236  18.292  0.00  0.00    +0.000 A 
ATOM     27  C   UNL     1      -6.646  10.048  19.113  0.00  0.00    +0.000 C 
ATOM     28  C   UNL     1      -5.036  11.644  17.897  0.00  0.00    +0.000 A 
ATOM     29  N   UNL     1      -5.178  12.813  17.186  0.00  0.00    +0.000 N 
ATOM     30  H   UNL     1      -4.415  13.355  16.803  0.00  0.00    +0.000 HD
ENDBRANCH   1  28
TORSDOF 2
ENDMDL
MODEL 7
REMARK VINA RESULT:      -7.9      1.459      2.047
REMARK  Name = 
REMARK  4 active torsions:
REMARK  status: ('A' for Active; 'I' for Inactive)
REMARK    1  A    between atoms: C_1  and  C_2
REMARK    2  A    between atoms: C_4  and  C_5
REMARK    3  A    between atoms: C_6  and  C_7
REMARK    4  A    between atoms: C_15  and  C_16
REMARK                            x       y       z     vdW  Elec       q    Type
REMARK                         _______ _______ _______ _____ _____    ______ ____
ROOT
ATOM      1  C   UNL     1       3.302   6.785  17.907  0.00  0.00    +0.000 C 
ATOM      2  C   UNL     1       2.657   6.843  19.083  0.00  0.00    +0.000 C 
ATOM      3  C   UNL     1       2.613   5.754  20.135  0.00  0.00    +0.000 C 
ATOM      4  O   UNL     1       3.035   4.615  20.095  0.00  0.00    +0.000 OA
ATOM      5  N   UNL     1       1.926   6.314  21.198  0.00  0.00    +0.000 N 
ATOM      6  C   UNL     1       1.498   7.602  20.907  0.00  0.00    +0.000 A 
ATOM      7  C   UNL     1       0.766   8.411  21.745  0.00  0.00    +0.000 A 
ATOM      8  C   UNL     1       0.396   9.662  21.256  0.00  0.00    +0.000 A 
ATOM      9  C   UNL     1       0.748  10.079  19.947  0.00  0.00    +0.000 A 
ATOM     10  C   UNL     1       1.526   9.232  19.129  0.00  0.00    +0.000 A 
ATOM     11  C   UNL     1       1.893   7.986  19.621  0.00  0.00    +0.000 A 
ATOM     12  H   UNL     1       1.743   5.802  22.045  0.00  0.00    +0.000 HD
ENDROOT
BRANCH   9  13
ATOM     13  C   UNL     1       0.320  11.393  19.468  0.00  0.00    +0.000 A 
ATOM     14  C   UNL     1      -1.003  11.716  19.212  0.00  0.00    +0.000 A 
ATOM     15  S   UNL     1      -1.142  13.373  18.805  0.00  0.00    +0.000 S 
ATOM     16  C   UNL     1       0.549  13.521  18.951  0.00  0.00    +0.000 A 
ATOM     17  N   UNL     1       1.155  14.770  18.769  0.00  0.00    +0.000 N 
ATOM     18  C   UNL     1       2.503  15.061  18.770  0.00  0.00    +0.000 A 
ATOM     19  C   UNL     1       2.623  16.424  18.653  0.00  0.00    +0.000 A 
ATOM     20  C   UNL     1       1.300  16.887  18.570  0.00  0.00    +0.000 A 
ATOM     21  N   UNL     1       0.407  15.897  18.608  0.00  0.00    +0.000 NA
ATOM     22  N   UNL     1       1.222  12.425  19.251  0.00  0.00    +0.000 NA
ENDBRANCH   9  13
BRANCH   1  28
ATOM     23  C   UNL     1       7.464   4.471  16.806  0.00  0.00    +0.000 C 
ATOM     24  C   UNL     1       6.003   4.611  17.017  0.00  0.00    +0.000 A 
ATOM     25  C   UNL     1       4.974   3.719  16.805  0.00  0.00    +0.000 A 
ATOM     26  C   UNL     1       3.748   4.375  17.110  0.00  0.00    +0.000 A 
ATOM     27  C   UNL     1       2.390   3.790  16.969  0.00  0.00    +0.000 C 
ATOM     28  C   UNL     1       4.070   5.662  17.512  0.00  0.00    +0.000 A 
ATOM     29  N   UNL     1       5.440   5.785  17.461  0.00  0.00    +0.000 N 
ATOM     30  H   UNL     1       5.954   6.629  17.670  0.00  0.00    +0.000 HD
ENDBRANCH   1  28
TORSDOF 2
ENDMDL
MODEL 8
REMARK VINA RESULT:      -7.9      1.920      2.454
REMARK  Name = 
REMARK  4 active torsions:
REMARK  status: ('A' for Active; 'I' for Inactive)
REMARK    1  A    between atoms: C_1  and  C_2
REMARK    2  A    between atoms: C_4  and  C_5
REMARK    3  A    between atoms: C_6  and  C_7
REMARK    4  A    between atoms: C_15  and  C_16
REMARK                            x       y       z     vdW  Elec       q    Type
REMARK                         _______ _______ _______ _____ _____    ______ ____
ROOT
ATOM      1  C   UNL     1       2.778   7.001  18.132  0.00  0.00    +0.000 C 
ATOM      2  C   UNL     1       2.217   7.193  19.337  0.00  0.00    +0.000 C 
ATOM      3  C   UNL     1       2.084   6.161  20.438  0.00  0.00    +0.000 C 
ATOM      4  O   UNL     1       2.341   4.974  20.427  0.00  0.00    +0.000 OA
ATOM      5  N   UNL     1       1.545   6.853  21.509  0.00  0.00    +0.000 N 
ATOM      6  C   UNL     1       1.283   8.176  21.184  0.00  0.00    +0.000 A 
ATOM      7  C   UNL     1       0.722   9.111  22.021  0.00  0.00    +0.000 A 
ATOM      8  C   UNL     1       0.500  10.383  21.496  0.00  0.00    +0.000 A 
ATOM      9  C   UNL     1       0.830  10.696  20.153  0.00  0.00    +0.000 A 
ATOM     10  C   UNL     1       1.433   9.718  19.334  0.00  0.00    +0.000 A 
ATOM     11  C   UNL     1       1.652   8.452  19.862  0.00  0.00    +0.000 A 
ATOM     12  H   UNL     1       1.342   6.404  22.388  0.00  0.00    +0.000 HD
ENDROOT
BRANCH   9  13
ATOM     13  C   UNL     1       0.561  12.039  19.638  0.00  0.00    +0.000 A 
ATOM     14  C   UNL     1      -0.701  12.612  19.630  0.00  0.00    +0.000 A 
ATOM     15  S   UNL     1      -0.612  14.235  19.090  0.00  0.00    +0.000 S 
ATOM     16  C   UNL     1       1.065  14.038  18.864  0.00  0.00    +0.000 A 
ATOM     17  N   UNL     1       1.840  15.121  18.430  0.00  0.00    +0.000 N 
ATOM     18  C   UNL     1       3.183  15.125  18.120  0.00  0.00    +0.000 A 
ATOM     19  C   UNL     1       3.529  16.424  17.838  0.00  0.00    +0.000 A 
ATOM     20  C   UNL     1       2.334  17.145  17.984  0.00  0.00    +0.000 A 
ATOM     21  N   UNL     1       1.302  16.366  18.311  0.00  0.00    +0.000 NA
ATOM     22  N   UNL     1       1.569  12.847  19.131  0.00  0.00    +0.000 NA
ENDBRANCH   9  13
BRANCH   1  28
ATOM     23  C   UNL     1       2.702   2.198  17.229  0.00  0.00    +0.000 C 
ATOM     24  C   UNL     1       3.298   3.552  17.329  0.00  0.00    +0.000 A 
ATOM     25  C   UNL     1       4.600   3.975  17.165  0.00  0.00    +0.000 A 
ATOM     26  C   UNL     1       4.649   5.373  17.433  0.00  0.00    +0.000 A 
ATOM     27  C   UNL     1       5.870   6.218  17.420  0.00  0.00    +0.000 C 
ATOM     28  C   UNL     1       3.358   5.766  17.749  0.00  0.00    +0.000 A 
ATOM     29  N   UNL     1       2.551   4.655  17.670  0.00  0.00    +0.000 N 
ATOM     30  H   UNL     1       1.563   4.640  17.882  0.00  0.00    +0.000 HD
ENDBRANCH   1  28
TORSDOF 2
ENDMDL
MODEL 9
REMARK VINA RESULT:      -7.8      4.218      9.635
REMARK  Name = 
REMARK  4 active torsions:
REMARK  status: ('A' for Active; 'I' for Inactive)
REMARK    1  A    between atoms: C_1  and  C_2
REMARK    2  A    between atoms: C_4  and  C_5
REMARK    3  A    between atoms: C_6  and  C_7
REMARK    4  A    between atoms: C_15  and  C_16
REMARK                            x       y       z     vdW  Elec       q    Type
REMARK                         _______ _______ _______ _____ _____    ______ ____
ROOT
ATOM      1  C   UNL     1       1.091  13.535  19.676  0.00  0.00    +0.000 C 
ATOM      2  C   UNL     1       0.530  12.863  20.693  0.00  0.00    +0.000 C 
ATOM      3  C   UNL     1      -0.272  13.462  21.830  0.00  0.00    +0.000 C 
ATOM      4  O   UNL     1      -0.475  14.626  22.110  0.00  0.00    +0.000 OA
ATOM      5  N   UNL     1      -0.725  12.375  22.557  0.00  0.00    +0.000 N 
ATOM      6  C   UNL     1      -0.255  11.178  22.034  0.00  0.00    +0.000 A 
ATOM      7  C   UNL     1      -0.504   9.927  22.547  0.00  0.00    +0.000 A 
ATOM      8  C   UNL     1       0.091   8.845  21.900  0.00  0.00    +0.000 A 
ATOM      9  C   UNL     1       0.926   9.028  20.769  0.00  0.00    +0.000 A 
ATOM     10  C   UNL     1       1.132  10.326  20.253  0.00  0.00    +0.000 A 
ATOM     11  C   UNL     1       0.536  11.401  20.901  0.00  0.00    +0.000 A 
ATOM     12  H   UNL     1      -1.288  12.482  23.385  0.00  0.00    +0.000 HD
ENDROOT
BRANCH   9  13
ATOM     13  C   UNL     1       1.546   7.865  20.134  0.00  0.00    +0.000 A 
ATOM     14  C   UNL     1       2.201   7.924  18.914  0.00  0.00    +0.000 A 
ATOM     15  S   UNL     1       2.920   6.412  18.553  0.00  0.00    +0.000 S 
ATOM     16  C   UNL     1       2.272   5.791  20.001  0.00  0.00    +0.000 A 
ATOM     17  N   UNL     1       2.550   4.471  20.375  0.00  0.00    +0.000 N 
ATOM     18  C   UNL     1       2.053   3.781  21.460  0.00  0.00    +0.000 A 
ATOM     19  C   UNL     1       2.675   2.556  21.481  0.00  0.00    +0.000 A 
ATOM     20  C   UNL     1       3.525   2.576  20.364  0.00  0.00    +0.000 A 
ATOM     21  N   UNL     1       3.436   3.712  19.672  0.00  0.00    +0.000 NA
ATOM     22  N   UNL     1       1.534   6.611  20.726  0.00  0.00    +0.000 NA
ENDBRANCH   9  13
BRANCH   1  28
ATOM     23  C   UNL     1      -1.194  17.626  18.284  0.00  0.00    +0.000 C 
ATOM     24  C   UNL     1      -0.110  16.814  18.887  0.00  0.00    +0.000 A 
ATOM     25  C   UNL     1       1.118  17.186  19.392  0.00  0.00    +0.000 A 
ATOM     26  C   UNL     1       1.808  16.007  19.795  0.00  0.00    +0.000 A 
ATOM     27  C   UNL     1       3.186  15.952  20.347  0.00  0.00    +0.000 C 
ATOM     28  C   UNL     1       0.966  14.939  19.529  0.00  0.00    +0.000 A 
ATOM     29  N   UNL     1      -0.194  15.445  18.991  0.00  0.00    +0.000 N 
ATOM     30  H   UNL     1      -0.975  14.889  18.670  0.00  0.00    +0.000 HD
ENDBRANCH   1  28
TORSDOF 2
ENDMDL
