MODEL 1
REMARK VINA RESULT:      -9.6      0.000      0.000
REMARK  Name = 
REMARK  7 active torsions:
REMARK  status: ('A' for Active; 'I' for Inactive)
REMARK    1  A    between atoms: C_1  and  O_2
REMARK    2  A    between atoms: O_2  and  C_3
REMARK    3  A    between atoms: C_9  and  C_10
REMARK    4  A    between atoms: N_13  and  C_14
REMARK    5  A    between atoms: C_18  and  C_19
REMARK    6  A    between atoms: C_19  and  S_20
REMARK    7  A    between atoms: S_20  and  C_23
REMARK                            x       y       z     vdW  Elec       q    Type
REMARK                         _______ _______ _______ _____ _____    ______ ____
ROOT
ATOM      1  C   UNL     1       3.812   4.401  18.908  0.00  0.00    +0.000 A 
ATOM      2  N   UNL     1       3.407   5.604  19.371  0.00  0.00    +0.000 NA
ATOM      3  C   UNL     1       2.441   5.658  20.304  0.00  0.00    +0.000 A 
ATOM      4  N   UNL     1       1.947   6.898  20.717  0.00  0.00    +0.000 N 
ATOM      5  N   UNL     1       1.890   4.575  20.873  0.00  0.00    +0.000 NA
ATOM      6  C   UNL     1       2.319   3.384  20.415  0.00  0.00    +0.000 A 
ATOM      7  C   UNL     1       3.265   3.240  19.429  0.00  0.00    +0.000 A 
ATOM      8  F   UNL     1       3.607   2.014  19.009  0.00  0.00    +0.000 F 
ATOM      9  H   UNL     1       1.172   6.729  21.346  0.00  0.00    +0.000 HD
ENDROOT
BRANCH   1  16
ATOM     10  C   UNL     1       6.235   4.643  18.102  0.00  0.00    +0.000 A 
ATOM     11  C   UNL     1       7.158   4.701  17.045  0.00  0.00    +0.000 A 
ATOM     12  C   UNL     1       6.740   4.504  15.741  0.00  0.00    +0.000 A 
ATOM     13  F   UNL     1       7.631   4.582  14.744  0.00  0.00    +0.000 F 
ATOM     14  C   UNL     1       5.414   4.240  15.454  0.00  0.00    +0.000 A 
ATOM     15  C   UNL     1       4.488   4.185  16.498  0.00  0.00    +0.000 A 
ATOM     16  C   UNL     1       4.856   4.413  17.845  0.00  0.00    +0.000 A 
BRANCH  10  18
ATOM     17  C   UNL     1       7.810   5.733  19.484  0.00  0.00    +0.000 C 
ATOM     18  O   UNL     1       6.646   4.912  19.386  0.00  0.00    +0.000 OA
ENDBRANCH  10  18
ENDBRANCH   1  16
BRANCH   4  19
ATOM     19  C   UNL     1       1.750   8.027  19.897  0.00  0.00    +0.000 A 
ATOM     20  C   UNL     1       2.251   8.109  18.593  0.00  0.00    +0.000 A 
ATOM     21  C   UNL     1       2.030   9.246  17.812  0.00  0.00    +0.000 A 
ATOM     22  C   UNL     1       1.293  10.310  18.322  0.00  0.00    +0.000 A 
ATOM     23  C   UNL     1       0.744  10.237  19.609  0.00  0.00    +0.000 A 
ATOM     24  C   UNL     1       0.987   9.089  20.385  0.00  0.00    +0.000 A 
BRANCH  23  25
ATOM     25  C   UNL     1      -0.068  11.386  20.155  0.00  0.00    +0.000 C 
BRANCH  25  26
ATOM     26  S   UNL     1      -1.421  11.750  19.034  0.00  0.00    +0.000 S 
ATOM     27  N   UNL     1      -2.648  12.176  19.868  0.00  0.00    +0.000 NA
ATOM     28  O   UNL     1      -0.901  12.495  17.907  0.00  0.00    +0.000 OA
ATOM     29  H   UNL     1      -2.484  13.094  20.294  0.00  0.00    +0.000 HD
BRANCH  26  30
ATOM     30  C   UNL     1      -1.865  10.089  18.403  0.00  0.00    +0.000 C 
ATOM     31  C   UNL     1      -3.214  10.063  17.727  0.00  0.00    +0.000 C 
ATOM     32  C   UNL     1      -1.959   9.968  16.905  0.00  0.00    +0.000 C 
ENDBRANCH  26  30
ENDBRANCH  25  26
ENDBRANCH  23  25
ENDBRANCH   4  19
TORSDOF 6
ENDMDL
MODEL 2
REMARK VINA RESULT:      -9.5      1.570      2.265
REMARK  Name = 
REMARK  7 active torsions:
REMARK  status: ('A' for Active; 'I' for Inactive)
REMARK    1  A    between atoms: C_1  and  O_2
REMARK    2  A    between atoms: O_2  and  C_3
REMARK    3  A    between atoms: C_9  and  C_10
REMARK    4  A    between atoms: N_13  and  C_14
REMARK    5  A    between atoms: C_18  and  C_19
REMARK    6  A    between atoms: C_19  and  S_20
REMARK    7  A    between atoms: S_20  and  C_23
REMARK                            x       y       z     vdW  Elec       q    Type
REMARK                         _______ _______ _______ _____ _____    ______ ____
ROOT
ATOM      1  C   UNL     1       3.974   4.279  18.995  0.00  0.00    +0.000 A 
ATOM      2  N   UNL     1       3.512   5.462  19.453  0.00  0.00    +0.000 NA
ATOM      3  C   UNL     1       2.602   5.473  20.444  0.00  0.00    +0.000 A 
ATOM      4  N   UNL     1       2.045   6.687  20.857  0.00  0.00    +0.000 N 
ATOM      5  N   UNL     1       2.167   4.371  21.071  0.00  0.00    +0.000 NA
ATOM      6  C   UNL     1       2.653   3.201  20.616  0.00  0.00    +0.000 A 
ATOM      7  C   UNL     1       3.546   3.097  19.576  0.00  0.00    +0.000 A 
ATOM      8  F   UNL     1       3.951   1.888  19.166  0.00  0.00    +0.000 F 
ATOM      9  H   UNL     1       1.323   6.481  21.536  0.00  0.00    +0.000 HD
ENDROOT
BRANCH   1  16
ATOM     10  C   UNL     1       6.332   4.614  18.042  0.00  0.00    +0.000 A 
ATOM     11  C   UNL     1       7.185   4.711  16.930  0.00  0.00    +0.000 A 
ATOM     12  C   UNL     1       6.693   4.507  15.653  0.00  0.00    +0.000 A 
ATOM     13  F   UNL     1       7.516   4.624  14.603  0.00  0.00    +0.000 F 
ATOM     14  C   UNL     1       5.362   4.196  15.447  0.00  0.00    +0.000 A 
ATOM     15  C   UNL     1       4.505   4.102  16.546  0.00  0.00    +0.000 A 
ATOM     16  C   UNL     1       4.949   4.335  17.870  0.00  0.00    +0.000 A 
BRANCH  10  18
ATOM     17  C   UNL     1       7.924   5.784  19.335  0.00  0.00    +0.000 C 
ATOM     18  O   UNL     1       6.813   4.889  19.300  0.00  0.00    +0.000 OA
ENDBRANCH  10  18
ENDBRANCH   1  16
BRANCH   4  19
ATOM     19  C   UNL     1       1.717   7.775  20.023  0.00  0.00    +0.000 A 
ATOM     20  C   UNL     1       2.258   7.935  18.743  0.00  0.00    +0.000 A 
ATOM     21  C   UNL     1       1.904   9.028  17.948  0.00  0.00    +0.000 A 
ATOM     22  C   UNL     1       0.992   9.967  18.419  0.00  0.00    +0.000 A 
ATOM     23  C   UNL     1       0.401   9.808  19.680  0.00  0.00    +0.000 A 
ATOM     24  C   UNL     1       0.781   8.708  20.471  0.00  0.00    +0.000 A 
BRANCH  23  25
ATOM     25  C   UNL     1      -0.599  10.819  20.184  0.00  0.00    +0.000 C 
BRANCH  25  26
ATOM     26  S   UNL     1       0.104  11.720  21.567  0.00  0.00    +0.000 S 
ATOM     27  N   UNL     1      -0.362  11.049  22.877  0.00  0.00    +0.000 NA
ATOM     28  O   UNL     1       1.482  12.042  21.259  0.00  0.00    +0.000 OA
ATOM     29  H   UNL     1       0.085  10.134  22.983  0.00  0.00    +0.000 HD
BRANCH  26  30
ATOM     30  C   UNL     1      -0.824  13.298  21.520  0.00  0.00    +0.000 C 
ATOM     31  C   UNL     1      -0.207  14.365  22.391  0.00  0.00    +0.000 C 
ATOM     32  C   UNL     1      -0.098  14.460  20.895  0.00  0.00    +0.000 C 
ENDBRANCH  26  30
ENDBRANCH  25  26
ENDBRANCH  23  25
ENDBRANCH   4  19
TORSDOF 6
ENDMDL
MODEL 3
REMARK VINA RESULT:      -9.4      1.071      1.167
REMARK  Name = 
REMARK  7 active torsions:
REMARK  status: ('A' for Active; 'I' for Inactive)
REMARK    1  A    between atoms: C_1  and  O_2
REMARK    2  A    between atoms: O_2  and  C_3
REMARK    3  A    between atoms: C_9  and  C_10
REMARK    4  A    between atoms: N_13  and  C_14
REMARK    5  A    between atoms: C_18  and  C_19
REMARK    6  A    between atoms: C_19  and  S_20
REMARK    7  A    between atoms: S_20  and  C_23
REMARK                            x       y       z     vdW  Elec       q    Type
REMARK                         _______ _______ _______ _____ _____    ______ ____
ROOT
ATOM      1  C   UNL     1       3.846   4.459  19.037  0.00  0.00    +0.000 A 
ATOM      2  N   UNL     1       3.392   5.675  19.409  0.00  0.00    +0.000 NA
ATOM      3  C   UNL     1       2.434   5.758  20.350  0.00  0.00    +0.000 A 
ATOM      4  N   UNL     1       1.888   7.004  20.672  0.00  0.00    +0.000 N 
ATOM      5  N   UNL     1       1.941   4.700  21.011  0.00  0.00    +0.000 NA
ATOM      6  C   UNL     1       2.420   3.498  20.642  0.00  0.00    +0.000 A 
ATOM      7  C   UNL     1       3.360   3.319  19.655  0.00  0.00    +0.000 A 
ATOM      8  F   UNL     1       3.755   2.081  19.329  0.00  0.00    +0.000 F 
ATOM      9  H   UNL     1       1.129   6.850  21.323  0.00  0.00    +0.000 HD
ENDROOT
BRANCH   1  16
ATOM     10  C   UNL     1       6.258   4.681  18.190  0.00  0.00    +0.000 A 
ATOM     11  C   UNL     1       7.167   4.701  17.120  0.00  0.00    +0.000 A 
ATOM     12  C   UNL     1       6.733   4.451  15.830  0.00  0.00    +0.000 A 
ATOM     13  F   UNL     1       7.610   4.494  14.819  0.00  0.00    +0.000 F 
ATOM     14  C   UNL     1       5.404   4.168  15.571  0.00  0.00    +0.000 A 
ATOM     15  C   UNL     1       4.492   4.151  16.628  0.00  0.00    +0.000 A 
ATOM     16  C   UNL     1       4.877   4.434  17.961  0.00  0.00    +0.000 A 
BRANCH  10  18
ATOM     17  C   UNL     1       7.896   5.755  19.510  0.00  0.00    +0.000 C 
ATOM     18  O   UNL     1       6.684   5.002  19.457  0.00  0.00    +0.000 OA
ENDBRANCH  10  18
ENDBRANCH   1  16
BRANCH   4  19
ATOM     19  C   UNL     1       1.629   8.054  19.768  0.00  0.00    +0.000 A 
ATOM     20  C   UNL     1       2.394   8.264  18.616  0.00  0.00    +0.000 A 
ATOM     21  C   UNL     1       2.102   9.316  17.744  0.00  0.00    +0.000 A 
ATOM     22  C   UNL     1       1.031  10.163  18.008  0.00  0.00    +0.000 A 
ATOM     23  C   UNL     1       0.221   9.950  19.132  0.00  0.00    +0.000 A 
ATOM     24  C   UNL     1       0.539   8.893  20.004  0.00  0.00    +0.000 A 
BRANCH  23  25
ATOM     25  C   UNL     1      -0.950  10.861  19.409  0.00  0.00    +0.000 C 
BRANCH  25  26
ATOM     26  S   UNL     1      -1.877  11.122  17.895  0.00  0.00    +0.000 S 
ATOM     27  N   UNL     1      -1.420  12.454  17.263  0.00  0.00    +0.000 NA
ATOM     28  O   UNL     1      -1.962   9.865  17.181  0.00  0.00    +0.000 OA
ATOM     29  H   UNL     1      -0.465  12.364  16.903  0.00  0.00    +0.000 HD
BRANCH  26  30
ATOM     30  C   UNL     1      -3.560  11.481  18.524  0.00  0.00    +0.000 C 
ATOM     31  C   UNL     1      -4.530  11.838  17.425  0.00  0.00    +0.000 C 
ATOM     32  C   UNL     1      -4.629  10.505  18.110  0.00  0.00    +0.000 C 
ENDBRANCH  26  30
ENDBRANCH  25  26
ENDBRANCH  23  25
ENDBRANCH   4  19
TORSDOF 6
ENDMDL
MODEL 4
REMARK VINA RESULT:      -9.3      1.285      1.496
REMARK  Name = 
REMARK  7 active torsions:
REMARK  status: ('A' for Active; 'I' for Inactive)
REMARK    1  A    between atoms: C_1  and  O_2
REMARK    2  A    between atoms: O_2  and  C_3
REMARK    3  A    between atoms: C_9  and  C_10
REMARK    4  A    between atoms: N_13  and  C_14
REMARK    5  A    between atoms: C_18  and  C_19
REMARK    6  A    between atoms: C_19  and  S_20
REMARK    7  A    between atoms: S_20  and  C_23
REMARK                            x       y       z     vdW  Elec       q    Type
REMARK                         _______ _______ _______ _____ _____    ______ ____
ROOT
ATOM      1  C   UNL     1       3.926   4.311  18.843  0.00  0.00    +0.000 A 
ATOM      2  N   UNL     1       3.506   5.505  19.313  0.00  0.00    +0.000 NA
ATOM      3  C   UNL     1       2.548   5.540  20.257  0.00  0.00    +0.000 A 
ATOM      4  N   UNL     1       2.038   6.771  20.678  0.00  0.00    +0.000 N 
ATOM      5  N   UNL     1       2.022   4.447  20.828  0.00  0.00    +0.000 NA
ATOM      6  C   UNL     1       2.466   3.265  20.362  0.00  0.00    +0.000 A 
ATOM      7  C   UNL     1       3.404   3.140  19.366  0.00  0.00    +0.000 A 
ATOM      8  F   UNL     1       3.764   1.921  18.940  0.00  0.00    +0.000 F 
ATOM      9  H   UNL     1       1.272   6.587  21.314  0.00  0.00    +0.000 HD
ENDROOT
BRANCH   1  16
ATOM     10  C   UNL     1       6.341   4.568  18.017  0.00  0.00    +0.000 A 
ATOM     11  C   UNL     1       7.253   4.647  16.952  0.00  0.00    +0.000 A 
ATOM     12  C   UNL     1       6.821   4.476  15.649  0.00  0.00    +0.000 A 
ATOM     13  F   UNL     1       7.702   4.573  14.643  0.00  0.00    +0.000 F 
ATOM     14  C   UNL     1       5.492   4.217  15.370  0.00  0.00    +0.000 A 
ATOM     15  C   UNL     1       4.577   4.143  16.422  0.00  0.00    +0.000 A 
ATOM     16  C   UNL     1       4.960   4.343  17.770  0.00  0.00    +0.000 A 
BRANCH  10  18
ATOM     17  C   UNL     1       7.856   5.727  19.410  0.00  0.00    +0.000 C 
ATOM     18  O   UNL     1       6.766   4.811  19.301  0.00  0.00    +0.000 OA
ENDBRANCH  10  18
ENDBRANCH   1  16
BRANCH   4  19
ATOM     19  C   UNL     1       1.813   7.898  19.863  0.00  0.00    +0.000 A 
ATOM     20  C   UNL     1       2.192   7.944  18.517  0.00  0.00    +0.000 A 
ATOM     21  C   UNL     1       1.948   9.082  17.742  0.00  0.00    +0.000 A 
ATOM     22  C   UNL     1       1.309  10.183  18.303  0.00  0.00    +0.000 A 
ATOM     23  C   UNL     1       0.881  10.149  19.637  0.00  0.00    +0.000 A 
ATOM     24  C   UNL     1       1.147   8.999  20.404  0.00  0.00    +0.000 A 
BRANCH  23  25
ATOM     25  C   UNL     1       0.175  11.338  20.240  0.00  0.00    +0.000 C 
BRANCH  25  26
ATOM     26  S   UNL     1      -1.137  11.877  19.140  0.00  0.00    +0.000 S 
ATOM     27  N   UNL     1      -0.521  12.767  18.039  0.00  0.00    +0.000 NA
ATOM     28  O   UNL     1      -2.019  10.757  18.887  0.00  0.00    +0.000 OA
ATOM     29  H   UNL     1       0.054  12.200  17.408  0.00  0.00    +0.000 HD
BRANCH  26  30
ATOM     30  C   UNL     1      -2.072  13.051  20.191  0.00  0.00    +0.000 C 
ATOM     31  C   UNL     1      -3.548  12.743  20.239  0.00  0.00    +0.000 C 
ATOM     32  C   UNL     1      -2.682  12.463  21.436  0.00  0.00    +0.000 C 
ENDBRANCH  26  30
ENDBRANCH  25  26
ENDBRANCH  23  25
ENDBRANCH   4  19
TORSDOF 6
ENDMDL
MODEL 5
REMARK VINA RESULT:      -9.1      1.483      2.066
REMARK  Name = 
REMARK  7 active torsions:
REMARK  status: ('A' for Active; 'I' for Inactive)
REMARK    1  A    between atoms: C_1  and  O_2
REMARK    2  A    between atoms: O_2  and  C_3
REMARK    3  A    between atoms: C_9  and  C_10
REMARK    4  A    between atoms: N_13  and  C_14
REMARK    5  A    between atoms: C_18  and  C_19
REMARK    6  A    between atoms: C_19  and  S_20
REMARK    7  A    between atoms: S_20  and  C_23
REMARK                            x       y       z     vdW  Elec       q    Type
REMARK                         _______ _______ _______ _____ _____    ______ ____
ROOT
ATOM      1  C   UNL     1       3.941   4.280  18.999  0.00  0.00    +0.000 A 
ATOM      2  N   UNL     1       3.472   5.443  19.501  0.00  0.00    +0.000 NA
ATOM      3  C   UNL     1       2.542   5.413  20.472  0.00  0.00    +0.000 A 
ATOM      4  N   UNL     1       1.980   6.608  20.928  0.00  0.00    +0.000 N 
ATOM      5  N   UNL     1       2.092   4.284  21.040  0.00  0.00    +0.000 NA
ATOM      6  C   UNL     1       2.583   3.135  20.542  0.00  0.00    +0.000 A 
ATOM      7  C   UNL     1       3.497   3.075  19.517  0.00  0.00    +0.000 A 
ATOM      8  F   UNL     1       3.907   1.884  19.060  0.00  0.00    +0.000 F 
ATOM      9  H   UNL     1       1.244   6.374  21.583  0.00  0.00    +0.000 HD
ENDROOT
BRANCH   1  16
ATOM     10  C   UNL     1       6.281   4.810  18.091  0.00  0.00    +0.000 A 
ATOM     11  C   UNL     1       7.152   4.943  16.998  0.00  0.00    +0.000 A 
ATOM     12  C   UNL     1       6.723   4.631  15.720  0.00  0.00    +0.000 A 
ATOM     13  F   UNL     1       7.562   4.783  14.686  0.00  0.00    +0.000 F 
ATOM     14  C   UNL     1       5.436   4.177  15.495  0.00  0.00    +0.000 A 
ATOM     15  C   UNL     1       4.561   4.047  16.575  0.00  0.00    +0.000 A 
ATOM     16  C   UNL     1       4.938   4.384  17.897  0.00  0.00    +0.000 A 
BRANCH  10  18
ATOM     17  C   UNL     1       8.030   5.686  19.414  0.00  0.00    +0.000 C 
ATOM     18  O   UNL     1       6.693   5.190  19.346  0.00  0.00    +0.000 OA
ENDBRANCH  10  18
ENDBRANCH   1  16
BRANCH   4  19
ATOM     19  C   UNL     1       1.672   7.734  20.139  0.00  0.00    +0.000 A 
ATOM     20  C   UNL     1       2.241   7.951  18.879  0.00  0.00    +0.000 A 
ATOM     21  C   UNL     1       1.906   9.080  18.128  0.00  0.00    +0.000 A 
ATOM     22  C   UNL     1       0.987  10.000  18.622  0.00  0.00    +0.000 A 
ATOM     23  C   UNL     1       0.369   9.785  19.862  0.00  0.00    +0.000 A 
ATOM     24  C   UNL     1       0.729   8.649  20.609  0.00  0.00    +0.000 A 
BRANCH  23  25
ATOM     25  C   UNL     1      -0.639  10.775  20.390  0.00  0.00    +0.000 C 
BRANCH  25  26
ATOM     26  S   UNL     1       0.187  12.318  20.788  0.00  0.00    +0.000 S 
ATOM     27  N   UNL     1       1.634  12.003  21.221  0.00  0.00    +0.000 NA
ATOM     28  O   UNL     1      -0.171  13.306  19.791  0.00  0.00    +0.000 OA
ATOM     29  H   UNL     1       2.181  11.681  20.416  0.00  0.00    +0.000 HD
BRANCH  26  30
ATOM     30  C   UNL     1      -0.645  12.819  22.341  0.00  0.00    +0.000 C 
ATOM     31  C   UNL     1      -2.049  13.322  22.116  0.00  0.00    +0.000 C 
ATOM     32  C   UNL     1      -1.825  11.977  22.747  0.00  0.00    +0.000 C 
ENDBRANCH  26  30
ENDBRANCH  25  26
ENDBRANCH  23  25
ENDBRANCH   4  19
TORSDOF 6
ENDMDL
MODEL 6
REMARK VINA RESULT:      -9.1      1.341      1.586
REMARK  Name = 
REMARK  7 active torsions:
REMARK  status: ('A' for Active; 'I' for Inactive)
REMARK    1  A    between atoms: C_1  and  O_2
REMARK    2  A    between atoms: O_2  and  C_3
REMARK    3  A    between atoms: C_9  and  C_10
REMARK    4  A    between atoms: N_13  and  C_14
REMARK    5  A    between atoms: C_18  and  C_19
REMARK    6  A    between atoms: C_19  and  S_20
REMARK    7  A    between atoms: S_20  and  C_23
REMARK                            x       y       z     vdW  Elec       q    Type
REMARK                         _______ _______ _______ _____ _____    ______ ____
ROOT
ATOM      1  C   UNL     1       3.931   4.229  18.855  0.00  0.00    +0.000 A 
ATOM      2  N   UNL     1       3.516   5.413  19.355  0.00  0.00    +0.000 NA
ATOM      3  C   UNL     1       2.562   5.428  20.303  0.00  0.00    +0.000 A 
ATOM      4  N   UNL     1       2.056   6.649  20.755  0.00  0.00    +0.000 N 
ATOM      5  N   UNL     1       2.036   4.322  20.851  0.00  0.00    +0.000 NA
ATOM      6  C   UNL     1       2.475   3.151  20.355  0.00  0.00    +0.000 A 
ATOM      7  C   UNL     1       3.409   3.047  19.352  0.00  0.00    +0.000 A 
ATOM      8  F   UNL     1       3.763   1.838  18.896  0.00  0.00    +0.000 F 
ATOM      9  H   UNL     1       1.292   6.452  21.390  0.00  0.00    +0.000 HD
ENDROOT
BRANCH   1  16
ATOM     10  C   UNL     1       6.334   4.558  18.019  0.00  0.00    +0.000 A 
ATOM     11  C   UNL     1       7.240   4.655  16.950  0.00  0.00    +0.000 A 
ATOM     12  C   UNL     1       6.810   4.456  15.650  0.00  0.00    +0.000 A 
ATOM     13  F   UNL     1       7.684   4.572  14.641  0.00  0.00    +0.000 F 
ATOM     14  C   UNL     1       5.490   4.150  15.378  0.00  0.00    +0.000 A 
ATOM     15  C   UNL     1       4.580   4.056  16.434  0.00  0.00    +0.000 A 
ATOM     16  C   UNL     1       4.960   4.284  17.778  0.00  0.00    +0.000 A 
BRANCH  10  18
ATOM     17  C   UNL     1       7.848   5.740  19.391  0.00  0.00    +0.000 C 
ATOM     18  O   UNL     1       6.753   4.829  19.299  0.00  0.00    +0.000 OA
ENDBRANCH  10  18
ENDBRANCH   1  16
BRANCH   4  19
ATOM     19  C   UNL     1       1.831   7.796  19.968  0.00  0.00    +0.000 A 
ATOM     20  C   UNL     1       2.161   7.856  18.609  0.00  0.00    +0.000 A 
ATOM     21  C   UNL     1       1.918   9.013  17.864  0.00  0.00    +0.000 A 
ATOM     22  C   UNL     1       1.328  10.119  18.466  0.00  0.00    +0.000 A 
ATOM     23  C   UNL     1       0.947  10.072  19.814  0.00  0.00    +0.000 A 
ATOM     24  C   UNL     1       1.212   8.903  20.551  0.00  0.00    +0.000 A 
BRANCH  23  25
ATOM     25  C   UNL     1       0.294  11.268  20.461  0.00  0.00    +0.000 C 
BRANCH  25  26
ATOM     26  S   UNL     1      -1.258  11.625  19.634  0.00  0.00    +0.000 S 
ATOM     27  N   UNL     1      -1.593  10.450  18.690  0.00  0.00    +0.000 NA
ATOM     28  O   UNL     1      -2.180  12.185  20.599  0.00  0.00    +0.000 OA
ATOM     29  H   UNL     1      -1.840   9.619  19.235  0.00  0.00    +0.000 HD
BRANCH  26  30
ATOM     30  C   UNL     1      -0.794  12.988  18.502  0.00  0.00    +0.000 C 
ATOM     31  C   UNL     1      -0.612  14.304  19.217  0.00  0.00    +0.000 C 
ATOM     32  C   UNL     1       0.586  13.557  18.701  0.00  0.00    +0.000 C 
ENDBRANCH  26  30
ENDBRANCH  25  26
ENDBRANCH  23  25
ENDBRANCH   4  19
TORSDOF 6
ENDMDL
MODEL 7
REMARK VINA RESULT:      -9.0      1.493      1.949
REMARK  Name = 
REMARK  7 active torsions:
REMARK  status: ('A' for Active; 'I' for Inactive)
REMARK    1  A    between atoms: C_1  and  O_2
REMARK    2  A    between atoms: O_2  and  C_3
REMARK    3  A    between atoms: C_9  and  C_10
REMARK    4  A    between atoms: N_13  and  C_14
REMARK    5  A    between atoms: C_18  and  C_19
REMARK    6  A    between atoms: C_19  and  S_20
REMARK    7  A    between atoms: S_20  and  C_23
REMARK                            x       y       z     vdW  Elec       q    Type
REMARK                         _______ _______ _______ _____ _____    ______ ____
ROOT
ATOM      1  C   UNL     1       3.709   4.529  18.944  0.00  0.00    +0.000 A 
ATOM      2  N   UNL     1       3.333   5.739  19.413  0.00  0.00    +0.000 NA
ATOM      3  C   UNL     1       2.351   5.812  20.330  0.00  0.00    +0.000 A 
ATOM      4  N   UNL     1       1.888   7.063  20.747  0.00  0.00    +0.000 N 
ATOM      5  N   UNL     1       1.758   4.741  20.876  0.00  0.00    +0.000 NA
ATOM      6  C   UNL     1       2.159   3.542  20.413  0.00  0.00    +0.000 A 
ATOM      7  C   UNL     1       3.118   3.380  19.442  0.00  0.00    +0.000 A 
ATOM      8  F   UNL     1       3.432   2.150  19.015  0.00  0.00    +0.000 F 
ATOM      9  H   UNL     1       1.096   6.910  21.360  0.00  0.00    +0.000 HD
ENDROOT
BRANCH   1  16
ATOM     10  C   UNL     1       6.146   4.767  18.177  0.00  0.00    +0.000 A 
ATOM     11  C   UNL     1       7.088   4.804  17.136  0.00  0.00    +0.000 A 
ATOM     12  C   UNL     1       6.695   4.571  15.830  0.00  0.00    +0.000 A 
ATOM     13  F   UNL     1       7.603   4.629  14.847  0.00  0.00    +0.000 F 
ATOM     14  C   UNL     1       5.376   4.290  15.526  0.00  0.00    +0.000 A 
ATOM     15  C   UNL     1       4.431   4.256  16.553  0.00  0.00    +0.000 A 
ATOM     16  C   UNL     1       4.773   4.521  17.901  0.00  0.00    +0.000 A 
BRANCH  10  18
ATOM     17  C   UNL     1       7.834   5.643  19.576  0.00  0.00    +0.000 C 
ATOM     18  O   UNL     1       6.531   5.072  19.461  0.00  0.00    +0.000 OA
ENDBRANCH  10  18
ENDBRANCH   1  16
BRANCH   4  19
ATOM     19  C   UNL     1       1.740   8.205  19.936  0.00  0.00    +0.000 A 
ATOM     20  C   UNL     1       1.778   8.149  18.539  0.00  0.00    +0.000 A 
ATOM     21  C   UNL     1       1.625   9.307  17.771  0.00  0.00    +0.000 A 
ATOM     22  C   UNL     1       1.416  10.534  18.393  0.00  0.00    +0.000 A 
ATOM     23  C   UNL     1       1.331  10.613  19.790  0.00  0.00    +0.000 A 
ATOM     24  C   UNL     1       1.501   9.438  20.546  0.00  0.00    +0.000 A 
BRANCH  23  25
ATOM     25  C   UNL     1       1.090  11.941  20.463  0.00  0.00    +0.000 C 
BRANCH  25  26
ATOM     26  S   UNL     1      -0.671  12.175  20.716  0.00  0.00    +0.000 S 
ATOM     27  N   UNL     1      -1.028  13.635  20.364  0.00  0.00    +0.000 NA
ATOM     28  O   UNL     1      -1.371  11.016  20.203  0.00  0.00    +0.000 OA
ATOM     29  H   UNL     1      -0.946  13.784  19.353  0.00  0.00    +0.000 HD
BRANCH  26  30
ATOM     30  C   UNL     1      -0.817  12.108  22.540  0.00  0.00    +0.000 C 
ATOM     31  C   UNL     1      -2.223  11.812  23.003  0.00  0.00    +0.000 C 
ATOM     32  C   UNL     1      -1.157  10.758  23.115  0.00  0.00    +0.000 C 
ENDBRANCH  26  30
ENDBRANCH  25  26
ENDBRANCH  23  25
ENDBRANCH   4  19
TORSDOF 6
ENDMDL
MODEL 8
REMARK VINA RESULT:      -8.9      1.528      1.639
REMARK  Name = 
REMARK  7 active torsions:
REMARK  status: ('A' for Active; 'I' for Inactive)
REMARK    1  A    between atoms: C_1  and  O_2
REMARK    2  A    between atoms: O_2  and  C_3
REMARK    3  A    between atoms: C_9  and  C_10
REMARK    4  A    between atoms: N_13  and  C_14
REMARK    5  A    between atoms: C_18  and  C_19
REMARK    6  A    between atoms: C_19  and  S_20
REMARK    7  A    between atoms: S_20  and  C_23
REMARK                            x       y       z     vdW  Elec       q    Type
REMARK                         _______ _______ _______ _____ _____    ______ ____
ROOT
ATOM      1  C   UNL     1       4.119   4.166  18.858  0.00  0.00    +0.000 A 
ATOM      2  N   UNL     1       3.643   5.324  19.366  0.00  0.00    +0.000 NA
ATOM      3  C   UNL     1       2.745   5.283  20.367  0.00  0.00    +0.000 A 
ATOM      4  N   UNL     1       2.174   6.471  20.831  0.00  0.00    +0.000 N 
ATOM      5  N   UNL     1       2.337   4.151  20.959  0.00  0.00    +0.000 NA
ATOM      6  C   UNL     1       2.836   3.008  20.455  0.00  0.00    +0.000 A 
ATOM      7  C   UNL     1       3.717   2.957  19.401  0.00  0.00    +0.000 A 
ATOM      8  F   UNL     1       4.137   1.770  18.942  0.00  0.00    +0.000 F 
ATOM      9  H   UNL     1       1.465   6.228  21.511  0.00  0.00    +0.000 HD
ENDROOT
BRANCH   1  16
ATOM     10  C   UNL     1       6.463   4.551  17.891  0.00  0.00    +0.000 A 
ATOM     11  C   UNL     1       7.300   4.706  16.774  0.00  0.00    +0.000 A 
ATOM     12  C   UNL     1       6.791   4.566  15.495  0.00  0.00    +0.000 A 
ATOM     13  F   UNL     1       7.599   4.736  14.440  0.00  0.00    +0.000 F 
ATOM     14  C   UNL     1       5.457   4.265  15.292  0.00  0.00    +0.000 A 
ATOM     15  C   UNL     1       4.616   4.114  16.396  0.00  0.00    +0.000 A 
ATOM     16  C   UNL     1       5.078   4.280  17.724  0.00  0.00    +0.000 A 
BRANCH  10  18
ATOM     17  C   UNL     1       7.874   5.855  19.264  0.00  0.00    +0.000 C 
ATOM     18  O   UNL     1       6.961   4.763  19.155  0.00  0.00    +0.000 OA
ENDBRANCH  10  18
ENDBRANCH   1  16
BRANCH   4  19
ATOM     19  C   UNL     1       1.817   7.583  20.042  0.00  0.00    +0.000 A 
ATOM     20  C   UNL     1       2.144   7.683  18.686  0.00  0.00    +0.000 A 
ATOM     21  C   UNL     1       1.769   8.802  17.939  0.00  0.00    +0.000 A 
ATOM     22  C   UNL     1       1.048   9.830  18.538  0.00  0.00    +0.000 A 
ATOM     23  C   UNL     1       0.669   9.737  19.884  0.00  0.00    +0.000 A 
ATOM     24  C   UNL     1       1.068   8.608  20.622  0.00  0.00    +0.000 A 
BRANCH  23  25
ATOM     25  C   UNL     1      -0.126  10.846  20.528  0.00  0.00    +0.000 C 
BRANCH  25  26
ATOM     26  S   UNL     1       0.762  12.396  20.360  0.00  0.00    +0.000 S 
ATOM     27  N   UNL     1       0.851  13.065  21.748  0.00  0.00    +0.000 NA
ATOM     28  O   UNL     1       1.892  12.189  19.478  0.00  0.00    +0.000 OA
ATOM     29  H   UNL     1       1.483  12.534  22.355  0.00  0.00    +0.000 HD
BRANCH  26  30
ATOM     30  C   UNL     1      -0.434  13.435  19.440  0.00  0.00    +0.000 C 
ATOM     31  C   UNL     1      -0.782  12.867  18.087  0.00  0.00    +0.000 C 
ATOM     32  C   UNL     1      -1.785  12.815  19.204  0.00  0.00    +0.000 C 
ENDBRANCH  26  30
ENDBRANCH  25  26
ENDBRANCH  23  25
ENDBRANCH   4  19
TORSDOF 6
ENDMDL
MODEL 9
REMARK VINA RESULT:      -8.8      1.598      2.162
REMARK  Name = 
REMARK  7 active torsions:
REMARK  status: ('A' for Active; 'I' for Inactive)
REMARK    1  A    between atoms: C_1  and  O_2
REMARK    2  A    between atoms: O_2  and  C_3
REMARK    3  A    between atoms: C_9  and  C_10
REMARK    4  A    between atoms: N_13  and  C_14
REMARK    5  A    between atoms: C_18  and  C_19
REMARK    6  A    between atoms: C_19  and  S_20
REMARK    7  A    between atoms: S_20  and  C_23
REMARK                            x       y       z     vdW  Elec       q    Type
REMARK                         _______ _______ _______ _____ _____    ______ ____
ROOT
ATOM      1  C   UNL     1       3.891   4.309  18.687  0.00  0.00    +0.000 A 
ATOM      2  N   UNL     1       3.490   5.485  19.217  0.00  0.00    +0.000 NA
ATOM      3  C   UNL     1       2.535   5.488  20.165  0.00  0.00    +0.000 A 
ATOM      4  N   UNL     1       2.044   6.703  20.648  0.00  0.00    +0.000 N 
ATOM      5  N   UNL     1       1.995   4.375  20.684  0.00  0.00    +0.000 NA
ATOM      6  C   UNL     1       2.421   3.211  20.159  0.00  0.00    +0.000 A 
ATOM      7  C   UNL     1       3.354   3.121  19.154  0.00  0.00    +0.000 A 
ATOM      8  F   UNL     1       3.695   1.920  18.667  0.00  0.00    +0.000 F 
ATOM      9  H   UNL     1       1.277   6.499  21.277  0.00  0.00    +0.000 HD
ENDROOT
BRANCH   1  16
ATOM     10  C   UNL     1       6.309   4.558  17.867  0.00  0.00    +0.000 A 
ATOM     11  C   UNL     1       7.220   4.677  16.804  0.00  0.00    +0.000 A 
ATOM     12  C   UNL     1       6.780   4.591  15.495  0.00  0.00    +0.000 A 
ATOM     13  F   UNL     1       7.659   4.726  14.494  0.00  0.00    +0.000 F 
ATOM     14  C   UNL     1       5.444   4.380  15.208  0.00  0.00    +0.000 A 
ATOM     15  C   UNL     1       4.531   4.266  16.258  0.00  0.00    +0.000 A 
ATOM     16  C   UNL     1       4.922   4.380  17.614  0.00  0.00    +0.000 A 
BRANCH  10  18
ATOM     17  C   UNL     1       7.718   5.744  19.346  0.00  0.00    +0.000 C 
ATOM     18  O   UNL     1       6.743   4.717  19.162  0.00  0.00    +0.000 OA
ENDBRANCH  10  18
ENDBRANCH   1  16
BRANCH   4  19
ATOM     19  C   UNL     1       1.834   7.872  19.890  0.00  0.00    +0.000 A 
ATOM     20  C   UNL     1       1.924   7.893  18.494  0.00  0.00    +0.000 A 
ATOM     21  C   UNL     1       1.705   9.075  17.780  0.00  0.00    +0.000 A 
ATOM     22  C   UNL     1       1.378  10.246  18.454  0.00  0.00    +0.000 A 
ATOM     23  C   UNL     1       1.239  10.245  19.849  0.00  0.00    +0.000 A 
ATOM     24  C   UNL     1       1.476   9.049  20.551  0.00  0.00    +0.000 A 
BRANCH  23  25
ATOM     25  C   UNL     1       0.870  11.513  20.577  0.00  0.00    +0.000 C 
BRANCH  25  26
ATOM     26  S   UNL     1      -0.876  11.480  20.993  0.00  0.00    +0.000 S 
ATOM     27  N   UNL     1      -1.688  11.312  19.691  0.00  0.00    +0.000 NA
ATOM     28  O   UNL     1      -1.055  10.668  22.178  0.00  0.00    +0.000 OA
ATOM     29  H   UNL     1      -1.551  10.371  19.310  0.00  0.00    +0.000 HD
BRANCH  26  30
ATOM     30  C   UNL     1      -1.192  13.213  21.495  0.00  0.00    +0.000 C 
ATOM     31  C   UNL     1      -1.058  13.424  22.982  0.00  0.00    +0.000 C 
ATOM     32  C   UNL     1      -0.006  13.955  22.050  0.00  0.00    +0.000 C 
ENDBRANCH  26  30
ENDBRANCH  25  26
ENDBRANCH  23  25
ENDBRANCH   4  19
TORSDOF 6
ENDMDL
