MODEL 1
REMARK VINA RESULT:      -7.4      0.000      0.000
REMARK  Name = 
REMARK  6 active torsions:
REMARK  status: ('A' for Active; 'I' for Inactive)
REMARK    1  A    between atoms: C_1  and  N_2
REMARK    2  A    between atoms: N_2  and  C_3
REMARK    3  A    between atoms: N_2  and  C_4
REMARK    4  A    between atoms: C_4  and  C_5
REMARK    5  A    between atoms: C_8  and  C_9
REMARK    6  A    between atoms: N_15  and  C_16
REMARK                            x       y       z     vdW  Elec       q    Type
REMARK                         _______ _______ _______ _____ _____    ______ ____
ROOT
ATOM      1  C   UNL     1       2.220   6.773  20.094  0.00  0.00    +0.000 A 
ATOM      2  N   UNL     1       3.123   6.461  19.173  0.00  0.00    +0.000 NA
ATOM      3  C   UNL     1       3.337   5.150  19.397  0.00  0.00    +0.000 A 
ATOM      4  C   UNL     1       2.617   4.633  20.406  0.00  0.00    +0.000 A 
ATOM      5  C   UNL     1       2.989   3.266  20.425  0.00  0.00    +0.000 A 
ATOM      6  N   UNL     1       3.896   2.918  19.481  0.00  0.00    +0.000 NA
ATOM      7  N   UNL     1       4.112   4.145  18.855  0.00  0.00    +0.000 N 
ATOM      8  N   UNL     1       1.898   5.685  20.898  0.00  0.00    +0.000 N 
ATOM      9  H   UNL     1       1.256   5.662  21.677  0.00  0.00    +0.000 HD
ENDROOT
BRANCH   7  10
ATOM     10  C   UNL     1       5.061   4.275  17.799  0.00  0.00    +0.000 A 
ATOM     11  C   UNL     1       6.392   4.604  18.088  0.00  0.00    +0.000 A 
ATOM     12  C   UNL     1       7.317   4.750  17.050  0.00  0.00    +0.000 A 
ATOM     13  C   UNL     1       6.920   4.575  15.723  0.00  0.00    +0.000 A 
ATOM     14  C   UNL     1       5.600   4.245  15.432  0.00  0.00    +0.000 A 
ATOM     15  C   UNL     1       4.673   4.092  16.463  0.00  0.00    +0.000 A 
ENDBRANCH   7  10
BRANCH   1  19
ATOM     16  C   UNL     1       0.921  10.220  19.532  0.00  0.00    +0.000 A 
ATOM     17  C   UNL     1       0.627  10.219  20.884  0.00  0.00    +0.000 A 
ATOM     18  S   UNL     1       1.065   8.756  21.657  0.00  0.00    +0.000 S 
ATOM     19  C   UNL     1       1.653   8.086  20.202  0.00  0.00    +0.000 A 
ATOM     20  C   UNL     1       1.505   8.969  19.151  0.00  0.00    +0.000 A 
BRANCH  16  21
ATOM     21  C   UNL     1       0.684  11.358  18.577  0.00  0.00    +0.000 C 
BRANCH  21  23
ATOM     22  C   UNL     1      -0.356  13.558  18.723  0.00  0.00    +0.000 C 
ATOM     23  N   UNL     1      -0.522  12.117  18.950  0.00  0.00    +0.000 NA
ATOM     24  C   UNL     1      -1.665  11.631  18.172  0.00  0.00    +0.000 C 
ENDBRANCH  21  23
ENDBRANCH  16  21
ENDBRANCH   1  19
TORSDOF 4
ENDMDL
MODEL 2
REMARK VINA RESULT:      -7.3      0.631      1.396
REMARK  Name = 
REMARK  6 active torsions:
REMARK  status: ('A' for Active; 'I' for Inactive)
REMARK    1  A    between atoms: C_1  and  N_2
REMARK    2  A    between atoms: N_2  and  C_3
REMARK    3  A    between atoms: N_2  and  C_4
REMARK    4  A    between atoms: C_4  and  C_5
REMARK    5  A    between atoms: C_8  and  C_9
REMARK    6  A    between atoms: N_15  and  C_16
REMARK                            x       y       z     vdW  Elec       q    Type
REMARK                         _______ _______ _______ _____ _____    ______ ____
ROOT
ATOM      1  C   UNL     1       2.214   6.766  20.129  0.00  0.00    +0.000 A 
ATOM      2  N   UNL     1       3.117   6.468  19.203  0.00  0.00    +0.000 NA
ATOM      3  C   UNL     1       3.335   5.155  19.412  0.00  0.00    +0.000 A 
ATOM      4  C   UNL     1       2.618   4.625  20.416  0.00  0.00    +0.000 A 
ATOM      5  C   UNL     1       2.994   3.259  20.419  0.00  0.00    +0.000 A 
ATOM      6  N   UNL     1       3.900   2.924  19.469  0.00  0.00    +0.000 NA
ATOM      7  N   UNL     1       4.112   4.158  18.857  0.00  0.00    +0.000 N 
ATOM      8  N   UNL     1       1.898   5.668  20.921  0.00  0.00    +0.000 N 
ATOM      9  H   UNL     1       1.257   5.635  21.701  0.00  0.00    +0.000 HD
ENDROOT
BRANCH   7  10
ATOM     10  C   UNL     1       5.058   4.304  17.801  0.00  0.00    +0.000 A 
ATOM     11  C   UNL     1       4.661   4.114  16.471  0.00  0.00    +0.000 A 
ATOM     12  C   UNL     1       5.595   4.238  15.438  0.00  0.00    +0.000 A 
ATOM     13  C   UNL     1       6.926   4.546  15.725  0.00  0.00    +0.000 A 
ATOM     14  C   UNL     1       7.324   4.738  17.044  0.00  0.00    +0.000 A 
ATOM     15  C   UNL     1       6.396   4.622  18.079  0.00  0.00    +0.000 A 
ENDBRANCH   7  10
BRANCH   1  19
ATOM     16  C   UNL     1       0.841  10.189  19.597  0.00  0.00    +0.000 A 
ATOM     17  C   UNL     1       0.651  10.215  20.967  0.00  0.00    +0.000 A 
ATOM     18  S   UNL     1       1.161   8.772  21.734  0.00  0.00    +0.000 S 
ATOM     19  C   UNL     1       1.643   8.076  20.252  0.00  0.00    +0.000 A 
ATOM     20  C   UNL     1       1.407   8.936  19.198  0.00  0.00    +0.000 A 
BRANCH  16  21
ATOM     21  C   UNL     1       0.520  11.305  18.639  0.00  0.00    +0.000 C 
BRANCH  21  23
ATOM     22  C   UNL     1       2.493  12.671  18.209  0.00  0.00    +0.000 C 
ATOM     23  N   UNL     1       1.259  12.530  18.991  0.00  0.00    +0.000 NA
ATOM     24  C   UNL     1       0.403  13.698  18.761  0.00  0.00    +0.000 C 
ENDBRANCH  21  23
ENDBRANCH  16  21
ENDBRANCH   1  19
TORSDOF 4
ENDMDL
MODEL 3
REMARK VINA RESULT:      -7.2      1.496      1.816
REMARK  Name = 
REMARK  6 active torsions:
REMARK  status: ('A' for Active; 'I' for Inactive)
REMARK    1  A    between atoms: C_1  and  N_2
REMARK    2  A    between atoms: N_2  and  C_3
REMARK    3  A    between atoms: N_2  and  C_4
REMARK    4  A    between atoms: C_4  and  C_5
REMARK    5  A    between atoms: C_8  and  C_9
REMARK    6  A    between atoms: N_15  and  C_16
REMARK                            x       y       z     vdW  Elec       q    Type
REMARK                         _______ _______ _______ _____ _____    ______ ____
ROOT
ATOM      1  C   UNL     1       2.167   7.312  19.546  0.00  0.00    +0.000 A 
ATOM      2  N   UNL     1       3.087   6.838  18.714  0.00  0.00    +0.000 NA
ATOM      3  C   UNL     1       3.309   5.599  19.193  0.00  0.00    +0.000 A 
ATOM      4  C   UNL     1       2.579   5.279  20.273  0.00  0.00    +0.000 A 
ATOM      5  C   UNL     1       2.964   3.947  20.563  0.00  0.00    +0.000 A 
ATOM      6  N   UNL     1       3.887   3.432  19.716  0.00  0.00    +0.000 NA
ATOM      7  N   UNL     1       4.101   4.516  18.866  0.00  0.00    +0.000 N 
ATOM      8  N   UNL     1       1.844   6.398  20.542  0.00  0.00    +0.000 N 
ATOM      9  H   UNL     1       1.191   6.520  21.303  0.00  0.00    +0.000 HD
ENDROOT
BRANCH   7  10
ATOM     10  C   UNL     1       5.064   4.450  17.817  0.00  0.00    +0.000 A 
ATOM     11  C   UNL     1       6.416   4.700  18.088  0.00  0.00    +0.000 A 
ATOM     12  C   UNL     1       7.356   4.654  17.054  0.00  0.00    +0.000 A 
ATOM     13  C   UNL     1       6.955   4.363  15.750  0.00  0.00    +0.000 A 
ATOM     14  C   UNL     1       5.614   4.111  15.477  0.00  0.00    +0.000 A 
ATOM     15  C   UNL     1       4.671   4.149  16.504  0.00  0.00    +0.000 A 
ENDBRANCH   7  10
BRANCH   1  19
ATOM     16  C   UNL     1       0.245  10.489  19.863  0.00  0.00    +0.000 A 
ATOM     17  C   UNL     1       0.875  10.866  18.690  0.00  0.00    +0.000 A 
ATOM     18  S   UNL     1       1.937   9.665  18.091  0.00  0.00    +0.000 S 
ATOM     19  C   UNL     1       1.586   8.614  19.389  0.00  0.00    +0.000 A 
ATOM     20  C   UNL     1       0.679   9.184  20.260  0.00  0.00    +0.000 A 
BRANCH  16  21
ATOM     21  C   UNL     1      -0.761  11.305  20.628  0.00  0.00    +0.000 C 
BRANCH  21  23
ATOM     22  C   UNL     1      -0.021  13.241  21.911  0.00  0.00    +0.000 C 
ATOM     23  N   UNL     1      -0.194  11.784  21.900  0.00  0.00    +0.000 NA
ATOM     24  C   UNL     1      -1.075  11.392  23.005  0.00  0.00    +0.000 C 
ENDBRANCH  21  23
ENDBRANCH  16  21
ENDBRANCH   1  19
TORSDOF 4
ENDMDL
MODEL 4
REMARK VINA RESULT:      -7.2      1.305      1.945
REMARK  Name = 
REMARK  6 active torsions:
REMARK  status: ('A' for Active; 'I' for Inactive)
REMARK    1  A    between atoms: C_1  and  N_2
REMARK    2  A    between atoms: N_2  and  C_3
REMARK    3  A    between atoms: N_2  and  C_4
REMARK    4  A    between atoms: C_4  and  C_5
REMARK    5  A    between atoms: C_8  and  C_9
REMARK    6  A    between atoms: N_15  and  C_16
REMARK                            x       y       z     vdW  Elec       q    Type
REMARK                         _______ _______ _______ _____ _____    ______ ____
ROOT
ATOM      1  C   UNL     1       2.202   6.973  19.853  0.00  0.00    +0.000 A 
ATOM      2  N   UNL     1       3.117   6.605  18.964  0.00  0.00    +0.000 NA
ATOM      3  C   UNL     1       3.345   5.318  19.288  0.00  0.00    +0.000 A 
ATOM      4  C   UNL     1       2.623   4.868  20.327  0.00  0.00    +0.000 A 
ATOM      5  C   UNL     1       3.012   3.512  20.451  0.00  0.00    +0.000 A 
ATOM      6  N   UNL     1       3.930   3.105  19.542  0.00  0.00    +0.000 NA
ATOM      7  N   UNL     1       4.136   4.284  18.828  0.00  0.00    +0.000 N 
ATOM      8  N   UNL     1       1.888   5.945  20.734  0.00  0.00    +0.000 N 
ATOM      9  H   UNL     1       1.240   5.972  21.508  0.00  0.00    +0.000 HD
ENDROOT
BRANCH   7  10
ATOM     10  C   UNL     1       5.092   4.348  17.772  0.00  0.00    +0.000 A 
ATOM     11  C   UNL     1       4.692   4.122  16.448  0.00  0.00    +0.000 A 
ATOM     12  C   UNL     1       5.634   4.165  15.416  0.00  0.00    +0.000 A 
ATOM     13  C   UNL     1       6.975   4.429  15.697  0.00  0.00    +0.000 A 
ATOM     14  C   UNL     1       7.376   4.657  17.010  0.00  0.00    +0.000 A 
ATOM     15  C   UNL     1       6.441   4.621  18.044  0.00  0.00    +0.000 A 
ENDBRANCH   7  10
BRANCH   1  19
ATOM     16  C   UNL     1       0.538  10.199  20.694  0.00  0.00    +0.000 A 
ATOM     17  C   UNL     1       0.743  10.532  19.367  0.00  0.00    +0.000 A 
ATOM     18  S   UNL     1       1.528   9.293  18.485  0.00  0.00    +0.000 S 
ATOM     19  C   UNL     1       1.619   8.283  19.858  0.00  0.00    +0.000 A 
ATOM     20  C   UNL     1       1.063   8.895  20.964  0.00  0.00    +0.000 A 
BRANCH  16  21
ATOM     21  C   UNL     1      -0.144  11.057  21.725  0.00  0.00    +0.000 C 
BRANCH  21  23
ATOM     22  C   UNL     1      -2.066  12.370  20.998  0.00  0.00    +0.000 C 
ATOM     23  N   UNL     1      -0.605  12.325  21.134  0.00  0.00    +0.000 NA
ATOM     24  C   UNL     1      -0.161  13.443  21.973  0.00  0.00    +0.000 C 
ENDBRANCH  21  23
ENDBRANCH  16  21
ENDBRANCH   1  19
TORSDOF 4
ENDMDL
MODEL 5
REMARK VINA RESULT:      -7.2      3.093      7.939
REMARK  Name = 
REMARK  6 active torsions:
REMARK  status: ('A' for Active; 'I' for Inactive)
REMARK    1  A    between atoms: C_1  and  N_2
REMARK    2  A    between atoms: N_2  and  C_3
REMARK    3  A    between atoms: N_2  and  C_4
REMARK    4  A    between atoms: C_4  and  C_5
REMARK    5  A    between atoms: C_8  and  C_9
REMARK    6  A    between atoms: N_15  and  C_16
REMARK                            x       y       z     vdW  Elec       q    Type
REMARK                         _______ _______ _______ _____ _____    ______ ____
ROOT
ATOM      1  C   UNL     1       4.850   4.458  16.947  0.00  0.00    +0.000 A 
ATOM      2  N   UNL     1       4.205   5.537  17.374  0.00  0.00    +0.000 NA
ATOM      3  C   UNL     1       3.556   5.083  18.464  0.00  0.00    +0.000 A 
ATOM      4  C   UNL     1       3.763   3.784  18.734  0.00  0.00    +0.000 A 
ATOM      5  C   UNL     1       3.013   3.557  19.915  0.00  0.00    +0.000 A 
ATOM      6  N   UNL     1       2.361   4.649  20.384  0.00  0.00    +0.000 NA
ATOM      7  N   UNL     1       2.712   5.599  19.426  0.00  0.00    +0.000 N 
ATOM      8  N   UNL     1       4.585   3.345  17.736  0.00  0.00    +0.000 N 
ATOM      9  H   UNL     1       4.934   2.405  17.614  0.00  0.00    +0.000 HD
ENDROOT
BRANCH   7  10
ATOM     10  C   UNL     1       2.196   6.927  19.484  0.00  0.00    +0.000 A 
ATOM     11  C   UNL     1       1.649   7.417  20.677  0.00  0.00    +0.000 A 
ATOM     12  C   UNL     1       1.126   8.712  20.726  0.00  0.00    +0.000 A 
ATOM     13  C   UNL     1       1.143   9.522  19.589  0.00  0.00    +0.000 A 
ATOM     14  C   UNL     1       1.688   9.041  18.403  0.00  0.00    +0.000 A 
ATOM     15  C   UNL     1       2.217   7.751  18.348  0.00  0.00    +0.000 A 
ENDBRANCH   7  10
BRANCH   1  19
ATOM     16  C   UNL     1       6.455   4.156  13.597  0.00  0.00    +0.000 A 
ATOM     17  C   UNL     1       7.559   4.745  14.187  0.00  0.00    +0.000 A 
ATOM     18  S   UNL     1       7.315   5.104  15.843  0.00  0.00    +0.000 S 
ATOM     19  C   UNL     1       5.724   4.485  15.810  0.00  0.00    +0.000 A 
ATOM     20  C   UNL     1       5.396   4.023  14.551  0.00  0.00    +0.000 A 
BRANCH  16  21
ATOM     21  C   UNL     1       6.356   3.699  12.167  0.00  0.00    +0.000 C 
BRANCH  21  23
ATOM     22  C   UNL     1       4.172   3.124  11.249  0.00  0.00    +0.000 C 
ATOM     23  N   UNL     1       5.330   2.653  12.018  0.00  0.00    +0.000 NA
ATOM     24  C   UNL     1       5.916   1.487  11.348  0.00  0.00    +0.000 C 
ENDBRANCH  21  23
ENDBRANCH  16  21
ENDBRANCH   1  19
TORSDOF 4
ENDMDL
MODEL 6
REMARK VINA RESULT:      -7.1      3.099      7.964
REMARK  Name = 
REMARK  6 active torsions:
REMARK  status: ('A' for Active; 'I' for Inactive)
REMARK    1  A    between atoms: C_1  and  N_2
REMARK    2  A    between atoms: N_2  and  C_3
REMARK    3  A    between atoms: N_2  and  C_4
REMARK    4  A    between atoms: C_4  and  C_5
REMARK    5  A    between atoms: C_8  and  C_9
REMARK    6  A    between atoms: N_15  and  C_16
REMARK                            x       y       z     vdW  Elec       q    Type
REMARK                         _______ _______ _______ _____ _____    ______ ____
ROOT
ATOM      1  C   UNL     1       4.831   4.382  16.933  0.00  0.00    +0.000 A 
ATOM      2  N   UNL     1       4.182   5.443  17.399  0.00  0.00    +0.000 NA
ATOM      3  C   UNL     1       3.540   4.949  18.475  0.00  0.00    +0.000 A 
ATOM      4  C   UNL     1       3.754   3.644  18.701  0.00  0.00    +0.000 A 
ATOM      5  C   UNL     1       3.011   3.374  19.877  0.00  0.00    +0.000 A 
ATOM      6  N   UNL     1       2.354   4.445  20.384  0.00  0.00    +0.000 NA
ATOM      7  N   UNL     1       2.696   5.429  19.457  0.00  0.00    +0.000 N 
ATOM      8  N   UNL     1       4.574   3.242  17.686  0.00  0.00    +0.000 N 
ATOM      9  H   UNL     1       4.929   2.309  17.532  0.00  0.00    +0.000 HD
ENDROOT
BRANCH   7  10
ATOM     10  C   UNL     1       2.173   6.751  19.560  0.00  0.00    +0.000 A 
ATOM     11  C   UNL     1       2.205   7.608  18.452  0.00  0.00    +0.000 A 
ATOM     12  C   UNL     1       1.709   8.910  18.561  0.00  0.00    +0.000 A 
ATOM     13  C   UNL     1       1.186   9.366  19.772  0.00  0.00    +0.000 A 
ATOM     14  C   UNL     1       1.149   8.517  20.874  0.00  0.00    +0.000 A 
ATOM     15  C   UNL     1       1.637   7.214  20.771  0.00  0.00    +0.000 A 
ENDBRANCH   7  10
BRANCH   1  19
ATOM     16  C   UNL     1       6.455   4.132  13.588  0.00  0.00    +0.000 A 
ATOM     17  C   UNL     1       7.509   4.818  14.163  0.00  0.00    +0.000 A 
ATOM     18  S   UNL     1       7.238   5.193  15.811  0.00  0.00    +0.000 S 
ATOM     19  C   UNL     1       5.700   4.452  15.795  0.00  0.00    +0.000 A 
ATOM     20  C   UNL     1       5.408   3.939  14.547  0.00  0.00    +0.000 A 
BRANCH  16  21
ATOM     21  C   UNL     1       6.391   3.637  12.169  0.00  0.00    +0.000 C 
BRANCH  21  23
ATOM     22  C   UNL     1       4.189   3.134  11.253  0.00  0.00    +0.000 C 
ATOM     23  N   UNL     1       5.336   2.621  12.011  0.00  0.00    +0.000 NA
ATOM     24  C   UNL     1       5.887   1.449  11.324  0.00  0.00    +0.000 C 
ENDBRANCH  21  23
ENDBRANCH  16  21
ENDBRANCH   1  19
TORSDOF 4
ENDMDL
MODEL 7
REMARK VINA RESULT:      -7.1      1.490      2.136
REMARK  Name = 
REMARK  6 active torsions:
REMARK  status: ('A' for Active; 'I' for Inactive)
REMARK    1  A    between atoms: C_1  and  N_2
REMARK    2  A    between atoms: N_2  and  C_3
REMARK    3  A    between atoms: N_2  and  C_4
REMARK    4  A    between atoms: C_4  and  C_5
REMARK    5  A    between atoms: C_8  and  C_9
REMARK    6  A    between atoms: N_15  and  C_16
REMARK                            x       y       z     vdW  Elec       q    Type
REMARK                         _______ _______ _______ _____ _____    ______ ____
ROOT
ATOM      1  C   UNL     1       2.324   6.997  19.651  0.00  0.00    +0.000 A 
ATOM      2  N   UNL     1       3.213   6.621  18.739  0.00  0.00    +0.000 NA
ATOM      3  C   UNL     1       3.451   5.337  19.068  0.00  0.00    +0.000 A 
ATOM      4  C   UNL     1       2.760   4.897  20.132  0.00  0.00    +0.000 A 
ATOM      5  C   UNL     1       3.153   3.542  20.258  0.00  0.00    +0.000 A 
ATOM      6  N   UNL     1       4.044   3.127  19.325  0.00  0.00    +0.000 NA
ATOM      7  N   UNL     1       4.229   4.300  18.594  0.00  0.00    +0.000 N 
ATOM      8  N   UNL     1       2.036   5.977  20.550  0.00  0.00    +0.000 N 
ATOM      9  H   UNL     1       1.411   6.012  21.343  0.00  0.00    +0.000 HD
ENDROOT
BRANCH   7  10
ATOM     10  C   UNL     1       5.153   4.353  17.510  0.00  0.00    +0.000 A 
ATOM     11  C   UNL     1       6.505   4.630  17.753  0.00  0.00    +0.000 A 
ATOM     12  C   UNL     1       7.406   4.702  16.687  0.00  0.00    +0.000 A 
ATOM     13  C   UNL     1       6.965   4.502  15.377  0.00  0.00    +0.000 A 
ATOM     14  C   UNL     1       5.625   4.223  15.133  0.00  0.00    +0.000 A 
ATOM     15  C   UNL     1       4.721   4.144  16.192  0.00  0.00    +0.000 A 
ENDBRANCH   7  10
BRANCH   1  19
ATOM     16  C   UNL     1       0.759  10.264  20.524  0.00  0.00    +0.000 A 
ATOM     17  C   UNL     1       0.803  10.531  19.167  0.00  0.00    +0.000 A 
ATOM     18  S   UNL     1       1.482   9.248  18.260  0.00  0.00    +0.000 S 
ATOM     19  C   UNL     1       1.740   8.307  19.661  0.00  0.00    +0.000 A 
ATOM     20  C   UNL     1       1.318   8.974  20.793  0.00  0.00    +0.000 A 
BRANCH  16  21
ATOM     21  C   UNL     1       0.201  11.173  21.585  0.00  0.00    +0.000 C 
BRANCH  21  23
ATOM     22  C   UNL     1      -0.302   9.649  23.420  0.00  0.00    +0.000 C 
ATOM     23  N   UNL     1      -0.856  10.496  22.357  0.00  0.00    +0.000 NA
ATOM     24  C   UNL     1      -1.746  11.499  22.949  0.00  0.00    +0.000 C 
ENDBRANCH  21  23
ENDBRANCH  16  21
ENDBRANCH   1  19
TORSDOF 4
ENDMDL
MODEL 8
REMARK VINA RESULT:      -7.0      2.195      8.011
REMARK  Name = 
REMARK  6 active torsions:
REMARK  status: ('A' for Active; 'I' for Inactive)
REMARK    1  A    between atoms: C_1  and  N_2
REMARK    2  A    between atoms: N_2  and  C_3
REMARK    3  A    between atoms: N_2  and  C_4
REMARK    4  A    between atoms: C_4  and  C_5
REMARK    5  A    between atoms: C_8  and  C_9
REMARK    6  A    between atoms: N_15  and  C_16
REMARK                            x       y       z     vdW  Elec       q    Type
REMARK                         _______ _______ _______ _____ _____    ______ ____
ROOT
ATOM      1  C   UNL     1       2.105   7.409  19.685  0.00  0.00    +0.000 A 
ATOM      2  N   UNL     1       1.683   8.598  19.269  0.00  0.00    +0.000 NA
ATOM      3  C   UNL     1       1.222   9.162  20.403  0.00  0.00    +0.000 A 
ATOM      4  C   UNL     1       1.335   8.391  21.495  0.00  0.00    +0.000 A 
ATOM      5  C   UNL     1       0.821   9.199  22.539  0.00  0.00    +0.000 A 
ATOM      6  N   UNL     1       0.402  10.425  22.144  0.00  0.00    +0.000 NA
ATOM      7  N   UNL     1       0.653  10.363  20.774  0.00  0.00    +0.000 N 
ATOM      8  N   UNL     1       1.884   7.224  21.045  0.00  0.00    +0.000 N 
ATOM      9  H   UNL     1       2.096   6.406  21.598  0.00  0.00    +0.000 HD
ENDROOT
BRANCH   7  10
ATOM     10  C   UNL     1       0.309  11.446  19.913  0.00  0.00    +0.000 A 
ATOM     11  C   UNL     1      -0.834  11.367  19.107  0.00  0.00    +0.000 A 
ATOM     12  C   UNL     1      -1.159  12.422  18.249  0.00  0.00    +0.000 A 
ATOM     13  C   UNL     1      -0.347  13.556  18.188  0.00  0.00    +0.000 A 
ATOM     14  C   UNL     1       0.787  13.640  18.990  0.00  0.00    +0.000 A 
ATOM     15  C   UNL     1       1.114  12.594  19.852  0.00  0.00    +0.000 A 
ENDBRANCH   7  10
BRANCH   1  19
ATOM     16  C   UNL     1       4.183   5.636  17.151  0.00  0.00    +0.000 A 
ATOM     17  C   UNL     1       3.465   4.507  17.503  0.00  0.00    +0.000 A 
ATOM     18  S   UNL     1       2.296   4.815  18.716  0.00  0.00    +0.000 S 
ATOM     19  C   UNL     1       2.727   6.464  18.805  0.00  0.00    +0.000 A 
ATOM     20  C   UNL     1       3.750   6.760  17.925  0.00  0.00    +0.000 A 
BRANCH  16  21
ATOM     21  C   UNL     1       5.261   5.706  16.104  0.00  0.00    +0.000 C 
BRANCH  21  23
ATOM     22  C   UNL     1       6.383   4.095  14.660  0.00  0.00    +0.000 C 
ATOM     23  N   UNL     1       6.015   4.443  16.038  0.00  0.00    +0.000 NA
ATOM     24  C   UNL     1       7.230   4.556  16.851  0.00  0.00    +0.000 C 
ENDBRANCH  21  23
ENDBRANCH  16  21
ENDBRANCH   1  19
TORSDOF 4
ENDMDL
MODEL 9
REMARK VINA RESULT:      -7.0      2.173      7.952
REMARK  Name = 
REMARK  6 active torsions:
REMARK  status: ('A' for Active; 'I' for Inactive)
REMARK    1  A    between atoms: C_1  and  N_2
REMARK    2  A    between atoms: N_2  and  C_3
REMARK    3  A    between atoms: N_2  and  C_4
REMARK    4  A    between atoms: C_4  and  C_5
REMARK    5  A    between atoms: C_8  and  C_9
REMARK    6  A    between atoms: N_15  and  C_16
REMARK                            x       y       z     vdW  Elec       q    Type
REMARK                         _______ _______ _______ _____ _____    ______ ____
ROOT
ATOM      1  C   UNL     1       2.087   7.392  19.721  0.00  0.00    +0.000 A 
ATOM      2  N   UNL     1       1.688   8.582  19.288  0.00  0.00    +0.000 NA
ATOM      3  C   UNL     1       1.210   9.159  20.407  0.00  0.00    +0.000 A 
ATOM      4  C   UNL     1       1.289   8.393  21.507  0.00  0.00    +0.000 A 
ATOM      5  C   UNL     1       0.761   9.214  22.534  0.00  0.00    +0.000 A 
ATOM      6  N   UNL     1       0.365  10.443  22.122  0.00  0.00    +0.000 NA
ATOM      7  N   UNL     1       0.646  10.369  20.759  0.00  0.00    +0.000 N 
ATOM      8  N   UNL     1       1.834   7.218  21.076  0.00  0.00    +0.000 N 
ATOM      9  H   UNL     1       2.024   6.401  21.639  0.00  0.00    +0.000 HD
ENDROOT
BRANCH   7  10
ATOM     10  C   UNL     1       0.334  11.451  19.884  0.00  0.00    +0.000 A 
ATOM     11  C   UNL     1       1.209  12.541  19.775  0.00  0.00    +0.000 A 
ATOM     12  C   UNL     1       0.892  13.609  18.931  0.00  0.00    +0.000 A 
ATOM     13  C   UNL     1      -0.295  13.599  18.197  0.00  0.00    +0.000 A 
ATOM     14  C   UNL     1      -1.165  12.518  18.300  0.00  0.00    +0.000 A 
ATOM     15  C   UNL     1      -0.852  11.445  19.136  0.00  0.00    +0.000 A 
ENDBRANCH   7  10
BRANCH   1  19
ATOM     16  C   UNL     1       4.156   5.590  17.199  0.00  0.00    +0.000 A 
ATOM     17  C   UNL     1       3.487   4.453  17.615  0.00  0.00    +0.000 A 
ATOM     18  S   UNL     1       2.342   4.769  18.847  0.00  0.00    +0.000 S 
ATOM     19  C   UNL     1       2.718   6.433  18.860  0.00  0.00    +0.000 A 
ATOM     20  C   UNL     1       3.705   6.728  17.941  0.00  0.00    +0.000 A 
BRANCH  16  21
ATOM     21  C   UNL     1       5.202   5.655  16.120  0.00  0.00    +0.000 C 
BRANCH  21  23
ATOM     22  C   UNL     1       6.341   4.049  14.683  0.00  0.00    +0.000 C 
ATOM     23  N   UNL     1       5.977   4.404  16.060  0.00  0.00    +0.000 NA
ATOM     24  C   UNL     1       7.195   4.545  16.863  0.00  0.00    +0.000 C 
ENDBRANCH  21  23
ENDBRANCH  16  21
ENDBRANCH   1  19
TORSDOF 4
ENDMDL
