MODEL 1
REMARK VINA RESULT:      -7.8      0.000      0.000
REMARK  Name = 
REMARK  7 active torsions:
REMARK  status: ('A' for Active; 'I' for Inactive)
REMARK    1  A    between atoms: C_2  and  O_3
REMARK    2  A    between atoms: C_2  and  C_27
REMARK    3  A    between atoms: O_3  and  C_4
REMARK    4  A    between atoms: C_4  and  C_5
REMARK    5  A    between atoms: N_7  and  C_8
REMARK    6  A    between atoms: C_11  and  N_12
REMARK    7  A    between atoms: C_30  and  C_31
REMARK                            x       y       z     vdW  Elec       q    Type
REMARK                         _______ _______ _______ _____ _____    ______ ____
ROOT
ATOM      1  C   UNL     1      -1.141  11.351  19.539  0.00  0.00    +0.000 C 
ATOM      2  C   UNL     1      -2.282  12.078  20.284  0.00  0.00    +0.000 C 
ATOM      3  O   UNL     1      -2.257  12.525  21.419  0.00  0.00    +0.000 OA
ATOM      4  C   UNL     1      -3.460  12.166  19.411  0.00  0.00    +0.000 A 
ATOM      5  C   UNL     1      -4.683  12.772  19.650  0.00  0.00    +0.000 A 
ATOM      6  C   UNL     1      -5.671  12.669  18.661  0.00  0.00    +0.000 A 
ATOM      7  C   UNL     1      -5.419  11.979  17.460  0.00  0.00    +0.000 A 
ATOM      8  C   UNL     1      -4.177  11.380  17.237  0.00  0.00    +0.000 A 
ATOM      9  C   UNL     1      -3.216  11.489  18.229  0.00  0.00    +0.000 A 
ATOM     10  C   UNL     1      -1.878  10.893  18.259  0.00  0.00    +0.000 C 
ATOM     11  O   UNL     1      -1.519  10.090  17.417  0.00  0.00    +0.000 OA
ENDROOT
BRANCH   1  12
ATOM     12  C   UNL     1      -0.076  12.436  19.229  0.00  0.00    +0.000 C 
ATOM     13  O   UNL     1       0.480  12.451  18.130  0.00  0.00    +0.000 OA
ATOM     14  N   UNL     1       0.112  13.383  20.239  0.00  0.00    +0.000 N 
ATOM     15  H   UNL     1      -0.315  13.189  21.138  0.00  0.00    +0.000 HD
BRANCH  14  16
ATOM     16  C   UNL     1       1.023  14.465  20.204  0.00  0.00    +0.000 A 
ATOM     17  C   UNL     1       0.725  15.677  19.582  0.00  0.00    +0.000 A 
ATOM     18  C   UNL     1       1.669  16.705  19.524  0.00  0.00    +0.000 A 
ATOM     19  C   UNL     1       2.928  16.522  20.098  0.00  0.00    +0.000 A 
ATOM     20  C   UNL     1       3.233  15.325  20.758  0.00  0.00    +0.000 A 
ATOM     21  C   UNL     1       2.274  14.304  20.819  0.00  0.00    +0.000 A 
BRANCH  19  22
ATOM     22  N   UNL     1       3.929  17.591  19.998  0.00  0.00    +0.000 N 
ATOM     23  O   UNL     1       4.902  17.402  19.251  0.00  0.00    +0.000 OA
ATOM     24  O   UNL     1       3.745  18.617  20.666  0.00  0.00    +0.000 OA
ENDBRANCH  19  22
ENDBRANCH  14  16
ENDBRANCH   1  12
BRANCH   1  25
ATOM     25  O   UNL     1      -0.708  10.239  20.330  0.00  0.00    +0.000 OA
BRANCH  25  27
ATOM     26  O   UNL     1       1.212  10.843  21.423  0.00  0.00    +0.000 OA
ATOM     27  C   UNL     1       0.626  10.182  20.583  0.00  0.00    +0.000 C 
BRANCH  27  28
ATOM     28  C   UNL     1       1.308   9.128  19.786  0.00  0.00    +0.000 A 
ATOM     29  C   UNL     1       1.629   7.923  20.430  0.00  0.00    +0.000 A 
ATOM     30  C   UNL     1       2.370   6.940  19.771  0.00  0.00    +0.000 A 
ATOM     31  C   UNL     1       2.801   7.144  18.453  0.00  0.00    +0.000 A 
ATOM     32  C   UNL     1       2.405   8.316  17.785  0.00  0.00    +0.000 A 
ATOM     33  C   UNL     1       1.663   9.303  18.445  0.00  0.00    +0.000 A 
BRANCH  31  34
ATOM     34  C   UNL     1       3.722   6.157  17.771  0.00  0.00    +0.000 C 
ATOM     35  F   UNL     1       4.300   6.645  16.637  0.00  0.00    +0.000 F 
ATOM     36  F   UNL     1       4.744   5.751  18.570  0.00  0.00    +0.000 F 
ATOM     37  F   UNL     1       3.066   5.025  17.394  0.00  0.00    +0.000 F 
ENDBRANCH  31  34
ENDBRANCH  27  28
ENDBRANCH  25  27
ENDBRANCH   1  25
TORSDOF 7
ENDMDL
MODEL 2
REMARK VINA RESULT:      -7.4      0.837      1.248
REMARK  Name = 
REMARK  7 active torsions:
REMARK  status: ('A' for Active; 'I' for Inactive)
REMARK    1  A    between atoms: C_2  and  O_3
REMARK    2  A    between atoms: C_2  and  C_27
REMARK    3  A    between atoms: O_3  and  C_4
REMARK    4  A    between atoms: C_4  and  C_5
REMARK    5  A    between atoms: N_7  and  C_8
REMARK    6  A    between atoms: C_11  and  N_12
REMARK    7  A    between atoms: C_30  and  C_31
REMARK                            x       y       z     vdW  Elec       q    Type
REMARK                         _______ _______ _______ _____ _____    ______ ____
ROOT
ATOM      1  C   UNL     1      -0.881  10.978  19.725  0.00  0.00    +0.000 C 
ATOM      2  C   UNL     1      -1.893  11.780  20.573  0.00  0.00    +0.000 C 
ATOM      3  O   UNL     1      -1.762  12.147  21.729  0.00  0.00    +0.000 OA
ATOM      4  C   UNL     1      -3.092  12.060  19.772  0.00  0.00    +0.000 A 
ATOM      5  C   UNL     1      -4.223  12.784  20.114  0.00  0.00    +0.000 A 
ATOM      6  C   UNL     1      -5.262  12.859  19.176  0.00  0.00    +0.000 A 
ATOM      7  C   UNL     1      -5.150  12.224  17.924  0.00  0.00    +0.000 A 
ATOM      8  C   UNL     1      -3.999  11.503  17.598  0.00  0.00    +0.000 A 
ATOM      9  C   UNL     1      -2.986  11.437  18.541  0.00  0.00    +0.000 A 
ATOM     10  C   UNL     1      -1.727  10.691  18.463  0.00  0.00    +0.000 C 
ATOM     11  O   UNL     1      -1.505   9.909  17.556  0.00  0.00    +0.000 OA
ENDROOT
BRANCH   1  12
ATOM     12  C   UNL     1       0.287  11.953  19.421  0.00  0.00    +0.000 C 
ATOM     13  O   UNL     1       0.894  11.866  18.354  0.00  0.00    +0.000 OA
ATOM     14  N   UNL     1       0.510  12.929  20.396  0.00  0.00    +0.000 N 
ATOM     15  H   UNL     1       0.025  12.816  21.280  0.00  0.00    +0.000 HD
BRANCH  14  16
ATOM     16  C   UNL     1       1.511  13.926  20.360  0.00  0.00    +0.000 A 
ATOM     17  C   UNL     1       1.376  15.099  19.618  0.00  0.00    +0.000 A 
ATOM     18  C   UNL     1       2.409  16.038  19.566  0.00  0.00    +0.000 A 
ATOM     19  C   UNL     1       3.593  15.805  20.268  0.00  0.00    +0.000 A 
ATOM     20  C   UNL     1       3.733  14.650  21.046  0.00  0.00    +0.000 A 
ATOM     21  C   UNL     1       2.686  13.719  21.100  0.00  0.00    +0.000 A 
BRANCH  19  22
ATOM     22  N   UNL     1       4.689  16.778  20.176  0.00  0.00    +0.000 N 
ATOM     23  O   UNL     1       4.433  17.890  19.688  0.00  0.00    +0.000 OA
ATOM     24  O   UNL     1       5.803  16.431  20.590  0.00  0.00    +0.000 OA
ENDBRANCH  19  22
ENDBRANCH  14  16
ENDBRANCH   1  12
BRANCH   1  25
ATOM     25  O   UNL     1      -0.545   9.775  20.423  0.00  0.00    +0.000 OA
BRANCH  25  27
ATOM     26  O   UNL     1       1.293  10.353  21.661  0.00  0.00    +0.000 OA
ATOM     27  C   UNL     1       0.753   9.664  20.812  0.00  0.00    +0.000 C 
BRANCH  27  28
ATOM     28  C   UNL     1       1.442   8.520  20.162  0.00  0.00    +0.000 A 
ATOM     29  C   UNL     1       1.857   8.675  18.829  0.00  0.00    +0.000 A 
ATOM     30  C   UNL     1       2.405   7.599  18.126  0.00  0.00    +0.000 A 
ATOM     31  C   UNL     1       2.552   6.351  18.745  0.00  0.00    +0.000 A 
ATOM     32  C   UNL     1       2.214   6.224  20.103  0.00  0.00    +0.000 A 
ATOM     33  C   UNL     1       1.662   7.300  20.809  0.00  0.00    +0.000 A 
BRANCH  31  34
ATOM     34  C   UNL     1       3.010   5.141  17.962  0.00  0.00    +0.000 C 
ATOM     35  F   UNL     1       3.805   5.449  16.899  0.00  0.00    +0.000 F 
ATOM     36  F   UNL     1       3.718   4.261  18.719  0.00  0.00    +0.000 F 
ATOM     37  F   UNL     1       1.962   4.438  17.450  0.00  0.00    +0.000 F 
ENDBRANCH  31  34
ENDBRANCH  27  28
ENDBRANCH  25  27
ENDBRANCH   1  25
TORSDOF 7
ENDMDL
MODEL 3
REMARK VINA RESULT:      -7.4      1.874      2.699
REMARK  Name = 
REMARK  7 active torsions:
REMARK  status: ('A' for Active; 'I' for Inactive)
REMARK    1  A    between atoms: C_2  and  O_3
REMARK    2  A    between atoms: C_2  and  C_27
REMARK    3  A    between atoms: O_3  and  C_4
REMARK    4  A    between atoms: C_4  and  C_5
REMARK    5  A    between atoms: N_7  and  C_8
REMARK    6  A    between atoms: C_11  and  N_12
REMARK    7  A    between atoms: C_30  and  C_31
REMARK                            x       y       z     vdW  Elec       q    Type
REMARK                         _______ _______ _______ _____ _____    ______ ____
ROOT
ATOM      1  C   UNL     1      -0.344  11.489  20.661  0.00  0.00    +0.000 C 
ATOM      2  C   UNL     1      -0.808  11.303  22.122  0.00  0.00    +0.000 C 
ATOM      3  O   UNL     1      -0.292  10.602  22.978  0.00  0.00    +0.000 OA
ATOM      4  C   UNL     1      -2.006  12.117  22.365  0.00  0.00    +0.000 A 
ATOM      5  C   UNL     1      -2.725  12.288  23.537  0.00  0.00    +0.000 A 
ATOM      6  C   UNL     1      -3.875  13.088  23.491  0.00  0.00    +0.000 A 
ATOM      7  C   UNL     1      -4.277  13.702  22.289  0.00  0.00    +0.000 A 
ATOM      8  C   UNL     1      -3.536  13.520  21.119  0.00  0.00    +0.000 A 
ATOM      9  C   UNL     1      -2.405  12.722  21.186  0.00  0.00    +0.000 A 
ATOM     10  C   UNL     1      -1.513  12.327  20.093  0.00  0.00    +0.000 C 
ATOM     11  O   UNL     1      -1.781  12.576  18.931  0.00  0.00    +0.000 OA
ENDROOT
BRANCH   1  12
ATOM     12  C   UNL     1       0.969  12.312  20.731  0.00  0.00    +0.000 C 
ATOM     13  O   UNL     1       1.921  11.889  21.386  0.00  0.00    +0.000 OA
ATOM     14  N   UNL     1       0.979  13.473  19.954  0.00  0.00    +0.000 N 
ATOM     15  H   UNL     1       0.093  13.773  19.561  0.00  0.00    +0.000 HD
BRANCH  14  16
ATOM     16  C   UNL     1       2.048  14.393  19.850  0.00  0.00    +0.000 A 
ATOM     17  C   UNL     1       2.191  15.478  20.715  0.00  0.00    +0.000 A 
ATOM     18  C   UNL     1       3.232  16.394  20.549  0.00  0.00    +0.000 A 
ATOM     19  C   UNL     1       4.146  16.224  19.508  0.00  0.00    +0.000 A 
ATOM     20  C   UNL     1       4.039  15.122  18.652  0.00  0.00    +0.000 A 
ATOM     21  C   UNL     1       2.997  14.202  18.834  0.00  0.00    +0.000 A 
BRANCH  19  22
ATOM     22  N   UNL     1       5.214  17.214  19.316  0.00  0.00    +0.000 N 
ATOM     23  O   UNL     1       5.119  18.290  19.927  0.00  0.00    +0.000 OA
ATOM     24  O   UNL     1       6.145  16.917  18.556  0.00  0.00    +0.000 OA
ENDBRANCH  19  22
ENDBRANCH  14  16
ENDBRANCH   1  12
BRANCH   1  25
ATOM     25  O   UNL     1      -0.260  10.204  20.036  0.00  0.00    +0.000 OA
BRANCH  25  27
ATOM     26  O   UNL     1       0.961  10.919  18.236  0.00  0.00    +0.000 OA
ATOM     27  C   UNL     1       0.695  10.078  19.077  0.00  0.00    +0.000 C 
BRANCH  27  28
ATOM     28  C   UNL     1       1.479   8.823  19.221  0.00  0.00    +0.000 A 
ATOM     29  C   UNL     1       2.235   8.392  18.120  0.00  0.00    +0.000 A 
ATOM     30  C   UNL     1       2.901   7.164  18.152  0.00  0.00    +0.000 A 
ATOM     31  C   UNL     1       2.824   6.347  19.288  0.00  0.00    +0.000 A 
ATOM     32  C   UNL     1       2.136   6.823  20.418  0.00  0.00    +0.000 A 
ATOM     33  C   UNL     1       1.466   8.052  20.387  0.00  0.00    +0.000 A 
BRANCH  31  34
ATOM     34  C   UNL     1       3.417   4.957  19.291  0.00  0.00    +0.000 C 
ATOM     35  F   UNL     1       4.774   4.943  19.163  0.00  0.00    +0.000 F 
ATOM     36  F   UNL     1       3.140   4.268  20.430  0.00  0.00    +0.000 F 
ATOM     37  F   UNL     1       2.941   4.197  18.266  0.00  0.00    +0.000 F 
ENDBRANCH  31  34
ENDBRANCH  27  28
ENDBRANCH  25  27
ENDBRANCH   1  25
TORSDOF 7
ENDMDL
MODEL 4
REMARK VINA RESULT:      -7.4      2.475      6.192
REMARK  Name = 
REMARK  7 active torsions:
REMARK  status: ('A' for Active; 'I' for Inactive)
REMARK    1  A    between atoms: C_2  and  O_3
REMARK    2  A    between atoms: C_2  and  C_27
REMARK    3  A    between atoms: O_3  and  C_4
REMARK    4  A    between atoms: C_4  and  C_5
REMARK    5  A    between atoms: N_7  and  C_8
REMARK    6  A    between atoms: C_11  and  N_12
REMARK    7  A    between atoms: C_30  and  C_31
REMARK                            x       y       z     vdW  Elec       q    Type
REMARK                         _______ _______ _______ _____ _____    ______ ____
ROOT
ATOM      1  C   UNL     1       0.961  13.002  19.997  0.00  0.00    +0.000 C 
ATOM      2  C   UNL     1       0.439  14.149  19.104  0.00  0.00    +0.000 C 
ATOM      3  O   UNL     1      -0.422  14.081  18.242  0.00  0.00    +0.000 OA
ATOM      4  C   UNL     1       1.143  15.393  19.441  0.00  0.00    +0.000 A 
ATOM      5  C   UNL     1       0.963  16.667  18.926  0.00  0.00    +0.000 A 
ATOM      6  C   UNL     1       1.810  17.685  19.385  0.00  0.00    +0.000 A 
ATOM      7  C   UNL     1       2.804  17.418  20.344  0.00  0.00    +0.000 A 
ATOM      8  C   UNL     1       2.966  16.127  20.854  0.00  0.00    +0.000 A 
ATOM      9  C   UNL     1       2.122  15.134  20.384  0.00  0.00    +0.000 A 
ATOM     10  C   UNL     1       2.140  13.705  20.708  0.00  0.00    +0.000 C 
ATOM     11  O   UNL     1       3.042  13.212  21.363  0.00  0.00    +0.000 OA
ENDROOT
BRANCH   1  12
ATOM     12  C   UNL     1      -0.189  12.673  20.985  0.00  0.00    +0.000 C 
ATOM     13  O   UNL     1       0.033  11.967  21.969  0.00  0.00    +0.000 OA
ATOM     14  N   UNL     1      -1.408  13.293  20.698  0.00  0.00    +0.000 N 
ATOM     15  H   UNL     1      -1.492  13.748  19.795  0.00  0.00    +0.000 HD
BRANCH  14  16
ATOM     16  C   UNL     1      -2.605  13.153  21.437  0.00  0.00    +0.000 A 
ATOM     17  C   UNL     1      -3.808  12.761  20.851  0.00  0.00    +0.000 A 
ATOM     18  C   UNL     1      -4.982  12.683  21.604  0.00  0.00    +0.000 A 
ATOM     19  C   UNL     1      -4.954  12.997  22.964  0.00  0.00    +0.000 A 
ATOM     20  C   UNL     1      -3.748  13.358  23.578  0.00  0.00    +0.000 A 
ATOM     21  C   UNL     1      -2.574  13.423  22.814  0.00  0.00    +0.000 A 
BRANCH  19  22
ATOM     22  N   UNL     1      -6.199  12.951  23.742  0.00  0.00    +0.000 N 
ATOM     23  O   UNL     1      -6.645  11.835  24.049  0.00  0.00    +0.000 OA
ATOM     24  O   UNL     1      -6.731  14.028  24.043  0.00  0.00    +0.000 OA
ENDBRANCH  19  22
ENDBRANCH  14  16
ENDBRANCH   1  12
BRANCH   1  25
ATOM     25  O   UNL     1       1.409  11.932  19.159  0.00  0.00    +0.000 OA
BRANCH  25  27
ATOM     26  O   UNL     1      -0.599  10.988  18.588  0.00  0.00    +0.000 OA
ATOM     27  C   UNL     1       0.540  10.896  19.013  0.00  0.00    +0.000 C 
BRANCH  27  28
ATOM     28  C   UNL     1       1.165   9.585  19.331  0.00  0.00    +0.000 A 
ATOM     29  C   UNL     1       1.899   8.946  18.319  0.00  0.00    +0.000 A 
ATOM     30  C   UNL     1       2.413   7.662  18.517  0.00  0.00    +0.000 A 
ATOM     31  C   UNL     1       2.203   6.996  19.732  0.00  0.00    +0.000 A 
ATOM     32  C   UNL     1       1.541   7.674  20.771  0.00  0.00    +0.000 A 
ATOM     33  C   UNL     1       1.024   8.960  20.573  0.00  0.00    +0.000 A 
BRANCH  31  34
ATOM     34  C   UNL     1       2.627   5.556  19.917  0.00  0.00    +0.000 C 
ATOM     35  F   UNL     1       2.154   4.991  21.063  0.00  0.00    +0.000 F 
ATOM     36  F   UNL     1       2.215   4.752  18.901  0.00  0.00    +0.000 F 
ATOM     37  F   UNL     1       3.982   5.427  19.973  0.00  0.00    +0.000 F 
ENDBRANCH  31  34
ENDBRANCH  27  28
ENDBRANCH  25  27
ENDBRANCH   1  25
TORSDOF 7
ENDMDL
MODEL 5
REMARK VINA RESULT:      -7.4      0.567      1.442
REMARK  Name = 
REMARK  7 active torsions:
REMARK  status: ('A' for Active; 'I' for Inactive)
REMARK    1  A    between atoms: C_2  and  O_3
REMARK    2  A    between atoms: C_2  and  C_27
REMARK    3  A    between atoms: O_3  and  C_4
REMARK    4  A    between atoms: C_4  and  C_5
REMARK    5  A    between atoms: N_7  and  C_8
REMARK    6  A    between atoms: C_11  and  N_12
REMARK    7  A    between atoms: C_30  and  C_31
REMARK                            x       y       z     vdW  Elec       q    Type
REMARK                         _______ _______ _______ _____ _____    ______ ____
ROOT
ATOM      1  C   UNL     1      -1.092  11.244  19.643  0.00  0.00    +0.000 C 
ATOM      2  C   UNL     1      -2.159  12.022  20.444  0.00  0.00    +0.000 C 
ATOM      3  O   UNL     1      -2.064  12.445  21.585  0.00  0.00    +0.000 OA
ATOM      4  C   UNL     1      -3.361  12.198  19.620  0.00  0.00    +0.000 A 
ATOM      5  C   UNL     1      -4.536  12.870  19.918  0.00  0.00    +0.000 A 
ATOM      6  C   UNL     1      -5.565  12.846  18.966  0.00  0.00    +0.000 A 
ATOM      7  C   UNL     1      -5.401  12.166  17.745  0.00  0.00    +0.000 A 
ATOM      8  C   UNL     1      -4.206  11.498  17.462  0.00  0.00    +0.000 A 
ATOM      9  C   UNL     1      -3.204  11.530  18.418  0.00  0.00    +0.000 A 
ATOM     10  C   UNL     1      -1.903  10.856  18.385  0.00  0.00    +0.000 C 
ATOM     11  O   UNL     1      -1.626  10.049  17.515  0.00  0.00    +0.000 OA
ENDROOT
BRANCH   1  12
ATOM     12  C   UNL     1       0.023  12.270  19.310  0.00  0.00    +0.000 C 
ATOM     13  O   UNL     1       0.589  12.225  18.217  0.00  0.00    +0.000 OA
ATOM     14  N   UNL     1       0.246  13.239  20.292  0.00  0.00    +0.000 N 
ATOM     15  H   UNL     1      -0.197  13.092  21.193  0.00  0.00    +0.000 HD
BRANCH  14  16
ATOM     16  C   UNL     1       1.204  14.276  20.233  0.00  0.00    +0.000 A 
ATOM     17  C   UNL     1       2.116  14.515  21.260  0.00  0.00    +0.000 A 
ATOM     18  C   UNL     1       3.015  15.582  21.188  0.00  0.00    +0.000 A 
ATOM     19  C   UNL     1       3.007  16.421  20.072  0.00  0.00    +0.000 A 
ATOM     20  C   UNL     1       2.123  16.175  19.014  0.00  0.00    +0.000 A 
ATOM     21  C   UNL     1       1.232  15.095  19.093  0.00  0.00    +0.000 A 
BRANCH  19  22
ATOM     22  N   UNL     1       3.928  17.564  20.021  0.00  0.00    +0.000 N 
ATOM     23  O   UNL     1       3.749  18.484  20.835  0.00  0.00    +0.000 OA
ATOM     24  O   UNL     1       4.826  17.543  19.170  0.00  0.00    +0.000 OA
ENDBRANCH  19  22
ENDBRANCH  14  16
ENDBRANCH   1  12
BRANCH   1  25
ATOM     25  O   UNL     1      -0.697  10.093  20.396  0.00  0.00    +0.000 OA
BRANCH  25  27
ATOM     26  O   UNL     1       1.172  10.783  21.526  0.00  0.00    +0.000 OA
ATOM     27  C   UNL     1       0.618  10.037  20.737  0.00  0.00    +0.000 C 
BRANCH  27  28
ATOM     28  C   UNL     1       1.313   8.877  20.120  0.00  0.00    +0.000 A 
ATOM     29  C   UNL     1       1.679   8.975  18.768  0.00  0.00    +0.000 A 
ATOM     30  C   UNL     1       2.230   7.879  18.099  0.00  0.00    +0.000 A 
ATOM     31  C   UNL     1       2.427   6.666  18.773  0.00  0.00    +0.000 A 
ATOM     32  C   UNL     1       2.138   6.600  20.147  0.00  0.00    +0.000 A 
ATOM     33  C   UNL     1       1.584   7.697  20.818  0.00  0.00    +0.000 A 
BRANCH  31  34
ATOM     34  C   UNL     1       2.888   5.430  18.035  0.00  0.00    +0.000 C 
ATOM     35  F   UNL     1       1.870   4.717  17.476  0.00  0.00    +0.000 F 
ATOM     36  F   UNL     1       3.751   5.711  17.022  0.00  0.00    +0.000 F 
ATOM     37  F   UNL     1       3.542   4.561  18.855  0.00  0.00    +0.000 F 
ENDBRANCH  31  34
ENDBRANCH  27  28
ENDBRANCH  25  27
ENDBRANCH   1  25
TORSDOF 7
ENDMDL
MODEL 6
REMARK VINA RESULT:      -7.3      2.509      6.204
REMARK  Name = 
REMARK  7 active torsions:
REMARK  status: ('A' for Active; 'I' for Inactive)
REMARK    1  A    between atoms: C_2  and  O_3
REMARK    2  A    between atoms: C_2  and  C_27
REMARK    3  A    between atoms: O_3  and  C_4
REMARK    4  A    between atoms: C_4  and  C_5
REMARK    5  A    between atoms: N_7  and  C_8
REMARK    6  A    between atoms: C_11  and  N_12
REMARK    7  A    between atoms: C_30  and  C_31
REMARK                            x       y       z     vdW  Elec       q    Type
REMARK                         _______ _______ _______ _____ _____    ______ ____
ROOT
ATOM      1  C   UNL     1       0.921  12.919  20.071  0.00  0.00    +0.000 C 
ATOM      2  C   UNL     1       0.402  14.013  19.112  0.00  0.00    +0.000 C 
ATOM      3  O   UNL     1      -0.476  13.904  18.273  0.00  0.00    +0.000 OA
ATOM      4  C   UNL     1       1.136  15.263  19.351  0.00  0.00    +0.000 A 
ATOM      5  C   UNL     1       0.969  16.503  18.754  0.00  0.00    +0.000 A 
ATOM      6  C   UNL     1       1.843  17.533  19.127  0.00  0.00    +0.000 A 
ATOM      7  C   UNL     1       2.852  17.311  20.084  0.00  0.00    +0.000 A 
ATOM      8  C   UNL     1       2.999  16.055  20.677  0.00  0.00    +0.000 A 
ATOM      9  C   UNL     1       2.128  15.049  20.291  0.00  0.00    +0.000 A 
ATOM     10  C   UNL     1       2.127  13.645  20.711  0.00  0.00    +0.000 C 
ATOM     11  O   UNL     1       3.031  13.180  21.381  0.00  0.00    +0.000 OA
ENDROOT
BRANCH   1  12
ATOM     12  C   UNL     1      -0.216  12.681  21.100  0.00  0.00    +0.000 C 
ATOM     13  O   UNL     1       0.014  12.043  22.128  0.00  0.00    +0.000 OA
ATOM     14  N   UNL     1      -1.430  13.298  20.791  0.00  0.00    +0.000 N 
ATOM     15  H   UNL     1      -1.525  13.689  19.860  0.00  0.00    +0.000 HD
BRANCH  14  16
ATOM     16  C   UNL     1      -2.615  13.231  21.560  0.00  0.00    +0.000 A 
ATOM     17  C   UNL     1      -2.635  13.476  22.932  0.00  0.00    +0.000 A 
ATOM     18  C   UNL     1      -3.816  13.350  23.667  0.00  0.00    +0.000 A 
ATOM     19  C   UNL     1      -4.997  12.979  23.022  0.00  0.00    +0.000 A 
ATOM     20  C   UNL     1      -5.005  12.763  21.638  0.00  0.00    +0.000 A 
ATOM     21  C   UNL     1      -3.815  12.902  20.909  0.00  0.00    +0.000 A 
BRANCH  19  22
ATOM     22  N   UNL     1      -6.226  12.810  23.807  0.00  0.00    +0.000 N 
ATOM     23  O   UNL     1      -6.492  11.671  24.224  0.00  0.00    +0.000 OA
ATOM     24  O   UNL     1      -6.925  13.812  24.006  0.00  0.00    +0.000 OA
ENDBRANCH  19  22
ENDBRANCH  14  16
ENDBRANCH   1  12
BRANCH   1  25
ATOM     25  O   UNL     1       1.332  11.786  19.300  0.00  0.00    +0.000 OA
BRANCH  25  27
ATOM     26  O   UNL     1      -0.724  10.854  18.913  0.00  0.00    +0.000 OA
ATOM     27  C   UNL     1       0.444  10.757  19.247  0.00  0.00    +0.000 C 
BRANCH  27  28
ATOM     28  C   UNL     1       1.080   9.446  19.541  0.00  0.00    +0.000 A 
ATOM     29  C   UNL     1       1.791   8.816  18.507  0.00  0.00    +0.000 A 
ATOM     30  C   UNL     1       2.313   7.532  18.684  0.00  0.00    +0.000 A 
ATOM     31  C   UNL     1       2.136   6.858  19.899  0.00  0.00    +0.000 A 
ATOM     32  C   UNL     1       1.497   7.527  20.958  0.00  0.00    +0.000 A 
ATOM     33  C   UNL     1       0.972   8.813  20.782  0.00  0.00    +0.000 A 
BRANCH  31  34
ATOM     34  C   UNL     1       2.568   5.418  20.064  0.00  0.00    +0.000 C 
ATOM     35  F   UNL     1       3.885   5.209  19.785  0.00  0.00    +0.000 F 
ATOM     36  F   UNL     1       2.370   4.949  21.324  0.00  0.00    +0.000 F 
ATOM     37  F   UNL     1       1.878   4.582  19.239  0.00  0.00    +0.000 F 
ENDBRANCH  31  34
ENDBRANCH  27  28
ENDBRANCH  25  27
ENDBRANCH   1  25
TORSDOF 7
ENDMDL
MODEL 7
REMARK VINA RESULT:      -7.3      1.802      2.677
REMARK  Name = 
REMARK  7 active torsions:
REMARK  status: ('A' for Active; 'I' for Inactive)
REMARK    1  A    between atoms: C_2  and  O_3
REMARK    2  A    between atoms: C_2  and  C_27
REMARK    3  A    between atoms: O_3  and  C_4
REMARK    4  A    between atoms: C_4  and  C_5
REMARK    5  A    between atoms: N_7  and  C_8
REMARK    6  A    between atoms: C_11  and  N_12
REMARK    7  A    between atoms: C_30  and  C_31
REMARK                            x       y       z     vdW  Elec       q    Type
REMARK                         _______ _______ _______ _____ _____    ______ ____
ROOT
ATOM      1  C   UNL     1      -1.212  11.999  20.719  0.00  0.00    +0.000 C 
ATOM      2  C   UNL     1      -1.309  12.043  22.260  0.00  0.00    +0.000 C 
ATOM      3  O   UNL     1      -0.434  11.765  23.064  0.00  0.00    +0.000 OA
ATOM      4  C   UNL     1      -2.653  12.483  22.655  0.00  0.00    +0.000 A 
ATOM      5  C   UNL     1      -3.163  12.707  23.924  0.00  0.00    +0.000 A 
ATOM      6  C   UNL     1      -4.510  13.078  24.034  0.00  0.00    +0.000 A 
ATOM      7  C   UNL     1      -5.312  13.226  22.887  0.00  0.00    +0.000 A 
ATOM      8  C   UNL     1      -4.777  13.000  21.616  0.00  0.00    +0.000 A 
ATOM      9  C   UNL     1      -3.445  12.629  21.530  0.00  0.00    +0.000 A 
ATOM     10  C   UNL     1      -2.683  12.273  20.330  0.00  0.00    +0.000 C 
ATOM     11  O   UNL     1      -3.225  12.136  19.248  0.00  0.00    +0.000 OA
ENDROOT
BRANCH   1  12
ATOM     12  C   UNL     1      -0.285  13.176  20.317  0.00  0.00    +0.000 C 
ATOM     13  O   UNL     1      -0.773  14.211  19.863  0.00  0.00    +0.000 OA
ATOM     14  N   UNL     1       1.072  12.977  20.585  0.00  0.00    +0.000 N 
ATOM     15  H   UNL     1       1.357  12.039  20.844  0.00  0.00    +0.000 HD
BRANCH  14  16
ATOM     16  C   UNL     1       2.116  13.890  20.309  0.00  0.00    +0.000 A 
ATOM     17  C   UNL     1       2.476  14.907  21.192  0.00  0.00    +0.000 A 
ATOM     18  C   UNL     1       3.479  15.822  20.863  0.00  0.00    +0.000 A 
ATOM     19  C   UNL     1       4.135  15.718  19.636  0.00  0.00    +0.000 A 
ATOM     20  C   UNL     1       3.812  14.682  18.751  0.00  0.00    +0.000 A 
ATOM     21  C   UNL     1       2.810  13.763  19.096  0.00  0.00    +0.000 A 
BRANCH  19  22
ATOM     22  N   UNL     1       5.161  16.707  19.279  0.00  0.00    +0.000 N 
ATOM     23  O   UNL     1       5.018  17.864  19.705  0.00  0.00    +0.000 OA
ATOM     24  O   UNL     1       6.106  16.329  18.575  0.00  0.00    +0.000 OA
ENDBRANCH  19  22
ENDBRANCH  14  16
ENDBRANCH   1  12
BRANCH   1  25
ATOM     25  O   UNL     1      -0.791  10.690  20.320  0.00  0.00    +0.000 OA
BRANCH  25  27
ATOM     26  O   UNL     1      -0.174  11.434  18.245  0.00  0.00    +0.000 OA
ATOM     27  C   UNL     1      -0.097  10.626  19.154  0.00  0.00    +0.000 C 
BRANCH  27  28
ATOM     28  C   UNL     1       0.873   9.500  19.135  0.00  0.00    +0.000 A 
ATOM     29  C   UNL     1       1.574   9.258  17.943  0.00  0.00    +0.000 A 
ATOM     30  C   UNL     1       2.413   8.147  17.824  0.00  0.00    +0.000 A 
ATOM     31  C   UNL     1       2.568   7.260  18.898  0.00  0.00    +0.000 A 
ATOM     32  C   UNL     1       1.930   7.554  20.116  0.00  0.00    +0.000 A 
ATOM     33  C   UNL     1       1.087   8.666  20.235  0.00  0.00    +0.000 A 
BRANCH  31  34
ATOM     34  C   UNL     1       3.356   5.979  18.745  0.00  0.00    +0.000 C 
ATOM     35  F   UNL     1       3.912   5.825  17.511  0.00  0.00    +0.000 F 
ATOM     36  F   UNL     1       4.380   5.882  19.634  0.00  0.00    +0.000 F 
ATOM     37  F   UNL     1       2.581   4.877  18.942  0.00  0.00    +0.000 F 
ENDBRANCH  31  34
ENDBRANCH  27  28
ENDBRANCH  25  27
ENDBRANCH   1  25
TORSDOF 7
ENDMDL
MODEL 8
REMARK VINA RESULT:      -7.2      1.734      2.418
REMARK  Name = 
REMARK  7 active torsions:
REMARK  status: ('A' for Active; 'I' for Inactive)
REMARK    1  A    between atoms: C_2  and  O_3
REMARK    2  A    between atoms: C_2  and  C_27
REMARK    3  A    between atoms: O_3  and  C_4
REMARK    4  A    between atoms: C_4  and  C_5
REMARK    5  A    between atoms: N_7  and  C_8
REMARK    6  A    between atoms: C_11  and  N_12
REMARK    7  A    between atoms: C_30  and  C_31
REMARK                            x       y       z     vdW  Elec       q    Type
REMARK                         _______ _______ _______ _____ _____    ______ ____
ROOT
ATOM      1  C   UNL     1       0.076  11.590  19.684  0.00  0.00    +0.000 C 
ATOM      2  C   UNL     1      -0.585  12.103  20.982  0.00  0.00    +0.000 C 
ATOM      3  O   UNL     1      -0.043  12.311  22.056  0.00  0.00    +0.000 OA
ATOM      4  C   UNL     1      -2.019  12.318  20.751  0.00  0.00    +0.000 A 
ATOM      5  C   UNL     1      -2.982  12.810  21.618  0.00  0.00    +0.000 A 
ATOM      6  C   UNL     1      -4.306  12.870  21.163  0.00  0.00    +0.000 A 
ATOM      7  C   UNL     1      -4.641  12.449  19.862  0.00  0.00    +0.000 A 
ATOM      8  C   UNL     1      -3.654  11.959  19.002  0.00  0.00    +0.000 A 
ATOM      9  C   UNL     1      -2.352  11.904  19.473  0.00  0.00    +0.000 A 
ATOM     10  C   UNL     1      -1.169  11.371  18.794  0.00  0.00    +0.000 C 
ATOM     11  O   UNL     1      -1.257  10.771  17.737  0.00  0.00    +0.000 OA
ENDROOT
BRANCH   1  12
ATOM     12  C   UNL     1       0.954  12.759  19.163  0.00  0.00    +0.000 C 
ATOM     13  O   UNL     1       0.570  13.433  18.207  0.00  0.00    +0.000 OA
ATOM     14  N   UNL     1       2.115  12.999  19.901  0.00  0.00    +0.000 N 
ATOM     15  H   UNL     1       2.378  12.299  20.587  0.00  0.00    +0.000 HD
BRANCH  14  16
ATOM     16  C   UNL     1       3.079  13.997  19.631  0.00  0.00    +0.000 A 
ATOM     17  C   UNL     1       3.709  14.118  18.393  0.00  0.00    +0.000 A 
ATOM     18  C   UNL     1       4.693  15.085  18.179  0.00  0.00    +0.000 A 
ATOM     19  C   UNL     1       5.053  15.948  19.216  0.00  0.00    +0.000 A 
ATOM     20  C   UNL     1       4.407  15.866  20.456  0.00  0.00    +0.000 A 
ATOM     21  C   UNL     1       3.412  14.898  20.655  0.00  0.00    +0.000 A 
BRANCH  19  22
ATOM     22  N   UNL     1       6.117  16.937  18.997  0.00  0.00    +0.000 N 
ATOM     23  O   UNL     1       5.945  18.078  19.453  0.00  0.00    +0.000 OA
ATOM     24  O   UNL     1       7.120  16.574  18.370  0.00  0.00    +0.000 OA
ENDBRANCH  19  22
ENDBRANCH  14  16
ENDBRANCH   1  12
BRANCH   1  25
ATOM     25  O   UNL     1       0.752  10.360  19.965  0.00  0.00    +0.000 OA
BRANCH  25  27
ATOM     26  O   UNL     1       1.976  10.524  18.036  0.00  0.00    +0.000 OA
ATOM     27  C   UNL     1       1.520   9.868  18.957  0.00  0.00    +0.000 C 
BRANCH  27  28
ATOM     28  C   UNL     1       1.850   8.431  19.147  0.00  0.00    +0.000 A 
ATOM     29  C   UNL     1       2.336   7.718  18.040  0.00  0.00    +0.000 A 
ATOM     30  C   UNL     1       2.555   6.340  18.123  0.00  0.00    +0.000 A 
ATOM     31  C   UNL     1       2.294   5.653  19.316  0.00  0.00    +0.000 A 
ATOM     32  C   UNL     1       1.888   6.387  20.445  0.00  0.00    +0.000 A 
ATOM     33  C   UNL     1       1.667   7.766  20.363  0.00  0.00    +0.000 A 
BRANCH  31  34
ATOM     34  C   UNL     1       2.389   4.146  19.385  0.00  0.00    +0.000 C 
ATOM     35  F   UNL     1       3.124   3.599  18.377  0.00  0.00    +0.000 F 
ATOM     36  F   UNL     1       2.949   3.706  20.543  0.00  0.00    +0.000 F 
ATOM     37  F   UNL     1       1.164   3.555  19.313  0.00  0.00    +0.000 F 
ENDBRANCH  31  34
ENDBRANCH  27  28
ENDBRANCH  25  27
ENDBRANCH   1  25
TORSDOF 7
ENDMDL
MODEL 9
REMARK VINA RESULT:      -7.2      1.908      2.694
REMARK  Name = 
REMARK  7 active torsions:
REMARK  status: ('A' for Active; 'I' for Inactive)
REMARK    1  A    between atoms: C_2  and  O_3
REMARK    2  A    between atoms: C_2  and  C_27
REMARK    3  A    between atoms: O_3  and  C_4
REMARK    4  A    between atoms: C_4  and  C_5
REMARK    5  A    between atoms: N_7  and  C_8
REMARK    6  A    between atoms: C_11  and  N_12
REMARK    7  A    between atoms: C_30  and  C_31
REMARK                            x       y       z     vdW  Elec       q    Type
REMARK                         _______ _______ _______ _____ _____    ______ ____
ROOT
ATOM      1  C   UNL     1      -0.085  11.486  20.432  0.00  0.00    +0.000 C 
ATOM      2  C   UNL     1      -0.576  11.254  21.877  0.00  0.00    +0.000 C 
ATOM      3  O   UNL     1      -0.071  10.535  22.724  0.00  0.00    +0.000 OA
ATOM      4  C   UNL     1      -1.789  12.047  22.116  0.00  0.00    +0.000 A 
ATOM      5  C   UNL     1      -2.535  12.177  23.277  0.00  0.00    +0.000 A 
ATOM      6  C   UNL     1      -3.693  12.964  23.228  0.00  0.00    +0.000 A 
ATOM      7  C   UNL     1      -4.078  13.607  22.035  0.00  0.00    +0.000 A 
ATOM      8  C   UNL     1      -3.309  13.466  20.877  0.00  0.00    +0.000 A 
ATOM      9  C   UNL     1      -2.170  12.679  20.946  0.00  0.00    +0.000 A 
ATOM     10  C   UNL     1      -1.251  12.326  19.862  0.00  0.00    +0.000 C 
ATOM     11  O   UNL     1      -1.497  12.604  18.702  0.00  0.00    +0.000 OA
ENDROOT
BRANCH   1  12
ATOM     12  C   UNL     1       1.217  12.322  20.553  0.00  0.00    +0.000 C 
ATOM     13  O   UNL     1       2.136  11.921  21.267  0.00  0.00    +0.000 OA
ATOM     14  N   UNL     1       1.260  13.465  19.752  0.00  0.00    +0.000 N 
ATOM     15  H   UNL     1       0.394  13.749  19.306  0.00  0.00    +0.000 HD
BRANCH  14  16
ATOM     16  C   UNL     1       2.325  14.392  19.684  0.00  0.00    +0.000 A 
ATOM     17  C   UNL     1       2.875  14.988  20.819  0.00  0.00    +0.000 A 
ATOM     18  C   UNL     1       3.894  15.938  20.709  0.00  0.00    +0.000 A 
ATOM     19  C   UNL     1       4.373  16.296  19.448  0.00  0.00    +0.000 A 
ATOM     20  C   UNL     1       3.859  15.682  18.299  0.00  0.00    +0.000 A 
ATOM     21  C   UNL     1       2.844  14.722  18.423  0.00  0.00    +0.000 A 
BRANCH  19  22
ATOM     22  N   UNL     1       5.416  17.324  19.337  0.00  0.00    +0.000 N 
ATOM     23  O   UNL     1       5.268  18.367  19.993  0.00  0.00    +0.000 OA
ATOM     24  O   UNL     1       6.380  17.090  18.597  0.00  0.00    +0.000 OA
ENDBRANCH  19  22
ENDBRANCH  14  16
ENDBRANCH   1  12
BRANCH   1  25
ATOM     25  O   UNL     1       0.029  10.219  19.774  0.00  0.00    +0.000 OA
BRANCH  25  27
ATOM     26  O   UNL     1       1.387  11.037  18.121  0.00  0.00    +0.000 OA
ATOM     27  C   UNL     1       1.014  10.127  18.842  0.00  0.00    +0.000 C 
BRANCH  27  28
ATOM     28  C   UNL     1       1.686   8.802  18.860  0.00  0.00    +0.000 A 
ATOM     29  C   UNL     1       1.545   8.010  20.010  0.00  0.00    +0.000 A 
ATOM     30  C   UNL     1       2.244   6.807  20.135  0.00  0.00    +0.000 A 
ATOM     31  C   UNL     1       3.095   6.374  19.110  0.00  0.00    +0.000 A 
ATOM     32  C   UNL     1       3.167   7.128  17.926  0.00  0.00    +0.000 A 
ATOM     33  C   UNL     1       2.468   8.334  17.800  0.00  0.00    +0.000 A 
BRANCH  31  34
ATOM     34  C   UNL     1       3.967   5.150  19.283  0.00  0.00    +0.000 C 
ATOM     35  F   UNL     1       3.470   4.249  20.175  0.00  0.00    +0.000 F 
ATOM     36  F   UNL     1       4.155   4.468  18.123  0.00  0.00    +0.000 F 
ATOM     37  F   UNL     1       5.211   5.472  19.736  0.00  0.00    +0.000 F 
ENDBRANCH  31  34
ENDBRANCH  27  28
ENDBRANCH  25  27
ENDBRANCH   1  25
TORSDOF 7
ENDMDL
