MODEL 1
REMARK VINA RESULT:      -7.4      0.000      0.000
REMARK  Name = 
REMARK  3 active torsions:
REMARK  status: ('A' for Active; 'I' for Inactive)
REMARK    1  A    between atoms: C_1  and  C_2
REMARK    2  A    between atoms: C_13  and  C_14
REMARK    3  A    between atoms: C_16  and  O_17
REMARK                            x       y       z     vdW  Elec       q    Type
REMARK                         _______ _______ _______ _____ _____    ______ ____
ROOT
ATOM      1  C   UNL     1       4.852   7.018  16.403  0.00  0.00    +0.000 C 
ATOM      2  C   UNL     1       4.798   5.578  16.818  0.00  0.00    +0.000 A 
ATOM      3  N   UNL     1       4.044   5.346  17.919  0.00  0.00    +0.000 NA
ATOM      4  C   UNL     1       3.919   4.094  18.377  0.00  0.00    +0.000 A 
ATOM      5  N   UNL     1       3.098   3.862  19.454  0.00  0.00    +0.000 N 
ATOM      6  C   UNL     1       3.430   2.774  20.357  0.00  0.00    +0.000 C 
ATOM      7  C   UNL     1       2.118   2.152  20.835  0.00  0.00    +0.000 C 
ATOM      8  C   UNL     1       1.191   3.207  21.446  0.00  0.00    +0.000 C 
ATOM      9  C   UNL     1       1.013   4.420  20.530  0.00  0.00    +0.000 C 
ATOM     10  C   UNL     1       2.354   4.968  20.035  0.00  0.00    +0.000 C 
ATOM     11  N   UNL     1       4.504   3.049  17.772  0.00  0.00    +0.000 NA
ATOM     12  C   UNL     1       5.232   3.303  16.664  0.00  0.00    +0.000 A 
ATOM     13  C   UNL     1       5.433   4.558  16.126  0.00  0.00    +0.000 A 
ENDROOT
BRANCH  13  14
ATOM     14  C   UNL     1       6.260   4.743  14.944  0.00  0.00    +0.000 A 
ATOM     15  C   UNL     1       6.076   4.193  13.641  0.00  0.00    +0.000 A 
ATOM     16  C   UNL     1       7.135   4.646  12.894  0.00  0.00    +0.000 A 
ATOM     17  N   UNL     1       7.877   5.415  13.738  0.00  0.00    +0.000 N 
ATOM     18  N   UNL     1       7.380   5.487  14.979  0.00  0.00    +0.000 NA
ATOM     19  H   UNL     1       8.736   5.911  13.524  0.00  0.00    +0.000 HD
BRANCH  16  20
ATOM     20  O   UNL     1       7.505   4.470  11.634  0.00  0.00    +0.000 OA
ATOM     21  H   UNL     1       7.896   3.580  11.564  0.00  0.00    +0.000 HD
ENDBRANCH  16  20
ENDBRANCH  13  14
TORSDOF 2
ENDMDL
MODEL 2
REMARK VINA RESULT:      -7.2      1.223      1.448
REMARK  Name = 
REMARK  3 active torsions:
REMARK  status: ('A' for Active; 'I' for Inactive)
REMARK    1  A    between atoms: C_1  and  C_2
REMARK    2  A    between atoms: C_13  and  C_14
REMARK    3  A    between atoms: C_16  and  O_17
REMARK                            x       y       z     vdW  Elec       q    Type
REMARK                         _______ _______ _______ _____ _____    ______ ____
ROOT
ATOM      1  C   UNL     1       7.341   4.753  18.016  0.00  0.00    +0.000 C 
ATOM      2  C   UNL     1       5.981   4.287  17.589  0.00  0.00    +0.000 A 
ATOM      3  N   UNL     1       5.170   3.929  18.613  0.00  0.00    +0.000 NA
ATOM      4  C   UNL     1       3.929   3.503  18.349  0.00  0.00    +0.000 A 
ATOM      5  N   UNL     1       3.093   3.207  19.398  0.00  0.00    +0.000 N 
ATOM      6  C   UNL     1       2.091   2.172  19.216  0.00  0.00    +0.000 C 
ATOM      7  C   UNL     1       0.845   2.591  19.997  0.00  0.00    +0.000 C 
ATOM      8  C   UNL     1       1.178   2.884  21.463  0.00  0.00    +0.000 C 
ATOM      9  C   UNL     1       2.361   3.844  21.606  0.00  0.00    +0.000 C 
ATOM     10  C   UNL     1       3.560   3.409  20.761  0.00  0.00    +0.000 C 
ATOM     11  N   UNL     1       3.448   3.432  17.099  0.00  0.00    +0.000 NA
ATOM     12  C   UNL     1       4.267   3.814  16.097  0.00  0.00    +0.000 A 
ATOM     13  C   UNL     1       5.565   4.251  16.267  0.00  0.00    +0.000 A 
ENDROOT
BRANCH  13  14
ATOM     14  C   UNL     1       6.390   4.615  15.124  0.00  0.00    +0.000 A 
ATOM     15  C   UNL     1       6.273   4.173  13.773  0.00  0.00    +0.000 A 
ATOM     16  C   UNL     1       7.299   4.784  13.094  0.00  0.00    +0.000 A 
ATOM     17  N   UNL     1       7.957   5.534  14.020  0.00  0.00    +0.000 N 
ATOM     18  N   UNL     1       7.438   5.447  15.251  0.00  0.00    +0.000 NA
ATOM     19  H   UNL     1       8.771   6.120  13.872  0.00  0.00    +0.000 HD
BRANCH  16  20
ATOM     20  O   UNL     1       7.700   4.756  11.832  0.00  0.00    +0.000 OA
ATOM     21  H   UNL     1       8.189   3.925  11.696  0.00  0.00    +0.000 HD
ENDBRANCH  16  20
ENDBRANCH  13  14
TORSDOF 2
ENDMDL
MODEL 3
REMARK VINA RESULT:      -7.2      4.139      5.982
REMARK  Name = 
REMARK  3 active torsions:
REMARK  status: ('A' for Active; 'I' for Inactive)
REMARK    1  A    between atoms: C_1  and  C_2
REMARK    2  A    between atoms: C_13  and  C_14
REMARK    3  A    between atoms: C_16  and  O_17
REMARK                            x       y       z     vdW  Elec       q    Type
REMARK                         _______ _______ _______ _____ _____    ______ ____
ROOT
ATOM      1  C   UNL     1       3.894   6.358  17.373  0.00  0.00    +0.000 C 
ATOM      2  C   UNL     1       3.096   6.405  18.642  0.00  0.00    +0.000 A 
ATOM      3  N   UNL     1       2.508   7.602  18.883  0.00  0.00    +0.000 NA
ATOM      4  C   UNL     1       1.765   7.758  19.985  0.00  0.00    +0.000 A 
ATOM      5  N   UNL     1       1.119   8.953  20.185  0.00  0.00    +0.000 N 
ATOM      6  C   UNL     1       0.903   9.406  21.548  0.00  0.00    +0.000 C 
ATOM      7  C   UNL     1      -0.447  10.122  21.590  0.00  0.00    +0.000 C 
ATOM      8  C   UNL     1      -0.519  11.238  20.545  0.00  0.00    +0.000 C 
ATOM      9  C   UNL     1      -0.109  10.754  19.152  0.00  0.00    +0.000 C 
ATOM     10  C   UNL     1       1.221   9.996  19.176  0.00  0.00    +0.000 C 
ATOM     11  N   UNL     1       1.565   6.760  20.860  0.00  0.00    +0.000 NA
ATOM     12  C   UNL     1       2.143   5.572  20.587  0.00  0.00    +0.000 A 
ATOM     13  C   UNL     1       2.939   5.319  19.488  0.00  0.00    +0.000 A 
ENDROOT
BRANCH  13  14
ATOM     14  C   UNL     1       3.548   4.012  19.289  0.00  0.00    +0.000 A 
ATOM     15  C   UNL     1       2.966   2.843  18.716  0.00  0.00    +0.000 A 
ATOM     16  C   UNL     1       3.938   1.876  18.780  0.00  0.00    +0.000 A 
ATOM     17  N   UNL     1       5.015   2.475  19.358  0.00  0.00    +0.000 N 
ATOM     18  N   UNL     1       4.808   3.758  19.682  0.00  0.00    +0.000 NA
ATOM     19  H   UNL     1       5.916   2.057  19.563  0.00  0.00    +0.000 HD
BRANCH  16  20
ATOM     20  O   UNL     1       3.984   0.603  18.413  0.00  0.00    +0.000 OA
ATOM     21  H   UNL     1       3.619   0.543  17.512  0.00  0.00    +0.000 HD
ENDBRANCH  16  20
ENDBRANCH  13  14
TORSDOF 2
ENDMDL
MODEL 4
REMARK VINA RESULT:      -6.9      4.113      6.106
REMARK  Name = 
REMARK  3 active torsions:
REMARK  status: ('A' for Active; 'I' for Inactive)
REMARK    1  A    between atoms: C_1  and  C_2
REMARK    2  A    between atoms: C_13  and  C_14
REMARK    3  A    between atoms: C_16  and  O_17
REMARK                            x       y       z     vdW  Elec       q    Type
REMARK                         _______ _______ _______ _____ _____    ______ ____
ROOT
ATOM      1  C   UNL     1       3.413   6.187  17.475  0.00  0.00    +0.000 C 
ATOM      2  C   UNL     1       2.646   6.166  18.763  0.00  0.00    +0.000 A 
ATOM      3  N   UNL     1       2.296   7.392  19.220  0.00  0.00    +0.000 NA
ATOM      4  C   UNL     1       1.602   7.494  20.360  0.00  0.00    +0.000 A 
ATOM      5  N   UNL     1       1.195   8.737  20.778  0.00  0.00    +0.000 N 
ATOM      6  C   UNL     1       1.076   8.985  22.204  0.00  0.00    +0.000 C 
ATOM      7  C   UNL     1      -0.115   9.920  22.415  0.00  0.00    +0.000 C 
ATOM      8  C   UNL     1       0.019  11.192  21.572  0.00  0.00    +0.000 C 
ATOM      9  C   UNL     1       0.322  10.882  20.103  0.00  0.00    +0.000 C 
ATOM     10  C   UNL     1       1.485   9.898  19.952  0.00  0.00    +0.000 C 
ATOM     11  N   UNL     1       1.223   6.418  21.065  0.00  0.00    +0.000 NA
ATOM     12  C   UNL     1       1.565   5.206  20.578  0.00  0.00    +0.000 A 
ATOM     13  C   UNL     1       2.292   5.000  19.424  0.00  0.00    +0.000 A 
ENDROOT
BRANCH  13  14
ATOM     14  C   UNL     1       2.643   3.656  18.988  0.00  0.00    +0.000 A 
ATOM     15  C   UNL     1       3.790   2.885  19.339  0.00  0.00    +0.000 A 
ATOM     16  C   UNL     1       3.667   1.704  18.648  0.00  0.00    +0.000 A 
ATOM     17  N   UNL     1       2.505   1.808  17.947  0.00  0.00    +0.000 N 
ATOM     18  N   UNL     1       1.870   2.974  18.125  0.00  0.00    +0.000 NA
ATOM     19  H   UNL     1       2.098   1.119  17.324  0.00  0.00    +0.000 HD
BRANCH  16  20
ATOM     20  O   UNL     1       4.415   0.613  18.567  0.00  0.00    +0.000 OA
ATOM     21  H   UNL     1       5.236   0.782  19.061  0.00  0.00    +0.000 HD
ENDBRANCH  16  20
ENDBRANCH  13  14
TORSDOF 2
ENDMDL
MODEL 5
REMARK VINA RESULT:      -6.8      3.950      5.395
REMARK  Name = 
REMARK  3 active torsions:
REMARK  status: ('A' for Active; 'I' for Inactive)
REMARK    1  A    between atoms: C_1  and  C_2
REMARK    2  A    between atoms: C_13  and  C_14
REMARK    3  A    between atoms: C_16  and  O_17
REMARK                            x       y       z     vdW  Elec       q    Type
REMARK                         _______ _______ _______ _____ _____    ______ ____
ROOT
ATOM      1  C   UNL     1       3.161   5.036  20.179  0.00  0.00    +0.000 C 
ATOM      2  C   UNL     1       3.042   6.252  19.309  0.00  0.00    +0.000 A 
ATOM      3  N   UNL     1       2.109   7.142  19.725  0.00  0.00    +0.000 NA
ATOM      4  C   UNL     1       1.920   8.269  19.028  0.00  0.00    +0.000 A 
ATOM      5  N   UNL     1       1.019   9.194  19.496  0.00  0.00    +0.000 N 
ATOM      6  C   UNL     1       0.309  10.019  18.534  0.00  0.00    +0.000 C 
ATOM      7  C   UNL     1       0.127  11.403  19.156  0.00  0.00    +0.000 C 
ATOM      8  C   UNL     1      -0.556  11.315  20.524  0.00  0.00    +0.000 C 
ATOM      9  C   UNL     1       0.124  10.298  21.445  0.00  0.00    +0.000 C 
ATOM     10  C   UNL     1       0.333   8.948  20.754  0.00  0.00    +0.000 C 
ATOM     11  N   UNL     1       2.638   8.561  17.933  0.00  0.00    +0.000 NA
ATOM     12  C   UNL     1       3.577   7.670  17.551  0.00  0.00    +0.000 A 
ATOM     13  C   UNL     1       3.833   6.475  18.193  0.00  0.00    +0.000 A 
ENDROOT
BRANCH  13  14
ATOM     14  C   UNL     1       4.845   5.557  17.692  0.00  0.00    +0.000 A 
ATOM     15  C   UNL     1       6.259   5.622  17.865  0.00  0.00    +0.000 A 
ATOM     16  C   UNL     1       6.765   4.543  17.182  0.00  0.00    +0.000 A 
ATOM     17  N   UNL     1       5.685   3.904  16.654  0.00  0.00    +0.000 N 
ATOM     18  N   UNL     1       4.518   4.494  16.938  0.00  0.00    +0.000 NA
ATOM     19  H   UNL     1       5.685   3.063  16.086  0.00  0.00    +0.000 HD
BRANCH  16  20
ATOM     20  O   UNL     1       7.992   4.086  16.979  0.00  0.00    +0.000 OA
ATOM     21  H   UNL     1       8.024   3.171  17.311  0.00  0.00    +0.000 HD
ENDBRANCH  16  20
ENDBRANCH  13  14
TORSDOF 2
ENDMDL
MODEL 6
REMARK VINA RESULT:      -6.8      4.192      5.899
REMARK  Name = 
REMARK  3 active torsions:
REMARK  status: ('A' for Active; 'I' for Inactive)
REMARK    1  A    between atoms: C_1  and  C_2
REMARK    2  A    between atoms: C_13  and  C_14
REMARK    3  A    between atoms: C_16  and  O_17
REMARK                            x       y       z     vdW  Elec       q    Type
REMARK                         _______ _______ _______ _____ _____    ______ ____
ROOT
ATOM      1  C   UNL     1       2.249   4.767  20.847  0.00  0.00    +0.000 C 
ATOM      2  C   UNL     1       2.135   6.100  20.169  0.00  0.00    +0.000 A 
ATOM      3  N   UNL     1       1.313   6.974  20.799  0.00  0.00    +0.000 NA
ATOM      4  C   UNL     1       1.140   8.198  20.286  0.00  0.00    +0.000 A 
ATOM      5  N   UNL     1       0.359   9.098  20.969  0.00  0.00    +0.000 N 
ATOM      6  C   UNL     1      -0.379  10.092  20.210  0.00  0.00    +0.000 C 
ATOM      7  C   UNL     1      -0.399  11.381  21.031  0.00  0.00    +0.000 C 
ATOM      8  C   UNL     1      -0.950  11.138  22.439  0.00  0.00    +0.000 C 
ATOM      9  C   UNL     1      -0.260   9.962  23.134  0.00  0.00    +0.000 C 
ATOM     10  C   UNL     1      -0.218   8.714  22.248  0.00  0.00    +0.000 C 
ATOM     11  N   UNL     1       1.768   8.602  19.172  0.00  0.00    +0.000 NA
ATOM     12  C   UNL     1       2.598   7.721  18.575  0.00  0.00    +0.000 A 
ATOM     13  C   UNL     1       2.827   6.434  19.016  0.00  0.00    +0.000 A 
ENDROOT
BRANCH  13  14
ATOM     14  C   UNL     1       3.717   5.539  18.291  0.00  0.00    +0.000 A 
ATOM     15  C   UNL     1       5.142   5.496  18.317  0.00  0.00    +0.000 A 
ATOM     16  C   UNL     1       5.499   4.499  17.445  0.00  0.00    +0.000 A 
ATOM     17  N   UNL     1       4.330   4.004  16.954  0.00  0.00    +0.000 N 
ATOM     18  N   UNL     1       3.241   4.614  17.439  0.00  0.00    +0.000 NA
ATOM     19  H   UNL     1       4.213   3.254  16.280  0.00  0.00    +0.000 HD
BRANCH  16  20
ATOM     20  O   UNL     1       6.665   4.004  17.051  0.00  0.00    +0.000 OA
ATOM     21  H   UNL     1       7.130   4.705  16.561  0.00  0.00    +0.000 HD
ENDBRANCH  16  20
ENDBRANCH  13  14
TORSDOF 2
ENDMDL
MODEL 7
REMARK VINA RESULT:      -6.8      3.353      4.637
REMARK  Name = 
REMARK  3 active torsions:
REMARK  status: ('A' for Active; 'I' for Inactive)
REMARK    1  A    between atoms: C_1  and  C_2
REMARK    2  A    between atoms: C_13  and  C_14
REMARK    3  A    between atoms: C_16  and  O_17
REMARK                            x       y       z     vdW  Elec       q    Type
REMARK                         _______ _______ _______ _____ _____    ______ ____
ROOT
ATOM      1  C   UNL     1       3.549   4.308  19.622  0.00  0.00    +0.000 C 
ATOM      2  C   UNL     1       3.384   5.663  19.000  0.00  0.00    +0.000 A 
ATOM      3  N   UNL     1       2.534   6.479  19.668  0.00  0.00    +0.000 NA
ATOM      4  C   UNL     1       2.314   7.717  19.206  0.00  0.00    +0.000 A 
ATOM      5  N   UNL     1       1.504   8.559  19.928  0.00  0.00    +0.000 N 
ATOM      6  C   UNL     1       0.727   9.556  19.213  0.00  0.00    +0.000 C 
ATOM      7  C   UNL     1       0.664  10.808  20.086  0.00  0.00    +0.000 C 
ATOM      8  C   UNL     1       0.127  10.487  21.484  0.00  0.00    +0.000 C 
ATOM      9  C   UNL     1       0.862   9.309  22.129  0.00  0.00    +0.000 C 
ATOM     10  C   UNL     1       0.946   8.102  21.191  0.00  0.00    +0.000 C 
ATOM     11  N   UNL     1       2.923   8.189  18.108  0.00  0.00    +0.000 NA
ATOM     12  C   UNL     1       3.781   7.364  17.473  0.00  0.00    +0.000 A 
ATOM     13  C   UNL     1       4.059   6.069  17.860  0.00  0.00    +0.000 A 
ENDROOT
BRANCH  13  14
ATOM     14  C   UNL     1       4.978   5.238  17.096  0.00  0.00    +0.000 A 
ATOM     15  C   UNL     1       4.825   4.742  15.768  0.00  0.00    +0.000 A 
ATOM     16  C   UNL     1       5.949   3.993  15.520  0.00  0.00    +0.000 A 
ATOM     17  N   UNL     1       6.697   4.069  16.655  0.00  0.00    +0.000 N 
ATOM     18  N   UNL     1       6.136   4.805  17.622  0.00  0.00    +0.000 NA
ATOM     19  H   UNL     1       7.597   3.633  16.829  0.00  0.00    +0.000 HD
BRANCH  16  20
ATOM     20  O   UNL     1       6.366   3.291  14.477  0.00  0.00    +0.000 OA
ATOM     21  H   UNL     1       5.578   2.932  14.030  0.00  0.00    +0.000 HD
ENDBRANCH  16  20
ENDBRANCH  13  14
TORSDOF 2
ENDMDL
MODEL 8
REMARK VINA RESULT:      -6.8      3.421      7.204
REMARK  Name = 
REMARK  3 active torsions:
REMARK  status: ('A' for Active; 'I' for Inactive)
REMARK    1  A    between atoms: C_1  and  C_2
REMARK    2  A    between atoms: C_13  and  C_14
REMARK    3  A    between atoms: C_16  and  O_17
REMARK                            x       y       z     vdW  Elec       q    Type
REMARK                         _______ _______ _______ _____ _____    ______ ____
ROOT
ATOM      1  C   UNL     1       3.032   3.493  17.510  0.00  0.00    +0.000 C 
ATOM      2  C   UNL     1       3.936   4.554  16.956  0.00  0.00    +0.000 A 
ATOM      3  N   UNL     1       4.672   4.153  15.891  0.00  0.00    +0.000 NA
ATOM      4  C   UNL     1       5.511   5.021  15.311  0.00  0.00    +0.000 A 
ATOM      5  N   UNL     1       6.202   4.625  14.192  0.00  0.00    +0.000 N 
ATOM      6  C   UNL     1       7.517   5.192  13.952  0.00  0.00    +0.000 C 
ATOM      7  C   UNL     1       7.681   5.362  12.442  0.00  0.00    +0.000 C 
ATOM      8  C   UNL     1       7.427   4.045  11.702  0.00  0.00    +0.000 C 
ATOM      9  C   UNL     1       6.108   3.392  12.121  0.00  0.00    +0.000 C 
ATOM     10  C   UNL     1       5.971   3.298  13.643  0.00  0.00    +0.000 C 
ATOM     11  N   UNL     1       5.638   6.287  15.736  0.00  0.00    +0.000 NA
ATOM     12  C   UNL     1       4.878   6.667  16.784  0.00  0.00    +0.000 A 
ATOM     13  C   UNL     1       4.000   5.844  17.458  0.00  0.00    +0.000 A 
ENDROOT
BRANCH  13  14
ATOM     14  C   UNL     1       3.241   6.332  18.600  0.00  0.00    +0.000 A 
ATOM     15  C   UNL     1       2.443   7.510  18.693  0.00  0.00    +0.000 A 
ATOM     16  C   UNL     1       1.963   7.531  19.979  0.00  0.00    +0.000 A 
ATOM     17  N   UNL     1       2.465   6.416  20.578  0.00  0.00    +0.000 N 
ATOM     18  N   UNL     1       3.243   5.679  19.775  0.00  0.00    +0.000 NA
ATOM     19  H   UNL     1       2.317   6.111  21.534  0.00  0.00    +0.000 HD
BRANCH  16  20
ATOM     20  O   UNL     1       1.183   8.368  20.649  0.00  0.00    +0.000 OA
ATOM     21  H   UNL     1       0.274   8.021  20.607  0.00  0.00    +0.000 HD
ENDBRANCH  16  20
ENDBRANCH  13  14
TORSDOF 2
ENDMDL
MODEL 9
REMARK VINA RESULT:      -6.7      5.759      8.149
REMARK  Name = 
REMARK  3 active torsions:
REMARK  status: ('A' for Active; 'I' for Inactive)
REMARK    1  A    between atoms: C_1  and  C_2
REMARK    2  A    between atoms: C_13  and  C_14
REMARK    3  A    between atoms: C_16  and  O_17
REMARK                            x       y       z     vdW  Elec       q    Type
REMARK                         _______ _______ _______ _____ _____    ______ ____
ROOT
ATOM      1  C   UNL     1       0.781   8.438  21.307  0.00  0.00    +0.000 C 
ATOM      2  C   UNL     1       1.369   8.553  19.932  0.00  0.00    +0.000 A 
ATOM      3  N   UNL     1       2.226   7.553  19.610  0.00  0.00    +0.000 NA
ATOM      4  C   UNL     1       2.806   7.550  18.403  0.00  0.00    +0.000 A 
ATOM      5  N   UNL     1       3.620   6.497  18.063  0.00  0.00    +0.000 N 
ATOM      6  C   UNL     1       4.730   6.742  17.159  0.00  0.00    +0.000 C 
ATOM      7  C   UNL     1       4.892   5.504  16.278  0.00  0.00    +0.000 C 
ATOM      8  C   UNL     1       5.045   4.235  17.122  0.00  0.00    +0.000 C 
ATOM      9  C   UNL     1       3.948   4.111  18.183  0.00  0.00    +0.000 C 
ATOM     10  C   UNL     1       3.790   5.396  18.999  0.00  0.00    +0.000 C 
ATOM     11  N   UNL     1       2.557   8.498  17.488  0.00  0.00    +0.000 NA
ATOM     12  C   UNL     1       1.684   9.471  17.824  0.00  0.00    +0.000 A 
ATOM     13  C   UNL     1       1.050   9.570  19.046  0.00  0.00    +0.000 A 
ENDROOT
BRANCH  13  14
ATOM     14  C   UNL     1       0.145  10.672  19.334  0.00  0.00    +0.000 A 
ATOM     15  C   UNL     1      -1.220  10.819  18.949  0.00  0.00    +0.000 A 
ATOM     16  C   UNL     1      -1.615  12.038  19.443  0.00  0.00    +0.000 A 
ATOM     17  N   UNL     1      -0.523  12.549  20.075  0.00  0.00    +0.000 N 
ATOM     18  N   UNL     1       0.553  11.754  20.021  0.00  0.00    +0.000 NA
ATOM     19  H   UNL     1      -0.451  13.439  20.556  0.00  0.00    +0.000 HD
BRANCH  16  20
ATOM     20  O   UNL     1      -2.754  12.714  19.400  0.00  0.00    +0.000 OA
ATOM     21  H   UNL     1      -3.446  12.149  19.789  0.00  0.00    +0.000 HD
ENDBRANCH  16  20
ENDBRANCH  13  14
TORSDOF 2
ENDMDL
