MODEL 1
REMARK VINA RESULT:      -7.9      0.000      0.000
REMARK  Name = 
REMARK  5 active torsions:
REMARK  status: ('A' for Active; 'I' for Inactive)
REMARK    1  A    between atoms: C_1  and  O_2
REMARK    2  A    between atoms: O_2  and  C_3
REMARK    3  A    between atoms: C_6  and  C_7
REMARK    4  A    between atoms: C_7  and  C_8
REMARK    5  A    between atoms: C_9  and  C_10
REMARK                            x       y       z     vdW  Elec       q    Type
REMARK                         _______ _______ _______ _____ _____    ______ ____
ROOT
ATOM      1  C   UNL     1       1.824   8.073  19.232  0.00  0.00    +0.000 C 
ATOM      2  C   UNL     1       1.950   8.664  17.851  0.00  0.00    +0.000 C 
ATOM      3  C   UNL     1       2.385   6.890  19.553  0.00  0.00    +0.000 C 
ENDROOT
BRANCH   3   4
ATOM      4  C   UNL     1       3.186   6.046  18.657  0.00  0.00    +0.000 A 
ATOM      5  C   UNL     1       2.618   4.884  18.131  0.00  0.00    +0.000 A 
ATOM      6  C   UNL     1       3.306   4.132  17.177  0.00  0.00    +0.000 A 
ATOM      7  C   UNL     1       4.574   4.531  16.731  0.00  0.00    +0.000 A 
ATOM      8  C   UNL     1       5.243   3.828  15.717  0.00  0.00    +0.000 A 
ATOM      9  C   UNL     1       6.501   4.237  15.274  0.00  0.00    +0.000 A 
ATOM     10  C   UNL     1       7.118   5.338  15.861  0.00  0.00    +0.000 A 
ATOM     11  C   UNL     1       6.466   6.049  16.871  0.00  0.00    +0.000 A 
ATOM     12  C   UNL     1       5.183   5.673  17.303  0.00  0.00    +0.000 A 
ATOM     13  C   UNL     1       4.476   6.421  18.265  0.00  0.00    +0.000 A 
ENDBRANCH   3   4
BRANCH   1  17
ATOM     14  C   UNL     1      -0.223  10.391  22.269  0.00  0.00    +0.000 A 
ATOM     15  C   UNL     1       0.595   9.317  22.619  0.00  0.00    +0.000 A 
ATOM     16  C   UNL     1       1.256   8.570  21.637  0.00  0.00    +0.000 A 
ATOM     17  C   UNL     1       1.110   8.870  20.275  0.00  0.00    +0.000 A 
ATOM     18  C   UNL     1       0.275   9.951  19.939  0.00  0.00    +0.000 A 
ATOM     19  C   UNL     1      -0.393  10.698  20.924  0.00  0.00    +0.000 A 
BRANCH  14  21
ATOM     20  C   UNL     1      -1.908  11.892  22.990  0.00  0.00    +0.000 C 
ATOM     21  O   UNL     1      -0.823  11.032  23.318  0.00  0.00    +0.000 OA
ENDBRANCH  14  21
ENDBRANCH   1  17
TORSDOF 3
ENDMDL
MODEL 2
REMARK VINA RESULT:      -7.8      0.177      1.058
REMARK  Name = 
REMARK  5 active torsions:
REMARK  status: ('A' for Active; 'I' for Inactive)
REMARK    1  A    between atoms: C_1  and  O_2
REMARK    2  A    between atoms: O_2  and  C_3
REMARK    3  A    between atoms: C_6  and  C_7
REMARK    4  A    between atoms: C_7  and  C_8
REMARK    5  A    between atoms: C_9  and  C_10
REMARK                            x       y       z     vdW  Elec       q    Type
REMARK                         _______ _______ _______ _____ _____    ______ ____
ROOT
ATOM      1  C   UNL     1       1.846   8.089  19.243  0.00  0.00    +0.000 C 
ATOM      2  C   UNL     1       1.883   8.644  17.841  0.00  0.00    +0.000 C 
ATOM      3  C   UNL     1       2.437   6.920  19.561  0.00  0.00    +0.000 C 
ENDROOT
BRANCH   3   4
ATOM      4  C   UNL     1       3.193   6.059  18.641  0.00  0.00    +0.000 A 
ATOM      5  C   UNL     1       2.600   4.886  18.169  0.00  0.00    +0.000 A 
ATOM      6  C   UNL     1       3.240   4.117  17.195  0.00  0.00    +0.000 A 
ATOM      7  C   UNL     1       4.483   4.508  16.676  0.00  0.00    +0.000 A 
ATOM      8  C   UNL     1       5.099   3.786  15.642  0.00  0.00    +0.000 A 
ATOM      9  C   UNL     1       6.332   4.188  15.126  0.00  0.00    +0.000 A 
ATOM     10  C   UNL     1       6.976   5.301  15.659  0.00  0.00    +0.000 A 
ATOM     11  C   UNL     1       6.376   6.032  16.687  0.00  0.00    +0.000 A 
ATOM     12  C   UNL     1       5.117   5.662  17.193  0.00  0.00    +0.000 A 
ATOM     13  C   UNL     1       4.460   6.428  18.175  0.00  0.00    +0.000 A 
ENDBRANCH   3   4
BRANCH   1  17
ATOM     14  C   UNL     1      -0.091  10.461  22.310  0.00  0.00    +0.000 A 
ATOM     15  C   UNL     1      -0.140  10.847  20.970  0.00  0.00    +0.000 A 
ATOM     16  C   UNL     1       0.486  10.079  19.981  0.00  0.00    +0.000 A 
ATOM     17  C   UNL     1       1.186   8.907  20.305  0.00  0.00    +0.000 A 
ATOM     18  C   UNL     1       1.231   8.538  21.661  0.00  0.00    +0.000 A 
ATOM     19  C   UNL     1       0.608   9.310  22.655  0.00  0.00    +0.000 A 
BRANCH  14  21
ATOM     20  C   UNL     1      -1.844  12.015  22.660  0.00  0.00    +0.000 C 
ATOM     21  O   UNL     1      -0.729  11.302  23.181  0.00  0.00    +0.000 OA
ENDBRANCH  14  21
ENDBRANCH   1  17
TORSDOF 3
ENDMDL
MODEL 3
REMARK VINA RESULT:      -7.6      3.031      8.483
REMARK  Name = 
REMARK  5 active torsions:
REMARK  status: ('A' for Active; 'I' for Inactive)
REMARK    1  A    between atoms: C_1  and  O_2
REMARK    2  A    between atoms: O_2  and  C_3
REMARK    3  A    between atoms: C_6  and  C_7
REMARK    4  A    between atoms: C_7  and  C_8
REMARK    5  A    between atoms: C_9  and  C_10
REMARK                            x       y       z     vdW  Elec       q    Type
REMARK                         _______ _______ _______ _____ _____    ______ ____
ROOT
ATOM      1  C   UNL     1       2.777   6.699  18.474  0.00  0.00    +0.000 C 
ATOM      2  C   UNL     1       2.313   6.047  19.752  0.00  0.00    +0.000 C 
ATOM      3  C   UNL     1       2.453   7.971  18.167  0.00  0.00    +0.000 C 
ENDROOT
BRANCH   3   4
ATOM      4  C   UNL     1       1.656   8.881  18.999  0.00  0.00    +0.000 A 
ATOM      5  C   UNL     1       0.966   9.930  18.387  0.00  0.00    +0.000 A 
ATOM      6  C   UNL     1       0.099  10.732  19.132  0.00  0.00    +0.000 A 
ATOM      7  C   UNL     1      -0.095  10.497  20.501  0.00  0.00    +0.000 A 
ATOM      8  C   UNL     1      -1.023  11.244  21.244  0.00  0.00    +0.000 A 
ATOM      9  C   UNL     1      -1.214  10.997  22.603  0.00  0.00    +0.000 A 
ATOM     10  C   UNL     1      -0.459  10.018  23.243  0.00  0.00    +0.000 A 
ATOM     11  C   UNL     1       0.467   9.264  22.519  0.00  0.00    +0.000 A 
ATOM     12  C   UNL     1       0.646   9.475  21.140  0.00  0.00    +0.000 A 
ATOM     13  C   UNL     1       1.518   8.675  20.376  0.00  0.00    +0.000 A 
ENDBRANCH   3   4
BRANCH   1  17
ATOM     14  C   UNL     1       5.359   4.415  15.847  0.00  0.00    +0.000 A 
ATOM     15  C   UNL     1       4.465   3.775  16.704  0.00  0.00    +0.000 A 
ATOM     16  C   UNL     1       3.631   4.514  17.551  0.00  0.00    +0.000 A 
ATOM     17  C   UNL     1       3.675   5.916  17.572  0.00  0.00    +0.000 A 
ATOM     18  C   UNL     1       4.588   6.545  16.707  0.00  0.00    +0.000 A 
ATOM     19  C   UNL     1       5.429   5.804  15.859  0.00  0.00    +0.000 A 
BRANCH  14  21
ATOM     20  C   UNL     1       6.283   3.954  13.715  0.00  0.00    +0.000 C 
ATOM     21  O   UNL     1       6.127   3.583  15.079  0.00  0.00    +0.000 OA
ENDBRANCH  14  21
ENDBRANCH   1  17
TORSDOF 3
ENDMDL
MODEL 4
REMARK VINA RESULT:      -7.6      3.037      8.502
REMARK  Name = 
REMARK  5 active torsions:
REMARK  status: ('A' for Active; 'I' for Inactive)
REMARK    1  A    between atoms: C_1  and  O_2
REMARK    2  A    between atoms: O_2  and  C_3
REMARK    3  A    between atoms: C_6  and  C_7
REMARK    4  A    between atoms: C_7  and  C_8
REMARK    5  A    between atoms: C_9  and  C_10
REMARK                            x       y       z     vdW  Elec       q    Type
REMARK                         _______ _______ _______ _____ _____    ______ ____
ROOT
ATOM      1  C   UNL     1       2.795   6.602  18.464  0.00  0.00    +0.000 C 
ATOM      2  C   UNL     1       2.297   5.959  19.735  0.00  0.00    +0.000 C 
ATOM      3  C   UNL     1       2.494   7.877  18.148  0.00  0.00    +0.000 C 
ENDROOT
BRANCH   3   4
ATOM      4  C   UNL     1       1.693   8.800  18.962  0.00  0.00    +0.000 A 
ATOM      5  C   UNL     1       0.995   9.831  18.329  0.00  0.00    +0.000 A 
ATOM      6  C   UNL     1       0.124  10.643  19.058  0.00  0.00    +0.000 A 
ATOM      7  C   UNL     1      -0.064  10.437  20.433  0.00  0.00    +0.000 A 
ATOM      8  C   UNL     1      -0.995  11.195  21.161  0.00  0.00    +0.000 A 
ATOM      9  C   UNL     1      -1.181  10.977  22.526  0.00  0.00    +0.000 A 
ATOM     10  C   UNL     1      -0.418  10.018  23.185  0.00  0.00    +0.000 A 
ATOM     11  C   UNL     1       0.511   9.254  22.475  0.00  0.00    +0.000 A 
ATOM     12  C   UNL     1       0.685   9.434  21.092  0.00  0.00    +0.000 A 
ATOM     13  C   UNL     1       1.560   8.624  20.343  0.00  0.00    +0.000 A 
ENDBRANCH   3   4
BRANCH   1  17
ATOM     14  C   UNL     1       5.441   4.301  15.917  0.00  0.00    +0.000 A 
ATOM     15  C   UNL     1       5.485   5.695  15.920  0.00  0.00    +0.000 A 
ATOM     16  C   UNL     1       4.630   6.436  16.744  0.00  0.00    +0.000 A 
ATOM     17  C   UNL     1       3.699   5.805  17.583  0.00  0.00    +0.000 A 
ATOM     18  C   UNL     1       3.665   4.399  17.561  0.00  0.00    +0.000 A 
ATOM     19  C   UNL     1       4.519   3.653  16.731  0.00  0.00    +0.000 A 
BRANCH  14  21
ATOM     20  C   UNL     1       6.092   3.915  13.672  0.00  0.00    +0.000 C 
ATOM     21  O   UNL     1       6.317   3.693  15.059  0.00  0.00    +0.000 OA
ENDBRANCH  14  21
ENDBRANCH   1  17
TORSDOF 3
ENDMDL
MODEL 5
REMARK VINA RESULT:      -7.4      1.021      1.102
REMARK  Name = 
REMARK  5 active torsions:
REMARK  status: ('A' for Active; 'I' for Inactive)
REMARK    1  A    between atoms: C_1  and  O_2
REMARK    2  A    between atoms: O_2  and  C_3
REMARK    3  A    between atoms: C_6  and  C_7
REMARK    4  A    between atoms: C_7  and  C_8
REMARK    5  A    between atoms: C_9  and  C_10
REMARK                            x       y       z     vdW  Elec       q    Type
REMARK                         _______ _______ _______ _____ _____    ______ ____
ROOT
ATOM      1  C   UNL     1       1.377   8.654  19.493  0.00  0.00    +0.000 C 
ATOM      2  C   UNL     1       1.429   9.087  18.049  0.00  0.00    +0.000 C 
ATOM      3  C   UNL     1       1.968   7.518  19.916  0.00  0.00    +0.000 C 
ENDROOT
BRANCH   3   4
ATOM      4  C   UNL     1       2.736   6.586  19.082  0.00  0.00    +0.000 A 
ATOM      5  C   UNL     1       2.531   5.213  19.235  0.00  0.00    +0.000 A 
ATOM      6  C   UNL     1       3.149   4.308  18.369  0.00  0.00    +0.000 A 
ATOM      7  C   UNL     1       3.980   4.760  17.335  0.00  0.00    +0.000 A 
ATOM      8  C   UNL     1       4.544   3.866  16.410  0.00  0.00    +0.000 A 
ATOM      9  C   UNL     1       5.364   4.327  15.380  0.00  0.00    +0.000 A 
ATOM     10  C   UNL     1       5.653   5.685  15.279  0.00  0.00    +0.000 A 
ATOM     11  C   UNL     1       5.099   6.588  16.189  0.00  0.00    +0.000 A 
ATOM     12  C   UNL     1       4.241   6.145  17.211  0.00  0.00    +0.000 A 
ATOM     13  C   UNL     1       3.612   7.046  18.092  0.00  0.00    +0.000 A 
ENDBRANCH   3   4
BRANCH   1  17
ATOM     14  C   UNL     1      -0.556  11.271  22.356  0.00  0.00    +0.000 A 
ATOM     15  C   UNL     1      -0.257   9.949  22.684  0.00  0.00    +0.000 A 
ATOM     16  C   UNL     1       0.368   9.106  21.758  0.00  0.00    +0.000 A 
ATOM     17  C   UNL     1       0.704   9.558  20.473  0.00  0.00    +0.000 A 
ATOM     18  C   UNL     1       0.388  10.891  20.158  0.00  0.00    +0.000 A 
ATOM     19  C   UNL     1      -0.244  11.738  21.084  0.00  0.00    +0.000 A 
BRANCH  14  21
ATOM     20  C   UNL     1      -1.237  13.397  23.148  0.00  0.00    +0.000 C 
ATOM     21  O   UNL     1      -1.179  11.989  23.341  0.00  0.00    +0.000 OA
ENDBRANCH  14  21
ENDBRANCH   1  17
TORSDOF 3
ENDMDL
MODEL 6
REMARK VINA RESULT:      -7.4      1.045      1.465
REMARK  Name = 
REMARK  5 active torsions:
REMARK  status: ('A' for Active; 'I' for Inactive)
REMARK    1  A    between atoms: C_1  and  O_2
REMARK    2  A    between atoms: O_2  and  C_3
REMARK    3  A    between atoms: C_6  and  C_7
REMARK    4  A    between atoms: C_7  and  C_8
REMARK    5  A    between atoms: C_9  and  C_10
REMARK                            x       y       z     vdW  Elec       q    Type
REMARK                         _______ _______ _______ _____ _____    ______ ____
ROOT
ATOM      1  C   UNL     1       1.412   8.591  19.638  0.00  0.00    +0.000 C 
ATOM      2  C   UNL     1       1.487   9.071  18.210  0.00  0.00    +0.000 C 
ATOM      3  C   UNL     1       1.974   7.429  20.027  0.00  0.00    +0.000 C 
ENDROOT
BRANCH   3   4
ATOM      4  C   UNL     1       2.729   6.508  19.169  0.00  0.00    +0.000 A 
ATOM      5  C   UNL     1       2.510   5.134  19.291  0.00  0.00    +0.000 A 
ATOM      6  C   UNL     1       3.115   4.242  18.403  0.00  0.00    +0.000 A 
ATOM      7  C   UNL     1       3.947   4.710  17.375  0.00  0.00    +0.000 A 
ATOM      8  C   UNL     1       4.498   3.832  16.429  0.00  0.00    +0.000 A 
ATOM      9  C   UNL     1       5.318   4.307  15.405  0.00  0.00    +0.000 A 
ATOM     10  C   UNL     1       5.620   5.664  15.334  0.00  0.00    +0.000 A 
ATOM     11  C   UNL     1       5.080   6.552  16.267  0.00  0.00    +0.000 A 
ATOM     12  C   UNL     1       4.222   6.095  17.282  0.00  0.00    +0.000 A 
ATOM     13  C   UNL     1       3.605   6.982  18.186  0.00  0.00    +0.000 A 
ENDBRANCH   3   4
BRANCH   1  17
ATOM     14  C   UNL     1      -0.526  11.169  22.533  0.00  0.00    +0.000 A 
ATOM     15  C   UNL     1       0.016  11.692  21.360  0.00  0.00    +0.000 A 
ATOM     16  C   UNL     1       0.642  10.858  20.426  0.00  0.00    +0.000 A 
ATOM     17  C   UNL     1       0.750   9.476  20.642  0.00  0.00    +0.000 A 
ATOM     18  C   UNL     1       0.204   8.967  21.834  0.00  0.00    +0.000 A 
ATOM     19  C   UNL     1      -0.420   9.804  22.775  0.00  0.00    +0.000 A 
BRANCH  14  21
ATOM     20  C   UNL     1      -1.151  13.426  22.890  0.00  0.00    +0.000 C 
ATOM     21  O   UNL     1      -1.098  12.088  23.370  0.00  0.00    +0.000 OA
ENDBRANCH  14  21
ENDBRANCH   1  17
TORSDOF 3
ENDMDL
MODEL 7
REMARK VINA RESULT:      -7.2      2.381      3.710
REMARK  Name = 
REMARK  5 active torsions:
REMARK  status: ('A' for Active; 'I' for Inactive)
REMARK    1  A    between atoms: C_1  and  O_2
REMARK    2  A    between atoms: O_2  and  C_3
REMARK    3  A    between atoms: C_6  and  C_7
REMARK    4  A    between atoms: C_7  and  C_8
REMARK    5  A    between atoms: C_9  and  C_10
REMARK                            x       y       z     vdW  Elec       q    Type
REMARK                         _______ _______ _______ _____ _____    ______ ____
ROOT
ATOM      1  C   UNL     1       1.607   9.002  18.975  0.00  0.00    +0.000 C 
ATOM      2  C   UNL     1       1.580   8.289  20.304  0.00  0.00    +0.000 C 
ATOM      3  C   UNL     1       2.092   8.414  17.863  0.00  0.00    +0.000 C 
ENDROOT
BRANCH   3   4
ATOM      4  C   UNL     1       2.622   7.047  17.773  0.00  0.00    +0.000 A 
ATOM      5  C   UNL     1       3.998   6.861  17.626  0.00  0.00    +0.000 A 
ATOM      6  C   UNL     1       4.544   5.577  17.668  0.00  0.00    +0.000 A 
ATOM      7  C   UNL     1       3.723   4.456  17.860  0.00  0.00    +0.000 A 
ATOM      8  C   UNL     1       4.267   3.168  17.983  0.00  0.00    +0.000 A 
ATOM      9  C   UNL     1       3.442   2.060  18.182  0.00  0.00    +0.000 A 
ATOM     10  C   UNL     1       2.061   2.225  18.232  0.00  0.00    +0.000 A 
ATOM     11  C   UNL     1       1.503   3.499  18.113  0.00  0.00    +0.000 A 
ATOM     12  C   UNL     1       2.321   4.631  17.949  0.00  0.00    +0.000 A 
ATOM     13  C   UNL     1       1.785   5.933  17.904  0.00  0.00    +0.000 A 
ENDBRANCH   3   4
BRANCH   1  17
ATOM     14  C   UNL     1      -0.103  12.976  18.733  0.00  0.00    +0.000 A 
ATOM     15  C   UNL     1       1.265  12.775  18.554  0.00  0.00    +0.000 A 
ATOM     16  C   UNL     1       1.815  11.490  18.632  0.00  0.00    +0.000 A 
ATOM     17  C   UNL     1       1.014  10.370  18.900  0.00  0.00    +0.000 A 
ATOM     18  C   UNL     1      -0.363  10.594  19.084  0.00  0.00    +0.000 A 
ATOM     19  C   UNL     1      -0.916  11.883  19.011  0.00  0.00    +0.000 A 
BRANCH  14  21
ATOM     20  C   UNL     1       0.449  15.266  18.987  0.00  0.00    +0.000 C 
ATOM     21  O   UNL     1      -0.516  14.278  18.646  0.00  0.00    +0.000 OA
ENDBRANCH  14  21
ENDBRANCH   1  17
TORSDOF 3
ENDMDL
MODEL 8
REMARK VINA RESULT:      -7.2      3.017      8.513
REMARK  Name = 
REMARK  5 active torsions:
REMARK  status: ('A' for Active; 'I' for Inactive)
REMARK    1  A    between atoms: C_1  and  O_2
REMARK    2  A    between atoms: O_2  and  C_3
REMARK    3  A    between atoms: C_6  and  C_7
REMARK    4  A    between atoms: C_7  and  C_8
REMARK    5  A    between atoms: C_9  and  C_10
REMARK                            x       y       z     vdW  Elec       q    Type
REMARK                         _______ _______ _______ _____ _____    ______ ____
ROOT
ATOM      1  C   UNL     1       2.647   6.371  18.654  0.00  0.00    +0.000 C 
ATOM      2  C   UNL     1       1.887   5.417  19.542  0.00  0.00    +0.000 C 
ATOM      3  C   UNL     1       2.474   7.705  18.734  0.00  0.00    +0.000 C 
ENDROOT
BRANCH   3   4
ATOM      4  C   UNL     1       1.582   8.404  19.668  0.00  0.00    +0.000 A 
ATOM      5  C   UNL     1       1.621   8.068  21.023  0.00  0.00    +0.000 A 
ATOM      6  C   UNL     1       0.881   8.802  21.952  0.00  0.00    +0.000 A 
ATOM      7  C   UNL     1       0.091   9.885  21.543  0.00  0.00    +0.000 A 
ATOM      8  C   UNL     1      -0.595  10.679  22.476  0.00  0.00    +0.000 A 
ATOM      9  C   UNL     1      -1.372  11.760  22.059  0.00  0.00    +0.000 A 
ATOM     10  C   UNL     1      -1.495  12.043  20.702  0.00  0.00    +0.000 A 
ATOM     11  C   UNL     1      -0.818  11.264  19.761  0.00  0.00    +0.000 A 
ATOM     12  C   UNL     1      -0.001  10.194  20.165  0.00  0.00    +0.000 A 
ATOM     13  C   UNL     1       0.750   9.444  19.240  0.00  0.00    +0.000 A 
ENDBRANCH   3   4
BRANCH   1  17
ATOM     14  C   UNL     1       5.565   4.705  15.918  0.00  0.00    +0.000 A 
ATOM     15  C   UNL     1       4.710   3.875  16.643  0.00  0.00    +0.000 A 
ATOM     16  C   UNL     1       3.767   4.415  17.526  0.00  0.00    +0.000 A 
ATOM     17  C   UNL     1       3.659   5.801  17.716  0.00  0.00    +0.000 A 
ATOM     18  C   UNL     1       4.535   6.621  16.982  0.00  0.00    +0.000 A 
ATOM     19  C   UNL     1       5.484   6.080  16.099  0.00  0.00    +0.000 A 
BRANCH  14  21
ATOM     20  C   UNL     1       6.057   3.917  13.738  0.00  0.00    +0.000 C 
ATOM     21  O   UNL     1       6.449   4.056  15.099  0.00  0.00    +0.000 OA
ENDBRANCH  14  21
ENDBRANCH   1  17
TORSDOF 3
ENDMDL
MODEL 9
REMARK VINA RESULT:      -7.1      2.171      3.484
REMARK  Name = 
REMARK  5 active torsions:
REMARK  status: ('A' for Active; 'I' for Inactive)
REMARK    1  A    between atoms: C_1  and  O_2
REMARK    2  A    between atoms: O_2  and  C_3
REMARK    3  A    between atoms: C_6  and  C_7
REMARK    4  A    between atoms: C_7  and  C_8
REMARK    5  A    between atoms: C_9  and  C_10
REMARK                            x       y       z     vdW  Elec       q    Type
REMARK                         _______ _______ _______ _____ _____    ______ ____
ROOT
ATOM      1  C   UNL     1       1.567   8.911  19.183  0.00  0.00    +0.000 C 
ATOM      2  C   UNL     1       1.557   8.101  20.455  0.00  0.00    +0.000 C 
ATOM      3  C   UNL     1       2.051   8.412  18.027  0.00  0.00    +0.000 C 
ENDROOT
BRANCH   3   4
ATOM      4  C   UNL     1       2.594   7.062  17.833  0.00  0.00    +0.000 A 
ATOM      5  C   UNL     1       3.957   6.910  17.568  0.00  0.00    +0.000 A 
ATOM      6  C   UNL     1       4.525   5.637  17.508  0.00  0.00    +0.000 A 
ATOM      7  C   UNL     1       3.741   4.492  17.712  0.00  0.00    +0.000 A 
ATOM      8  C   UNL     1       4.314   3.211  17.732  0.00  0.00    +0.000 A 
ATOM      9  C   UNL     1       3.527   2.079  17.944  0.00  0.00    +0.000 A 
ATOM     10  C   UNL     1       2.151   2.214  18.111  0.00  0.00    +0.000 A 
ATOM     11  C   UNL     1       1.565   3.481  18.096  0.00  0.00    +0.000 A 
ATOM     12  C   UNL     1       2.349   4.635  17.920  0.00  0.00    +0.000 A 
ATOM     13  C   UNL     1       1.789   5.926  17.978  0.00  0.00    +0.000 A 
ENDBRANCH   3   4
BRANCH   1  17
ATOM     14  C   UNL     1      -0.198  12.867  19.299  0.00  0.00    +0.000 A 
ATOM     15  C   UNL     1      -0.859  11.773  19.856  0.00  0.00    +0.000 A 
ATOM     16  C   UNL     1      -0.287  10.496  19.818  0.00  0.00    +0.000 A 
ATOM     17  C   UNL     1       0.959  10.275  19.213  0.00  0.00    +0.000 A 
ATOM     18  C   UNL     1       1.608  11.389  18.651  0.00  0.00    +0.000 A 
ATOM     19  C   UNL     1       1.032  12.670  18.684  0.00  0.00    +0.000 A 
BRANCH  14  21
ATOM     20  C   UNL     1      -0.107  15.226  19.103  0.00  0.00    +0.000 C 
ATOM     21  O   UNL     1      -0.867  14.058  19.389  0.00  0.00    +0.000 OA
ENDBRANCH  14  21
ENDBRANCH   1  17
TORSDOF 3
ENDMDL
