MODEL 1
REMARK VINA RESULT:      -7.1      0.000      0.000
REMARK  Name = 
REMARK  4 active torsions:
REMARK  status: ('A' for Active; 'I' for Inactive)
REMARK    1  A    between atoms: C_1  and  O_2
REMARK    2  A    between atoms: O_2  and  C_3
REMARK    3  A    between atoms: C_6  and  N_7
REMARK    4  A    between atoms: C_12  and  C_13
REMARK                            x       y       z     vdW  Elec       q    Type
REMARK                         _______ _______ _______ _____ _____    ______ ____
ROOT
ATOM      1  N   UNL     1       4.916   5.551  16.537  0.00  0.00    +0.000 N 
ATOM      2  C   UNL     1       5.206   6.870  16.880  0.00  0.00    +0.000 C 
ATOM      3  O   UNL     1       6.313   7.394  16.878  0.00  0.00    +0.000 OA
ATOM      4  C   UNL     1       3.963   7.673  17.204  0.00  0.00    +0.000 C 
ATOM      5  S   UNL     1       3.101   6.979  18.623  0.00  0.00    +0.000 S 
ATOM      6  C   UNL     1       2.944   5.267  18.002  0.00  0.00    +0.000 C 
ATOM      7  C   UNL     1       4.294   4.737  17.496  0.00  0.00    +0.000 C 
ATOM      8  O   UNL     1       4.746   3.637  17.826  0.00  0.00    +0.000 OA
ENDROOT
BRANCH   1  12
ATOM      9  C   UNL     1       6.616   3.907  12.995  0.00  0.00    +0.000 A 
ATOM     10  C   UNL     1       7.432   4.567  13.913  0.00  0.00    +0.000 A 
ATOM     11  C   UNL     1       6.908   5.070  15.111  0.00  0.00    +0.000 A 
ATOM     12  C   UNL     1       5.549   4.918  15.413  0.00  0.00    +0.000 A 
ATOM     13  C   UNL     1       4.745   4.258  14.465  0.00  0.00    +0.000 A 
ATOM     14  C   UNL     1       5.265   3.765  13.269  0.00  0.00    +0.000 A 
BRANCH   9  16
ATOM     15  C   UNL     1       6.821   2.211  11.376  0.00  0.00    +0.000 C 
ATOM     16  O   UNL     1       7.231   3.490  11.849  0.00  0.00    +0.000 OA
ENDBRANCH   9  16
ENDBRANCH   1  12
BRANCH   6  17
ATOM     17  C   UNL     1       2.252   4.413  19.051  0.00  0.00    +0.000 A 
ATOM     18  C   UNL     1       2.567   4.591  20.410  0.00  0.00    +0.000 A 
ATOM     19  C   UNL     1       2.039   3.739  21.382  0.00  0.00    +0.000 A 
ATOM     20  C   UNL     1       1.184   2.703  21.014  0.00  0.00    +0.000 A 
ATOM     21  C   UNL     1       0.840   2.529  19.676  0.00  0.00    +0.000 A 
ATOM     22  C   UNL     1       1.371   3.374  18.703  0.00  0.00    +0.000 A 
ENDBRANCH   6  17
TORSDOF 3
ENDMDL
MODEL 2
REMARK VINA RESULT:      -7.0      0.185      1.044
REMARK  Name = 
REMARK  4 active torsions:
REMARK  status: ('A' for Active; 'I' for Inactive)
REMARK    1  A    between atoms: C_1  and  O_2
REMARK    2  A    between atoms: O_2  and  C_3
REMARK    3  A    between atoms: C_6  and  N_7
REMARK    4  A    between atoms: C_12  and  C_13
REMARK                            x       y       z     vdW  Elec       q    Type
REMARK                         _______ _______ _______ _____ _____    ______ ____
ROOT
ATOM      1  N   UNL     1       5.026   5.476  16.418  0.00  0.00    +0.000 N 
ATOM      2  C   UNL     1       5.300   6.801  16.755  0.00  0.00    +0.000 C 
ATOM      3  O   UNL     1       6.397   7.346  16.722  0.00  0.00    +0.000 OA
ATOM      4  C   UNL     1       4.052   7.579  17.113  0.00  0.00    +0.000 C 
ATOM      5  S   UNL     1       3.243   6.868  18.556  0.00  0.00    +0.000 S 
ATOM      6  C   UNL     1       3.102   5.154  17.938  0.00  0.00    +0.000 C 
ATOM      7  C   UNL     1       4.447   4.650  17.394  0.00  0.00    +0.000 C 
ATOM      8  O   UNL     1       4.930   3.559  17.710  0.00  0.00    +0.000 OA
ENDROOT
BRANCH   1  12
ATOM      9  C   UNL     1       6.654   3.862  12.829  0.00  0.00    +0.000 A 
ATOM     10  C   UNL     1       7.480   4.554  13.714  0.00  0.00    +0.000 A 
ATOM     11  C   UNL     1       6.982   5.049  14.926  0.00  0.00    +0.000 A 
ATOM     12  C   UNL     1       5.640   4.856  15.277  0.00  0.00    +0.000 A 
ATOM     13  C   UNL     1       4.824   4.164  14.361  0.00  0.00    +0.000 A 
ATOM     14  C   UNL     1       5.318   3.679  13.151  0.00  0.00    +0.000 A 
BRANCH   9  16
ATOM     15  C   UNL     1       6.995   2.102  11.304  0.00  0.00    +0.000 C 
ATOM     16  O   UNL     1       7.242   3.457  11.664  0.00  0.00    +0.000 OA
ENDBRANCH   9  16
ENDBRANCH   1  12
BRANCH   6  17
ATOM     17  C   UNL     1       2.456   4.286  19.005  0.00  0.00    +0.000 A 
ATOM     18  C   UNL     1       1.468   3.354  18.637  0.00  0.00    +0.000 A 
ATOM     19  C   UNL     1       0.771   2.633  19.609  0.00  0.00    +0.000 A 
ATOM     20  C   UNL     1       1.055   2.824  20.959  0.00  0.00    +0.000 A 
ATOM     21  C   UNL     1       2.049   3.722  21.339  0.00  0.00    +0.000 A 
ATOM     22  C   UNL     1       2.741   4.448  20.371  0.00  0.00    +0.000 A 
ENDBRANCH   6  17
TORSDOF 3
ENDMDL
MODEL 3
REMARK VINA RESULT:      -6.9      2.718      4.028
REMARK  Name = 
REMARK  4 active torsions:
REMARK  status: ('A' for Active; 'I' for Inactive)
REMARK    1  A    between atoms: C_1  and  O_2
REMARK    2  A    between atoms: O_2  and  C_3
REMARK    3  A    between atoms: C_6  and  N_7
REMARK    4  A    between atoms: C_12  and  C_13
REMARK                            x       y       z     vdW  Elec       q    Type
REMARK                         _______ _______ _______ _____ _____    ______ ____
ROOT
ATOM      1  N   UNL     1       3.824   4.851  18.308  0.00  0.00    +0.000 N 
ATOM      2  C   UNL     1       3.279   3.650  18.759  0.00  0.00    +0.000 C 
ATOM      3  O   UNL     1       3.071   2.648  18.085  0.00  0.00    +0.000 OA
ATOM      4  C   UNL     1       3.018   3.654  20.251  0.00  0.00    +0.000 C 
ATOM      5  S   UNL     1       1.823   4.926  20.691  0.00  0.00    +0.000 S 
ATOM      6  C   UNL     1       2.674   6.343  19.910  0.00  0.00    +0.000 C 
ATOM      7  C   UNL     1       3.066   6.022  18.460  0.00  0.00    +0.000 C 
ATOM      8  O   UNL     1       2.824   6.782  17.518  0.00  0.00    +0.000 OA
ENDROOT
BRANCH   1  12
ATOM      9  C   UNL     1       6.905   5.124  15.380  0.00  0.00    +0.000 A 
ATOM     10  C   UNL     1       7.110   5.655  16.653  0.00  0.00    +0.000 A 
ATOM     11  C   UNL     1       6.134   5.531  17.651  0.00  0.00    +0.000 A 
ATOM     12  C   UNL     1       4.929   4.868  17.390  0.00  0.00    +0.000 A 
ATOM     13  C   UNL     1       4.741   4.352  16.094  0.00  0.00    +0.000 A 
ATOM     14  C   UNL     1       5.709   4.482  15.098  0.00  0.00    +0.000 A 
BRANCH   9  16
ATOM     15  C   UNL     1       7.598   4.996  13.135  0.00  0.00    +0.000 C 
ATOM     16  O   UNL     1       7.911   5.335  14.481  0.00  0.00    +0.000 OA
ENDBRANCH   9  16
ENDBRANCH   1  12
BRANCH   6  17
ATOM     17  C   UNL     1       1.842   7.600  20.105  0.00  0.00    +0.000 A 
ATOM     18  C   UNL     1       1.053   7.737  21.261  0.00  0.00    +0.000 A 
ATOM     19  C   UNL     1       0.186   8.822  21.408  0.00  0.00    +0.000 A 
ATOM     20  C   UNL     1       0.099   9.788  20.409  0.00  0.00    +0.000 A 
ATOM     21  C   UNL     1       0.894   9.682  19.271  0.00  0.00    +0.000 A 
ATOM     22  C   UNL     1       1.755   8.597  19.118  0.00  0.00    +0.000 A 
ENDBRANCH   6  17
TORSDOF 3
ENDMDL
MODEL 4
REMARK VINA RESULT:      -6.9      2.703      4.778
REMARK  Name = 
REMARK  4 active torsions:
REMARK  status: ('A' for Active; 'I' for Inactive)
REMARK    1  A    between atoms: C_1  and  O_2
REMARK    2  A    between atoms: O_2  and  C_3
REMARK    3  A    between atoms: C_6  and  N_7
REMARK    4  A    between atoms: C_12  and  C_13
REMARK                            x       y       z     vdW  Elec       q    Type
REMARK                         _______ _______ _______ _____ _____    ______ ____
ROOT
ATOM      1  N   UNL     1       5.773   5.520  17.342  0.00  0.00    +0.000 N 
ATOM      2  C   UNL     1       5.583   5.156  16.009  0.00  0.00    +0.000 C 
ATOM      3  O   UNL     1       5.597   5.909  15.043  0.00  0.00    +0.000 OA
ATOM      4  C   UNL     1       5.421   3.661  15.832  0.00  0.00    +0.000 C 
ATOM      5  S   UNL     1       3.969   3.063  16.711  0.00  0.00    +0.000 S 
ATOM      6  C   UNL     1       4.379   3.747  18.356  0.00  0.00    +0.000 C 
ATOM      7  C   UNL     1       4.750   5.234  18.260  0.00  0.00    +0.000 C 
ATOM      8  O   UNL     1       4.265   6.093  19.000  0.00  0.00    +0.000 OA
ENDROOT
BRANCH   1  12
ATOM      9  C   UNL     1       8.488   8.549  18.599  0.00  0.00    +0.000 A 
ATOM     10  C   UNL     1       8.557   7.279  19.169  0.00  0.00    +0.000 A 
ATOM     11  C   UNL     1       7.711   6.249  18.736  0.00  0.00    +0.000 A 
ATOM     12  C   UNL     1       6.778   6.475  17.717  0.00  0.00    +0.000 A 
ATOM     13  C   UNL     1       6.721   7.770  17.165  0.00  0.00    +0.000 A 
ATOM     14  C   UNL     1       7.557   8.796  17.602  0.00  0.00    +0.000 A 
BRANCH   9  16
ATOM     15  C   UNL     1       9.230  10.783  18.559  0.00  0.00    +0.000 C 
ATOM     16  O   UNL     1       9.339   9.480  19.124  0.00  0.00    +0.000 OA
ENDBRANCH   9  16
ENDBRANCH   1  12
BRANCH   6  17
ATOM     17  C   UNL     1       3.266   3.407  19.334  0.00  0.00    +0.000 A 
ATOM     18  C   UNL     1       1.931   3.688  18.991  0.00  0.00    +0.000 A 
ATOM     19  C   UNL     1       0.902   3.501  19.916  0.00  0.00    +0.000 A 
ATOM     20  C   UNL     1       1.189   3.024  21.193  0.00  0.00    +0.000 A 
ATOM     21  C   UNL     1       2.501   2.715  21.540  0.00  0.00    +0.000 A 
ATOM     22  C   UNL     1       3.530   2.907  20.620  0.00  0.00    +0.000 A 
ENDBRANCH   6  17
TORSDOF 3
ENDMDL
MODEL 5
REMARK VINA RESULT:      -6.8      2.715      4.713
REMARK  Name = 
REMARK  4 active torsions:
REMARK  status: ('A' for Active; 'I' for Inactive)
REMARK    1  A    between atoms: C_1  and  O_2
REMARK    2  A    between atoms: O_2  and  C_3
REMARK    3  A    between atoms: C_6  and  N_7
REMARK    4  A    between atoms: C_12  and  C_13
REMARK                            x       y       z     vdW  Elec       q    Type
REMARK                         _______ _______ _______ _____ _____    ______ ____
ROOT
ATOM      1  N   UNL     1       5.804   5.601  17.350  0.00  0.00    +0.000 N 
ATOM      2  C   UNL     1       5.651   5.168  16.033  0.00  0.00    +0.000 C 
ATOM      3  O   UNL     1       5.699   5.867  15.029  0.00  0.00    +0.000 OA
ATOM      4  C   UNL     1       5.484   3.666  15.931  0.00  0.00    +0.000 C 
ATOM      5  S   UNL     1       4.003   3.123  16.797  0.00  0.00    +0.000 S 
ATOM      6  C   UNL     1       4.369   3.892  18.415  0.00  0.00    +0.000 C 
ATOM      7  C   UNL     1       4.753   5.370  18.251  0.00  0.00    +0.000 C 
ATOM      8  O   UNL     1       4.252   6.270  18.930  0.00  0.00    +0.000 OA
ENDROOT
BRANCH   1  12
ATOM      9  C   UNL     1       8.506   8.666  18.549  0.00  0.00    +0.000 A 
ATOM     10  C   UNL     1       8.608   7.394  19.112  0.00  0.00    +0.000 A 
ATOM     11  C   UNL     1       7.766   6.354  18.697  0.00  0.00    +0.000 A 
ATOM     12  C   UNL     1       6.804   6.570  17.702  0.00  0.00    +0.000 A 
ATOM     13  C   UNL     1       6.715   7.865  17.157  0.00  0.00    +0.000 A 
ATOM     14  C   UNL     1       7.547   8.902  17.577  0.00  0.00    +0.000 A 
BRANCH   9  16
ATOM     15  C   UNL     1       9.316  10.871  18.401  0.00  0.00    +0.000 C 
ATOM     16  O   UNL     1       9.356   9.607  19.056  0.00  0.00    +0.000 OA
ENDBRANCH   9  16
ENDBRANCH   1  12
BRANCH   6  17
ATOM     17  C   UNL     1       3.226   3.611  19.376  0.00  0.00    +0.000 A 
ATOM     18  C   UNL     1       3.503   3.077  20.647  0.00  0.00    +0.000 A 
ATOM     19  C   UNL     1       2.466   2.695  21.502  0.00  0.00    +0.000 A 
ATOM     20  C   UNL     1       1.141   2.847  21.104  0.00  0.00    +0.000 A 
ATOM     21  C   UNL     1       0.848   3.400  19.860  0.00  0.00    +0.000 A 
ATOM     22  C   UNL     1       1.881   3.776  19.003  0.00  0.00    +0.000 A 
ENDBRANCH   6  17
TORSDOF 3
ENDMDL
MODEL 6
REMARK VINA RESULT:      -6.8      2.685      4.078
REMARK  Name = 
REMARK  4 active torsions:
REMARK  status: ('A' for Active; 'I' for Inactive)
REMARK    1  A    between atoms: C_1  and  O_2
REMARK    2  A    between atoms: O_2  and  C_3
REMARK    3  A    between atoms: C_6  and  N_7
REMARK    4  A    between atoms: C_12  and  C_13
REMARK                            x       y       z     vdW  Elec       q    Type
REMARK                         _______ _______ _______ _____ _____    ______ ____
ROOT
ATOM      1  N   UNL     1       3.870   4.829  18.281  0.00  0.00    +0.000 N 
ATOM      2  C   UNL     1       3.355   3.625  18.759  0.00  0.00    +0.000 C 
ATOM      3  O   UNL     1       3.169   2.605  18.106  0.00  0.00    +0.000 OA
ATOM      4  C   UNL     1       3.096   3.655  20.251  0.00  0.00    +0.000 C 
ATOM      5  S   UNL     1       1.872   4.907  20.666  0.00  0.00    +0.000 S 
ATOM      6  C   UNL     1       2.688   6.327  19.854  0.00  0.00    +0.000 C 
ATOM      7  C   UNL     1       3.085   5.985  18.410  0.00  0.00    +0.000 C 
ATOM      8  O   UNL     1       2.824   6.719  17.454  0.00  0.00    +0.000 OA
ENDROOT
BRANCH   1  12
ATOM      9  C   UNL     1       6.933   5.100  15.334  0.00  0.00    +0.000 A 
ATOM     10  C   UNL     1       7.110   5.711  16.575  0.00  0.00    +0.000 A 
ATOM     11  C   UNL     1       6.141   5.592  17.581  0.00  0.00    +0.000 A 
ATOM     12  C   UNL     1       4.973   4.853  17.360  0.00  0.00    +0.000 A 
ATOM     13  C   UNL     1       4.813   4.256  16.096  0.00  0.00    +0.000 A 
ATOM     14  C   UNL     1       5.773   4.381  15.092  0.00  0.00    +0.000 A 
BRANCH   9  16
ATOM     15  C   UNL     1       7.581   5.019  13.073  0.00  0.00    +0.000 C 
ATOM     16  O   UNL     1       7.927   5.313  14.422  0.00  0.00    +0.000 OA
ENDBRANCH   9  16
ENDBRANCH   1  12
BRANCH   6  17
ATOM     17  C   UNL     1       1.827   7.567  20.025  0.00  0.00    +0.000 A 
ATOM     18  C   UNL     1       1.802   8.540  19.009  0.00  0.00    +0.000 A 
ATOM     19  C   UNL     1       1.118   9.744  19.192  0.00  0.00    +0.000 A 
ATOM     20  C   UNL     1       0.445   9.991  20.385  0.00  0.00    +0.000 A 
ATOM     21  C   UNL     1       0.436   9.028  21.390  0.00  0.00    +0.000 A 
ATOM     22  C   UNL     1       1.123   7.828  21.213  0.00  0.00    +0.000 A 
ENDBRANCH   6  17
TORSDOF 3
ENDMDL
MODEL 7
REMARK VINA RESULT:      -6.7      0.432      1.509
REMARK  Name = 
REMARK  4 active torsions:
REMARK  status: ('A' for Active; 'I' for Inactive)
REMARK    1  A    between atoms: C_1  and  O_2
REMARK    2  A    between atoms: O_2  and  C_3
REMARK    3  A    between atoms: C_6  and  N_7
REMARK    4  A    between atoms: C_12  and  C_13
REMARK                            x       y       z     vdW  Elec       q    Type
REMARK                         _______ _______ _______ _____ _____    ______ ____
ROOT
ATOM      1  N   UNL     1       4.972   5.482  16.170  0.00  0.00    +0.000 N 
ATOM      2  C   UNL     1       5.361   6.741  16.625  0.00  0.00    +0.000 C 
ATOM      3  O   UNL     1       6.492   7.210  16.582  0.00  0.00    +0.000 OA
ATOM      4  C   UNL     1       4.195   7.559  17.138  0.00  0.00    +0.000 C 
ATOM      5  S   UNL     1       3.414   6.754  18.545  0.00  0.00    +0.000 S 
ATOM      6  C   UNL     1       3.113   5.129  17.762  0.00  0.00    +0.000 C 
ATOM      7  C   UNL     1       4.386   4.596  17.088  0.00  0.00    +0.000 C 
ATOM      8  O   UNL     1       4.802   3.447  17.259  0.00  0.00    +0.000 OA
ENDROOT
BRANCH   1  12
ATOM      9  C   UNL     1       6.650   3.663  12.704  0.00  0.00    +0.000 A 
ATOM     10  C   UNL     1       5.280   3.565  12.942  0.00  0.00    +0.000 A 
ATOM     11  C   UNL     1       4.694   4.199  14.046  0.00  0.00    +0.000 A 
ATOM     12  C   UNL     1       5.475   4.948  14.935  0.00  0.00    +0.000 A 
ATOM     13  C   UNL     1       6.858   5.022  14.678  0.00  0.00    +0.000 A 
ATOM     14  C   UNL     1       7.442   4.384  13.584  0.00  0.00    +0.000 A 
BRANCH   9  16
ATOM     15  C   UNL     1       6.415   1.770  11.325  0.00  0.00    +0.000 C 
ATOM     16  O   UNL     1       7.113   2.976  11.618  0.00  0.00    +0.000 OA
ENDBRANCH   9  16
ENDBRANCH   1  12
BRANCH   6  17
ATOM     17  C   UNL     1       2.461   4.197  18.771  0.00  0.00    +0.000 A 
ATOM     18  C   UNL     1       1.428   3.339  18.355  0.00  0.00    +0.000 A 
ATOM     19  C   UNL     1       0.730   2.562  19.283  0.00  0.00    +0.000 A 
ATOM     20  C   UNL     1       1.057   2.626  20.635  0.00  0.00    +0.000 A 
ATOM     21  C   UNL     1       2.096   3.450  21.059  0.00  0.00    +0.000 A 
ATOM     22  C   UNL     1       2.790   4.230  20.137  0.00  0.00    +0.000 A 
ENDBRANCH   6  17
TORSDOF 3
ENDMDL
MODEL 8
REMARK VINA RESULT:      -6.7      2.860      4.221
REMARK  Name = 
REMARK  4 active torsions:
REMARK  status: ('A' for Active; 'I' for Inactive)
REMARK    1  A    between atoms: C_1  and  O_2
REMARK    2  A    between atoms: O_2  and  C_3
REMARK    3  A    between atoms: C_6  and  N_7
REMARK    4  A    between atoms: C_12  and  C_13
REMARK                            x       y       z     vdW  Elec       q    Type
REMARK                         _______ _______ _______ _____ _____    ______ ____
ROOT
ATOM      1  N   UNL     1       3.609   5.206  18.219  0.00  0.00    +0.000 N 
ATOM      2  C   UNL     1       3.148   3.964  18.653  0.00  0.00    +0.000 C 
ATOM      3  O   UNL     1       2.936   2.983  17.951  0.00  0.00    +0.000 OA
ATOM      4  C   UNL     1       2.990   3.897  20.158  0.00  0.00    +0.000 C 
ATOM      5  S   UNL     1       1.775   5.095  20.731  0.00  0.00    +0.000 S 
ATOM      6  C   UNL     1       2.510   6.579  19.957  0.00  0.00    +0.000 C 
ATOM      7  C   UNL     1       2.814   6.335  18.472  0.00  0.00    +0.000 C 
ATOM      8  O   UNL     1       2.477   7.121  17.583  0.00  0.00    +0.000 OA
ENDROOT
BRANCH   1  12
ATOM      9  C   UNL     1       6.891   5.320  15.508  0.00  0.00    +0.000 A 
ATOM     10  C   UNL     1       5.728   4.635  15.158  0.00  0.00    +0.000 A 
ATOM     11  C   UNL     1       4.615   4.627  16.009  0.00  0.00    +0.000 A 
ATOM     12  C   UNL     1       4.646   5.310  17.230  0.00  0.00    +0.000 A 
ATOM     13  C   UNL     1       5.836   5.985  17.565  0.00  0.00    +0.000 A 
ATOM     14  C   UNL     1       6.947   5.987  16.722  0.00  0.00    +0.000 A 
BRANCH   9  16
ATOM     15  C   UNL     1       7.535   4.975  13.270  0.00  0.00    +0.000 C 
ATOM     16  O   UNL     1       7.922   5.230  14.616  0.00  0.00    +0.000 OA
ENDBRANCH   9  16
ENDBRANCH   1  12
BRANCH   6  17
ATOM     17  C   UNL     1       1.641   7.788  20.262  0.00  0.00    +0.000 A 
ATOM     18  C   UNL     1       0.802   7.772  21.391  0.00  0.00    +0.000 A 
ATOM     19  C   UNL     1      -0.095   8.816  21.627  0.00  0.00    +0.000 A 
ATOM     20  C   UNL     1      -0.163   9.892  20.745  0.00  0.00    +0.000 A 
ATOM     21  C   UNL     1       0.680   9.937  19.638  0.00  0.00    +0.000 A 
ATOM     22  C   UNL     1       1.572   8.893  19.397  0.00  0.00    +0.000 A 
ENDBRANCH   6  17
TORSDOF 3
ENDMDL
MODEL 9
REMARK VINA RESULT:      -6.6      0.336      1.076
REMARK  Name = 
REMARK  4 active torsions:
REMARK  status: ('A' for Active; 'I' for Inactive)
REMARK    1  A    between atoms: C_1  and  O_2
REMARK    2  A    between atoms: O_2  and  C_3
REMARK    3  A    between atoms: C_6  and  N_7
REMARK    4  A    between atoms: C_12  and  C_13
REMARK                            x       y       z     vdW  Elec       q    Type
REMARK                         _______ _______ _______ _____ _____    ______ ____
ROOT
ATOM      1  N   UNL     1       4.898   5.570  16.288  0.00  0.00    +0.000 N 
ATOM      2  C   UNL     1       5.326   6.812  16.756  0.00  0.00    +0.000 C 
ATOM      3  O   UNL     1       6.476   7.234  16.745  0.00  0.00    +0.000 OA
ATOM      4  C   UNL     1       4.181   7.677  17.239  0.00  0.00    +0.000 C 
ATOM      5  S   UNL     1       3.330   6.903  18.624  0.00  0.00    +0.000 S 
ATOM      6  C   UNL     1       2.984   5.293  17.829  0.00  0.00    +0.000 C 
ATOM      7  C   UNL     1       4.251   4.709  17.189  0.00  0.00    +0.000 C 
ATOM      8  O   UNL     1       4.615   3.544  17.368  0.00  0.00    +0.000 OA
ENDROOT
BRANCH   1  12
ATOM      9  C   UNL     1       6.592   3.686  12.866  0.00  0.00    +0.000 A 
ATOM     10  C   UNL     1       5.212   3.649  13.064  0.00  0.00    +0.000 A 
ATOM     11  C   UNL     1       4.624   4.306  14.153  0.00  0.00    +0.000 A 
ATOM     12  C   UNL     1       5.412   5.017  15.066  0.00  0.00    +0.000 A 
ATOM     13  C   UNL     1       6.803   5.029  14.850  0.00  0.00    +0.000 A 
ATOM     14  C   UNL     1       7.389   4.369  13.771  0.00  0.00    +0.000 A 
BRANCH   9  16
ATOM     15  C   UNL     1       6.228   1.897  11.380  0.00  0.00    +0.000 C 
ATOM     16  O   UNL     1       7.054   2.981  11.791  0.00  0.00    +0.000 OA
ENDBRANCH   9  16
ENDBRANCH   1  12
BRANCH   6  17
ATOM     17  C   UNL     1       2.268   4.388  18.818  0.00  0.00    +0.000 A 
ATOM     18  C   UNL     1       2.554   4.496  20.191  0.00  0.00    +0.000 A 
ATOM     19  C   UNL     1       2.004   3.597  21.107  0.00  0.00    +0.000 A 
ATOM     20  C   UNL     1       1.156   2.583  20.668  0.00  0.00    +0.000 A 
ATOM     21  C   UNL     1       0.840   2.479  19.317  0.00  0.00    +0.000 A 
ATOM     22  C   UNL     1       1.393   3.371  18.400  0.00  0.00    +0.000 A 
ENDBRANCH   6  17
TORSDOF 3
ENDMDL
