MODEL 1
REMARK VINA RESULT:      -8.0      0.000      0.000
REMARK  Name = 
REMARK  6 active torsions:
REMARK  status: ('A' for Active; 'I' for Inactive)
REMARK    1  A    between atoms: C_1  and  O_2
REMARK    2  A    between atoms: O_2  and  C_3
REMARK    3  A    between atoms: C_8  and  C_9
REMARK    4  A    between atoms: C_9  and  C_10
REMARK    5  A    between atoms: N_12  and  C_13
REMARK    6  A    between atoms: C_24  and  C_25
REMARK                            x       y       z     vdW  Elec       q    Type
REMARK                         _______ _______ _______ _____ _____    ______ ____
ROOT
ATOM      1  C   UNL     1       7.473   5.918  18.663  0.00  0.00    +0.000 A 
ATOM      2  C   UNL     1       8.043   6.990  18.068  0.00  0.00    +0.000 A 
ATOM      3  C   UNL     1       7.264   7.924  17.283  0.00  0.00    +0.000 A 
ATOM      4  C   UNL     1       5.943   7.740  17.166  0.00  0.00    +0.000 A 
ATOM      5  N   UNL     1       5.316   6.675  17.823  0.00  0.00    +0.000 N 
ATOM      6  C   UNL     1       3.969   6.324  17.946  0.00  0.00    +0.000 A 
ATOM      7  C   UNL     1       3.992   5.121  18.654  0.00  0.00    +0.000 A 
ATOM      8  N   UNL     1       5.266   4.799  19.048  0.00  0.00    +0.000 NA
ATOM      9  C   UNL     1       6.049   5.733  18.557  0.00  0.00    +0.000 A 
ENDROOT
BRANCH   7  10
ATOM     10  C   UNL     1       2.846   4.306  19.057  0.00  0.00    +0.000 A 
ATOM     11  C   UNL     1       2.210   3.416  18.180  0.00  0.00    +0.000 A 
ATOM     12  C   UNL     1       1.080   2.696  18.573  0.00  0.00    +0.000 A 
ATOM     13  C   UNL     1       0.598   2.811  19.873  0.00  0.00    +0.000 A 
ATOM     14  C   UNL     1       1.253   3.642  20.780  0.00  0.00    +0.000 A 
ATOM     15  C   UNL     1       2.368   4.386  20.373  0.00  0.00    +0.000 A 
ENDBRANCH   7  10
BRANCH   1  17
ATOM     16  C   UNL     1       8.496   5.249  20.720  0.00  0.00    +0.000 C 
ATOM     17  O   UNL     1       8.115   4.941  19.386  0.00  0.00    +0.000 OA
ENDBRANCH   1  17
BRANCH   6  18
ATOM     18  C   UNL     1       2.750   7.083  17.494  0.00  0.00    +0.000 C 
BRANCH  18  19
ATOM     19  C   UNL     1       2.107   8.067  18.433  0.00  0.00    +0.000 C 
ATOM     20  O   UNL     1       2.104   7.879  19.650  0.00  0.00    +0.000 OA
ATOM     21  N   UNL     1       1.523   9.155  17.802  0.00  0.00    +0.000 N 
ATOM     22  H   UNL     1       1.190   8.982  16.859  0.00  0.00    +0.000 HD
BRANCH  21  23
ATOM     23  C   UNL     1       0.880  10.168  18.538  0.00  0.00    +0.000 A 
ATOM     24  C   UNL     1      -0.508  10.124  18.790  0.00  0.00    +0.000 A 
ATOM     25  C   UNL     1      -1.150  11.151  19.499  0.00  0.00    +0.000 A 
ATOM     26  C   UNL     1      -0.396  12.234  19.914  0.00  0.00    +0.000 A 
ATOM     27  C   UNL     1       0.972  12.246  19.649  0.00  0.00    +0.000 A 
ATOM     28  C   UNL     1       1.647  11.230  19.002  0.00  0.00    +0.000 A 
ATOM     29  S   UNL     1       1.667  13.748  20.200  0.00  0.00    +0.000 S 
ATOM     30  O   UNL     1       2.057  14.509  19.032  0.00  0.00    +0.000 OA
ATOM     31  O   UNL     1       2.576  13.444  21.284  0.00  0.00    +0.000 OA
ATOM     32  C   UNL     1       0.143  14.316  20.819  0.00  0.00    +0.000 C 
ATOM     33  C   UNL     1      -0.848  13.435  20.608  0.00  0.00    +0.000 C 
ENDBRANCH  21  23
ENDBRANCH  18  19
ENDBRANCH   6  18
TORSDOF 5
ENDMDL
MODEL 2
REMARK VINA RESULT:      -7.8      1.860      1.958
REMARK  Name = 
REMARK  6 active torsions:
REMARK  status: ('A' for Active; 'I' for Inactive)
REMARK    1  A    between atoms: C_1  and  O_2
REMARK    2  A    between atoms: O_2  and  C_3
REMARK    3  A    between atoms: C_8  and  C_9
REMARK    4  A    between atoms: C_9  and  C_10
REMARK    5  A    between atoms: N_12  and  C_13
REMARK    6  A    between atoms: C_24  and  C_25
REMARK                            x       y       z     vdW  Elec       q    Type
REMARK                         _______ _______ _______ _____ _____    ______ ____
ROOT
ATOM      1  C   UNL     1       7.484   5.914  18.701  0.00  0.00    +0.000 A 
ATOM      2  C   UNL     1       8.081   6.970  18.105  0.00  0.00    +0.000 A 
ATOM      3  C   UNL     1       7.331   7.907  17.296  0.00  0.00    +0.000 A 
ATOM      4  C   UNL     1       6.008   7.744  17.160  0.00  0.00    +0.000 A 
ATOM      5  N   UNL     1       5.354   6.696  17.817  0.00  0.00    +0.000 N 
ATOM      6  C   UNL     1       3.999   6.367  17.922  0.00  0.00    +0.000 A 
ATOM      7  C   UNL     1       3.992   5.172  18.642  0.00  0.00    +0.000 A 
ATOM      8  N   UNL     1       5.254   4.834  19.061  0.00  0.00    +0.000 NA
ATOM      9  C   UNL     1       6.059   5.750  18.574  0.00  0.00    +0.000 A 
ENDROOT
BRANCH   7  10
ATOM     10  C   UNL     1       2.826   4.379  19.035  0.00  0.00    +0.000 A 
ATOM     11  C   UNL     1       2.159   3.529  18.142  0.00  0.00    +0.000 A 
ATOM     12  C   UNL     1       1.012   2.831  18.527  0.00  0.00    +0.000 A 
ATOM     13  C   UNL     1       0.543   2.929  19.832  0.00  0.00    +0.000 A 
ATOM     14  C   UNL     1       1.226   3.719  20.753  0.00  0.00    +0.000 A 
ATOM     15  C   UNL     1       2.359   4.442  20.355  0.00  0.00    +0.000 A 
ENDBRANCH   7  10
BRANCH   1  17
ATOM     16  C   UNL     1       8.630   5.303  20.711  0.00  0.00    +0.000 C 
ATOM     17  O   UNL     1       8.098   4.934  19.446  0.00  0.00    +0.000 OA
ENDBRANCH   1  17
BRANCH   6  18
ATOM     18  C   UNL     1       2.800   7.140  17.441  0.00  0.00    +0.000 C 
BRANCH  18  19
ATOM     19  C   UNL     1       2.259   8.260  18.289  0.00  0.00    +0.000 C 
ATOM     20  O   UNL     1       2.417   9.437  17.967  0.00  0.00    +0.000 OA
ATOM     21  N   UNL     1       1.608   7.837  19.438  0.00  0.00    +0.000 N 
ATOM     22  H   UNL     1       1.928   6.952  19.818  0.00  0.00    +0.000 HD
BRANCH  21  23
ATOM     23  C   UNL     1       1.044   8.760  20.339  0.00  0.00    +0.000 A 
ATOM     24  C   UNL     1       1.055   8.527  21.731  0.00  0.00    +0.000 A 
ATOM     25  C   UNL     1       0.464   9.436  22.623  0.00  0.00    +0.000 A 
ATOM     26  C   UNL     1      -0.168  10.551  22.104  0.00  0.00    +0.000 A 
ATOM     27  C   UNL     1      -0.160  10.750  20.724  0.00  0.00    +0.000 A 
ATOM     28  C   UNL     1       0.456   9.907  19.820  0.00  0.00    +0.000 A 
ATOM     29  S   UNL     1      -1.088  12.173  20.328  0.00  0.00    +0.000 S 
ATOM     30  O   UNL     1      -2.287  11.741  19.642  0.00  0.00    +0.000 OA
ATOM     31  O   UNL     1      -0.178  13.158  19.785  0.00  0.00    +0.000 OA
ATOM     32  C   UNL     1      -1.430  12.511  22.001  0.00  0.00    +0.000 C 
ATOM     33  C   UNL     1      -0.894  11.593  22.821  0.00  0.00    +0.000 C 
ENDBRANCH  21  23
ENDBRANCH  18  19
ENDBRANCH   6  18
TORSDOF 5
ENDMDL
MODEL 3
REMARK VINA RESULT:      -7.7      1.457      2.017
REMARK  Name = 
REMARK  6 active torsions:
REMARK  status: ('A' for Active; 'I' for Inactive)
REMARK    1  A    between atoms: C_1  and  O_2
REMARK    2  A    between atoms: O_2  and  C_3
REMARK    3  A    between atoms: C_8  and  C_9
REMARK    4  A    between atoms: C_9  and  C_10
REMARK    5  A    between atoms: N_12  and  C_13
REMARK    6  A    between atoms: C_24  and  C_25
REMARK                            x       y       z     vdW  Elec       q    Type
REMARK                         _______ _______ _______ _____ _____    ______ ____
ROOT
ATOM      1  C   UNL     1       7.341   5.829  18.546  0.00  0.00    +0.000 A 
ATOM      2  C   UNL     1       7.848   6.891  17.881  0.00  0.00    +0.000 A 
ATOM      3  C   UNL     1       6.997   7.793  17.133  0.00  0.00    +0.000 A 
ATOM      4  C   UNL     1       5.673   7.589  17.124  0.00  0.00    +0.000 A 
ATOM      5  N   UNL     1       5.115   6.534  17.855  0.00  0.00    +0.000 N 
ATOM      6  C   UNL     1       3.787   6.169  18.092  0.00  0.00    +0.000 A 
ATOM      7  C   UNL     1       3.883   4.987  18.828  0.00  0.00    +0.000 A 
ATOM      8  N   UNL     1       5.188   4.693  19.130  0.00  0.00    +0.000 NA
ATOM      9  C   UNL     1       5.917   5.622  18.556  0.00  0.00    +0.000 A 
ENDROOT
BRANCH   7  10
ATOM     10  C   UNL     1       2.784   4.168  19.340  0.00  0.00    +0.000 A 
ATOM     11  C   UNL     1       2.431   4.145  20.696  0.00  0.00    +0.000 A 
ATOM     12  C   UNL     1       1.417   3.307  21.167  0.00  0.00    +0.000 A 
ATOM     13  C   UNL     1       0.698   2.517  20.276  0.00  0.00    +0.000 A 
ATOM     14  C   UNL     1       0.989   2.572  18.915  0.00  0.00    +0.000 A 
ATOM     15  C   UNL     1       2.027   3.390  18.451  0.00  0.00    +0.000 A 
ENDBRANCH   7  10
BRANCH   1  17
ATOM     16  C   UNL     1       8.541   5.236  20.530  0.00  0.00    +0.000 C 
ATOM     17  O   UNL     1       8.052   4.881  19.243  0.00  0.00    +0.000 OA
ENDBRANCH   1  17
BRANCH   6  18
ATOM     18  C   UNL     1       2.525   6.899  17.716  0.00  0.00    +0.000 C 
BRANCH  18  19
ATOM     19  C   UNL     1       2.145   8.145  18.468  0.00  0.00    +0.000 C 
ATOM     20  O   UNL     1       2.067   8.150  19.696  0.00  0.00    +0.000 OA
ATOM     21  N   UNL     1       1.883   9.239  17.657  0.00  0.00    +0.000 N 
ATOM     22  H   UNL     1       1.537   9.018  16.729  0.00  0.00    +0.000 HD
BRANCH  21  23
ATOM     23  C   UNL     1       1.515  10.482  18.205  0.00  0.00    +0.000 A 
ATOM     24  C   UNL     1       2.369  11.604  18.120  0.00  0.00    +0.000 A 
ATOM     25  C   UNL     1       2.011  12.833  18.694  0.00  0.00    +0.000 A 
ATOM     26  C   UNL     1       0.814  12.914  19.383  0.00  0.00    +0.000 A 
ATOM     27  C   UNL     1      -0.005  11.788  19.447  0.00  0.00    +0.000 A 
ATOM     28  C   UNL     1       0.288  10.578  18.850  0.00  0.00    +0.000 A 
ATOM     29  S   UNL     1      -1.402  12.130  20.435  0.00  0.00    +0.000 S 
ATOM     30  O   UNL     1      -1.282  11.356  21.652  0.00  0.00    +0.000 OA
ATOM     31  O   UNL     1      -2.569  12.085  19.582  0.00  0.00    +0.000 OA
ATOM     32  C   UNL     1      -0.904  13.776  20.706  0.00  0.00    +0.000 C 
ATOM     33  C   UNL     1       0.263  14.056  20.105  0.00  0.00    +0.000 C 
ENDBRANCH  21  23
ENDBRANCH  18  19
ENDBRANCH   6  18
TORSDOF 5
ENDMDL
MODEL 4
REMARK VINA RESULT:      -7.7      2.071      4.502
REMARK  Name = 
REMARK  6 active torsions:
REMARK  status: ('A' for Active; 'I' for Inactive)
REMARK    1  A    between atoms: C_1  and  O_2
REMARK    2  A    between atoms: O_2  and  C_3
REMARK    3  A    between atoms: C_8  and  C_9
REMARK    4  A    between atoms: C_9  and  C_10
REMARK    5  A    between atoms: N_12  and  C_13
REMARK    6  A    between atoms: C_24  and  C_25
REMARK                            x       y       z     vdW  Elec       q    Type
REMARK                         _______ _______ _______ _____ _____    ______ ____
ROOT
ATOM      1  C   UNL     1       3.046   1.896  18.636  0.00  0.00    +0.000 A 
ATOM      2  C   UNL     1       1.717   1.679  18.754  0.00  0.00    +0.000 A 
ATOM      3  C   UNL     1       0.780   2.774  18.890  0.00  0.00    +0.000 A 
ATOM      4  C   UNL     1       1.235   4.033  18.867  0.00  0.00    +0.000 A 
ATOM      5  N   UNL     1       2.598   4.289  18.682  0.00  0.00    +0.000 N 
ATOM      6  C   UNL     1       3.306   5.484  18.522  0.00  0.00    +0.000 A 
ATOM      7  C   UNL     1       4.641   5.085  18.458  0.00  0.00    +0.000 A 
ATOM      8  N   UNL     1       4.754   3.718  18.462  0.00  0.00    +0.000 NA
ATOM      9  C   UNL     1       3.533   3.249  18.588  0.00  0.00    +0.000 A 
ENDROOT
BRANCH   7  10
ATOM     10  C   UNL     1       5.817   5.942  18.298  0.00  0.00    +0.000 A 
ATOM     11  C   UNL     1       5.860   6.995  17.374  0.00  0.00    +0.000 A 
ATOM     12  C   UNL     1       7.017   7.758  17.199  0.00  0.00    +0.000 A 
ATOM     13  C   UNL     1       8.137   7.515  17.988  0.00  0.00    +0.000 A 
ATOM     14  C   UNL     1       8.094   6.514  18.956  0.00  0.00    +0.000 A 
ATOM     15  C   UNL     1       6.942   5.731  19.107  0.00  0.00    +0.000 A 
ENDBRANCH   7  10
BRANCH   1  17
ATOM     16  C   UNL     1       4.787   0.667  19.725  0.00  0.00    +0.000 C 
ATOM     17  O   UNL     1       4.031   0.940  18.553  0.00  0.00    +0.000 OA
ENDBRANCH   1  17
BRANCH   6  18
ATOM     18  C   UNL     1       2.773   6.885  18.376  0.00  0.00    +0.000 C 
BRANCH  18  19
ATOM     19  C   UNL     1       2.147   7.560  19.567  0.00  0.00    +0.000 C 
ATOM     20  O   UNL     1       2.240   7.078  20.695  0.00  0.00    +0.000 OA
ATOM     21  N   UNL     1       1.462   8.726  19.261  0.00  0.00    +0.000 N 
ATOM     22  H   UNL     1       1.073   8.769  18.325  0.00  0.00    +0.000 HD
BRANCH  21  23
ATOM     23  C   UNL     1       0.820   9.479  20.263  0.00  0.00    +0.000 A 
ATOM     24  C   UNL     1       0.039   8.858  21.261  0.00  0.00    +0.000 A 
ATOM     25  C   UNL     1      -0.623   9.614  22.240  0.00  0.00    +0.000 A 
ATOM     26  C   UNL     1      -0.527  10.993  22.182  0.00  0.00    +0.000 A 
ATOM     27  C   UNL     1       0.251  11.574  21.184  0.00  0.00    +0.000 A 
ATOM     28  C   UNL     1       0.960  10.862  20.237  0.00  0.00    +0.000 A 
ATOM     29  S   UNL     1       0.138  13.312  21.283  0.00  0.00    +0.000 S 
ATOM     30  O   UNL     1      -0.598  13.774  20.125  0.00  0.00    +0.000 OA
ATOM     31  O   UNL     1       1.443  13.821  21.644  0.00  0.00    +0.000 OA
ATOM     32  C   UNL     1      -0.900  13.242  22.678  0.00  0.00    +0.000 C 
ATOM     33  C   UNL     1      -1.169  11.979  23.045  0.00  0.00    +0.000 C 
ENDBRANCH  21  23
ENDBRANCH  18  19
ENDBRANCH   6  18
TORSDOF 5
ENDMDL
MODEL 5
REMARK VINA RESULT:      -7.7      3.373      8.900
REMARK  Name = 
REMARK  6 active torsions:
REMARK  status: ('A' for Active; 'I' for Inactive)
REMARK    1  A    between atoms: C_1  and  O_2
REMARK    2  A    between atoms: O_2  and  C_3
REMARK    3  A    between atoms: C_8  and  C_9
REMARK    4  A    between atoms: C_9  and  C_10
REMARK    5  A    between atoms: N_12  and  C_13
REMARK    6  A    between atoms: C_24  and  C_25
REMARK                            x       y       z     vdW  Elec       q    Type
REMARK                         _______ _______ _______ _____ _____    ______ ____
ROOT
ATOM      1  C   UNL     1       1.507  15.125  18.953  0.00  0.00    +0.000 A 
ATOM      2  C   UNL     1       2.685  15.173  19.615  0.00  0.00    +0.000 A 
ATOM      3  C   UNL     1       3.160  14.053  20.399  0.00  0.00    +0.000 A 
ATOM      4  C   UNL     1       2.432  12.929  20.445  0.00  0.00    +0.000 A 
ATOM      5  N   UNL     1       1.241  12.828  19.718  0.00  0.00    +0.000 N 
ATOM      6  C   UNL     1       0.363  11.759  19.517  0.00  0.00    +0.000 A 
ATOM      7  C   UNL     1      -0.677  12.307  18.765  0.00  0.00    +0.000 A 
ATOM      8  N   UNL     1      -0.412  13.607  18.420  0.00  0.00    +0.000 NA
ATOM      9  C   UNL     1       0.736  13.910  18.983  0.00  0.00    +0.000 A 
ENDROOT
BRANCH   7  10
ATOM     10  C   UNL     1      -1.875  11.622  18.277  0.00  0.00    +0.000 A 
ATOM     11  C   UNL     1      -3.147  11.856  18.816  0.00  0.00    +0.000 A 
ATOM     12  C   UNL     1      -4.264  11.144  18.371  0.00  0.00    +0.000 A 
ATOM     13  C   UNL     1      -4.136  10.222  17.338  0.00  0.00    +0.000 A 
ATOM     14  C   UNL     1      -2.892  10.021  16.744  0.00  0.00    +0.000 A 
ATOM     15  C   UNL     1      -1.769  10.714  17.213  0.00  0.00    +0.000 A 
ENDBRANCH   7  10
BRANCH   1  17
ATOM     16  C   UNL     1       0.295  17.189  18.939  0.00  0.00    +0.000 C 
ATOM     17  O   UNL     1       0.932  16.138  18.223  0.00  0.00    +0.000 OA
ENDBRANCH   1  17
BRANCH   6  18
ATOM     18  C   UNL     1       0.513  10.322  19.940  0.00  0.00    +0.000 C 
BRANCH  18  19
ATOM     19  C   UNL     1       1.260   9.367  19.048  0.00  0.00    +0.000 C 
ATOM     20  O   UNL     1       1.401   9.596  17.847  0.00  0.00    +0.000 OA
ATOM     21  N   UNL     1       1.734   8.238  19.697  0.00  0.00    +0.000 N 
ATOM     22  H   UNL     1       1.195   7.943  20.505  0.00  0.00    +0.000 HD
BRANCH  21  23
ATOM     23  C   UNL     1       2.454   7.246  19.004  0.00  0.00    +0.000 A 
ATOM     24  C   UNL     1       3.439   7.585  18.051  0.00  0.00    +0.000 A 
ATOM     25  C   UNL     1       4.133   6.594  17.341  0.00  0.00    +0.000 A 
ATOM     26  C   UNL     1       3.804   5.269  17.568  0.00  0.00    +0.000 A 
ATOM     27  C   UNL     1       2.828   4.970  18.516  0.00  0.00    +0.000 A 
ATOM     28  C   UNL     1       2.161   5.914  19.271  0.00  0.00    +0.000 A 
ATOM     29  S   UNL     1       2.546   3.248  18.548  0.00  0.00    +0.000 S 
ATOM     30  O   UNL     1       1.224   3.007  18.010  0.00  0.00    +0.000 OA
ATOM     31  O   UNL     1       2.975   2.754  19.838  0.00  0.00    +0.000 OA
ATOM     32  C   UNL     1       3.762   2.948  17.341  0.00  0.00    +0.000 C 
ATOM     33  C   UNL     1       4.342   4.081  16.914  0.00  0.00    +0.000 C 
ENDBRANCH  21  23
ENDBRANCH  18  19
ENDBRANCH   6  18
TORSDOF 5
ENDMDL
MODEL 6
REMARK VINA RESULT:      -7.6      1.460      4.221
REMARK  Name = 
REMARK  6 active torsions:
REMARK  status: ('A' for Active; 'I' for Inactive)
REMARK    1  A    between atoms: C_1  and  O_2
REMARK    2  A    between atoms: O_2  and  C_3
REMARK    3  A    between atoms: C_8  and  C_9
REMARK    4  A    between atoms: C_9  and  C_10
REMARK    5  A    between atoms: N_12  and  C_13
REMARK    6  A    between atoms: C_24  and  C_25
REMARK                            x       y       z     vdW  Elec       q    Type
REMARK                         _______ _______ _______ _____ _____    ______ ____
ROOT
ATOM      1  C   UNL     1       3.160   2.084  19.041  0.00  0.00    +0.000 A 
ATOM      2  C   UNL     1       1.837   1.838  18.915  0.00  0.00    +0.000 A 
ATOM      3  C   UNL     1       0.903   2.884  18.555  0.00  0.00    +0.000 A 
ATOM      4  C   UNL     1       1.362   4.118  18.310  0.00  0.00    +0.000 A 
ATOM      5  N   UNL     1       2.735   4.386  18.371  0.00  0.00    +0.000 N 
ATOM      6  C   UNL     1       3.471   5.536  18.070  0.00  0.00    +0.000 A 
ATOM      7  C   UNL     1       4.783   5.200  18.408  0.00  0.00    +0.000 A 
ATOM      8  N   UNL     1       4.879   3.886  18.788  0.00  0.00    +0.000 NA
ATOM      9  C   UNL     1       3.658   3.404  18.756  0.00  0.00    +0.000 A 
ENDROOT
BRANCH   7  10
ATOM     10  C   UNL     1       5.972   6.046  18.297  0.00  0.00    +0.000 A 
ATOM     11  C   UNL     1       6.066   7.094  17.371  0.00  0.00    +0.000 A 
ATOM     12  C   UNL     1       7.236   7.846  17.245  0.00  0.00    +0.000 A 
ATOM     13  C   UNL     1       8.317   7.598  18.085  0.00  0.00    +0.000 A 
ATOM     14  C   UNL     1       8.222   6.603  19.055  0.00  0.00    +0.000 A 
ATOM     15  C   UNL     1       7.057   5.831  19.158  0.00  0.00    +0.000 A 
ENDBRANCH   7  10
BRANCH   1  17
ATOM     16  C   UNL     1       4.802   1.429  20.655  0.00  0.00    +0.000 C 
ATOM     17  O   UNL     1       4.129   1.188  19.426  0.00  0.00    +0.000 OA
ENDBRANCH   1  17
BRANCH   6  18
ATOM     18  C   UNL     1       2.997   6.826  17.456  0.00  0.00    +0.000 C 
BRANCH  18  19
ATOM     19  C   UNL     1       2.252   7.816  18.310  0.00  0.00    +0.000 C 
ATOM     20  O   UNL     1       2.210   7.697  19.534  0.00  0.00    +0.000 OA
ATOM     21  N   UNL     1       1.626   8.825  17.594  0.00  0.00    +0.000 N 
ATOM     22  H   UNL     1       1.346   8.577  16.650  0.00  0.00    +0.000 HD
BRANCH  21  23
ATOM     23  C   UNL     1       0.888   9.832  18.244  0.00  0.00    +0.000 A 
ATOM     24  C   UNL     1      -0.522   9.788  18.300  0.00  0.00    +0.000 A 
ATOM     25  C   UNL     1      -1.256  10.809  18.923  0.00  0.00    +0.000 A 
ATOM     26  C   UNL     1      -0.566  11.887  19.450  0.00  0.00    +0.000 A 
ATOM     27  C   UNL     1       0.825  11.899  19.377  0.00  0.00    +0.000 A 
ATOM     28  C   UNL     1       1.584  10.888  18.820  0.00  0.00    +0.000 A 
ATOM     29  S   UNL     1       1.438  13.394  20.034  0.00  0.00    +0.000 S 
ATOM     30  O   UNL     1       1.987  14.165  18.939  0.00  0.00    +0.000 OA
ATOM     31  O   UNL     1       2.188  13.077  21.230  0.00  0.00    +0.000 OA
ATOM     32  C   UNL     1      -0.157  13.959  20.441  0.00  0.00    +0.000 C 
ATOM     33  C   UNL     1      -1.109  13.082  20.086  0.00  0.00    +0.000 C 
ENDBRANCH  21  23
ENDBRANCH  18  19
ENDBRANCH   6  18
TORSDOF 5
ENDMDL
MODEL 7
REMARK VINA RESULT:      -7.6      3.504      8.817
REMARK  Name = 
REMARK  6 active torsions:
REMARK  status: ('A' for Active; 'I' for Inactive)
REMARK    1  A    between atoms: C_1  and  O_2
REMARK    2  A    between atoms: O_2  and  C_3
REMARK    3  A    between atoms: C_8  and  C_9
REMARK    4  A    between atoms: C_9  and  C_10
REMARK    5  A    between atoms: N_12  and  C_13
REMARK    6  A    between atoms: C_24  and  C_25
REMARK                            x       y       z     vdW  Elec       q    Type
REMARK                         _______ _______ _______ _____ _____    ______ ____
ROOT
ATOM      1  C   UNL     1       1.687  15.046  19.058  0.00  0.00    +0.000 A 
ATOM      2  C   UNL     1       2.787  15.145  19.837  0.00  0.00    +0.000 A 
ATOM      3  C   UNL     1       3.117  14.129  20.814  0.00  0.00    +0.000 A 
ATOM      4  C   UNL     1       2.332  13.050  20.929  0.00  0.00    +0.000 A 
ATOM      5  N   UNL     1       1.223  12.890  20.091  0.00  0.00    +0.000 N 
ATOM      6  C   UNL     1       0.318  11.835  19.938  0.00  0.00    +0.000 A 
ATOM      7  C   UNL     1      -0.605  12.309  19.005  0.00  0.00    +0.000 A 
ATOM      8  N   UNL     1      -0.238  13.538  18.520  0.00  0.00    +0.000 NA
ATOM      9  C   UNL     1       0.856  13.875  19.164  0.00  0.00    +0.000 A 
ENDROOT
BRANCH   7  10
ATOM     10  C   UNL     1      -1.777  11.606  18.481  0.00  0.00    +0.000 A 
ATOM     11  C   UNL     1      -1.671  10.514  17.609  0.00  0.00    +0.000 A 
ATOM     12  C   UNL     1      -2.806   9.900  17.075  0.00  0.00    +0.000 A 
ATOM     13  C   UNL     1      -4.073  10.335  17.449  0.00  0.00    +0.000 A 
ATOM     14  C   UNL     1      -4.202  11.378  18.364  0.00  0.00    +0.000 A 
ATOM     15  C   UNL     1      -3.060  12.011  18.873  0.00  0.00    +0.000 A 
ENDBRANCH   7  10
BRANCH   1  17
ATOM     16  C   UNL     1       1.826  17.265  18.171  0.00  0.00    +0.000 C 
ATOM     17  O   UNL     1       1.246  15.967  18.137  0.00  0.00    +0.000 OA
ENDBRANCH   1  17
BRANCH   6  18
ATOM     18  C   UNL     1       0.348  10.467  20.566  0.00  0.00    +0.000 C 
BRANCH  18  19
ATOM     19  C   UNL     1       1.083   9.355  19.868  0.00  0.00    +0.000 C 
ATOM     20  O   UNL     1       1.444   9.466  18.697  0.00  0.00    +0.000 OA
ATOM     21  N   UNL     1       1.280   8.227  20.652  0.00  0.00    +0.000 N 
ATOM     22  H   UNL     1       0.584   8.072  21.373  0.00  0.00    +0.000 HD
BRANCH  21  23
ATOM     23  C   UNL     1       1.952   7.097  20.148  0.00  0.00    +0.000 A 
ATOM     24  C   UNL     1       2.826   7.194  19.043  0.00  0.00    +0.000 A 
ATOM     25  C   UNL     1       3.470   6.060  18.525  0.00  0.00    +0.000 A 
ATOM     26  C   UNL     1       3.199   4.831  19.099  0.00  0.00    +0.000 A 
ATOM     27  C   UNL     1       2.332   4.770  20.188  0.00  0.00    +0.000 A 
ATOM     28  C   UNL     1       1.722   5.870  20.758  0.00  0.00    +0.000 A 
ATOM     29  S   UNL     1       2.099   3.109  20.666  0.00  0.00    +0.000 S 
ATOM     30  O   UNL     1       0.736   2.744  20.343  0.00  0.00    +0.000 OA
ATOM     31  O   UNL     1       2.669   2.943  21.985  0.00  0.00    +0.000 OA
ATOM     32  C   UNL     1       3.194   2.524  19.446  0.00  0.00    +0.000 C 
ATOM     33  C   UNL     1       3.698   3.519  18.700  0.00  0.00    +0.000 C 
ENDBRANCH  21  23
ENDBRANCH  18  19
ENDBRANCH   6  18
TORSDOF 5
ENDMDL
MODEL 8
REMARK VINA RESULT:      -7.3      3.430      9.254
REMARK  Name = 
REMARK  6 active torsions:
REMARK  status: ('A' for Active; 'I' for Inactive)
REMARK    1  A    between atoms: C_1  and  O_2
REMARK    2  A    between atoms: O_2  and  C_3
REMARK    3  A    between atoms: C_8  and  C_9
REMARK    4  A    between atoms: C_9  and  C_10
REMARK    5  A    between atoms: N_12  and  C_13
REMARK    6  A    between atoms: C_24  and  C_25
REMARK                            x       y       z     vdW  Elec       q    Type
REMARK                         _______ _______ _______ _____ _____    ______ ____
ROOT
ATOM      1  C   UNL     1      -3.038  13.423  21.928  0.00  0.00    +0.000 A 
ATOM      2  C   UNL     1      -2.149  13.784  22.880  0.00  0.00    +0.000 A 
ATOM      3  C   UNL     1      -0.753  13.406  22.796  0.00  0.00    +0.000 A 
ATOM      4  C   UNL     1      -0.326  12.708  21.736  0.00  0.00    +0.000 A 
ATOM      5  N   UNL     1      -1.211  12.375  20.705  0.00  0.00    +0.000 N 
ATOM      6  C   UNL     1      -1.007  11.754  19.469  0.00  0.00    +0.000 A 
ATOM      7  C   UNL     1      -2.288  11.636  18.929  0.00  0.00    +0.000 A 
ATOM      8  N   UNL     1      -3.223  12.248  19.725  0.00  0.00    +0.000 NA
ATOM      9  C   UNL     1      -2.575  12.693  20.777  0.00  0.00    +0.000 A 
ENDROOT
BRANCH   7  10
ATOM     10  C   UNL     1      -2.658  11.049  17.641  0.00  0.00    +0.000 A 
ATOM     11  C   UNL     1      -1.934  10.002  17.055  0.00  0.00    +0.000 A 
ATOM     12  C   UNL     1      -2.273   9.502  15.796  0.00  0.00    +0.000 A 
ATOM     13  C   UNL     1      -3.381  10.005  15.123  0.00  0.00    +0.000 A 
ATOM     14  C   UNL     1      -4.153  11.003  15.714  0.00  0.00    +0.000 A 
ATOM     15  C   UNL     1      -3.791  11.523  16.964  0.00  0.00    +0.000 A 
ENDBRANCH   7  10
BRANCH   1  17
ATOM     16  C   UNL     1      -5.210  12.900  22.786  0.00  0.00    +0.000 C 
ATOM     17  O   UNL     1      -4.389  13.679  21.926  0.00  0.00    +0.000 OA
ENDBRANCH   1  17
BRANCH   6  18
ATOM     18  C   UNL     1       0.290  11.358  18.815  0.00  0.00    +0.000 C 
BRANCH  18  19
ATOM     19  C   UNL     1       0.974  10.090  19.248  0.00  0.00    +0.000 C 
ATOM     20  O   UNL     1       0.989   9.746  20.429  0.00  0.00    +0.000 OA
ATOM     21  N   UNL     1       1.580   9.392  18.215  0.00  0.00    +0.000 N 
ATOM     22  H   UNL     1       1.894   9.958  17.433  0.00  0.00    +0.000 HD
BRANCH  21  23
ATOM     23  C   UNL     1       2.263   8.183  18.452  0.00  0.00    +0.000 A 
ATOM     24  C   UNL     1       1.912   7.342  19.530  0.00  0.00    +0.000 A 
ATOM     25  C   UNL     1       2.614   6.153  19.782  0.00  0.00    +0.000 A 
ATOM     26  C   UNL     1       3.690   5.841  18.969  0.00  0.00    +0.000 A 
ATOM     27  C   UNL     1       4.009   6.693  17.914  0.00  0.00    +0.000 A 
ATOM     28  C   UNL     1       3.309   7.843  17.604  0.00  0.00    +0.000 A 
ATOM     29  S   UNL     1       5.444   6.119  17.105  0.00  0.00    +0.000 S 
ATOM     30  O   UNL     1       6.511   7.057  17.379  0.00  0.00    +0.000 OA
ATOM     31  O   UNL     1       5.067   5.721  15.766  0.00  0.00    +0.000 OA
ATOM     32  C   UNL     1       5.569   4.730  18.146  0.00  0.00    +0.000 C 
ATOM     33  C   UNL     1       4.597   4.703  19.071  0.00  0.00    +0.000 C 
ENDBRANCH  21  23
ENDBRANCH  18  19
ENDBRANCH   6  18
TORSDOF 5
ENDMDL
MODEL 9
REMARK VINA RESULT:      -7.3      2.555      4.943
REMARK  Name = 
REMARK  6 active torsions:
REMARK  status: ('A' for Active; 'I' for Inactive)
REMARK    1  A    between atoms: C_1  and  O_2
REMARK    2  A    between atoms: O_2  and  C_3
REMARK    3  A    between atoms: C_8  and  C_9
REMARK    4  A    between atoms: C_9  and  C_10
REMARK    5  A    between atoms: N_12  and  C_13
REMARK    6  A    between atoms: C_24  and  C_25
REMARK                            x       y       z     vdW  Elec       q    Type
REMARK                         _______ _______ _______ _____ _____    ______ ____
ROOT
ATOM      1  C   UNL     1       4.142   6.283  17.440  0.00  0.00    +0.000 A 
ATOM      2  C   UNL     1       4.513   5.160  18.096  0.00  0.00    +0.000 A 
ATOM      3  C   UNL     1       4.051   4.879  19.439  0.00  0.00    +0.000 A 
ATOM      4  C   UNL     1       3.211   5.735  20.036  0.00  0.00    +0.000 A 
ATOM      5  N   UNL     1       2.760   6.873  19.357  0.00  0.00    +0.000 N 
ATOM      6  C   UNL     1       1.825   7.852  19.705  0.00  0.00    +0.000 A 
ATOM      7  C   UNL     1       1.874   8.762  18.648  0.00  0.00    +0.000 A 
ATOM      8  N   UNL     1       2.703   8.321  17.648  0.00  0.00    +0.000 NA
ATOM      9  C   UNL     1       3.221   7.191  18.072  0.00  0.00    +0.000 A 
ENDROOT
BRANCH   7  10
ATOM     10  C   UNL     1       1.095   9.992  18.499  0.00  0.00    +0.000 A 
ATOM     11  C   UNL     1      -0.282   9.984  18.239  0.00  0.00    +0.000 A 
ATOM     12  C   UNL     1      -0.989  11.172  18.041  0.00  0.00    +0.000 A 
ATOM     13  C   UNL     1      -0.339  12.396  18.156  0.00  0.00    +0.000 A 
ATOM     14  C   UNL     1       1.017  12.429  18.476  0.00  0.00    +0.000 A 
ATOM     15  C   UNL     1       1.729  11.234  18.644  0.00  0.00    +0.000 A 
ENDBRANCH   7  10
BRANCH   1  17
ATOM     16  C   UNL     1       5.389   5.792  15.458  0.00  0.00    +0.000 C 
ATOM     17  O   UNL     1       4.555   6.679  16.190  0.00  0.00    +0.000 OA
ENDBRANCH   1  17
BRANCH   6  18
ATOM     18  C   UNL     1       0.912   7.903  20.900  0.00  0.00    +0.000 C 
BRANCH  18  19
ATOM     19  C   UNL     1       0.772   9.192  21.664  0.00  0.00    +0.000 C 
ATOM     20  O   UNL     1       1.667   9.591  22.409  0.00  0.00    +0.000 OA
ATOM     21  N   UNL     1      -0.434   9.844  21.460  0.00  0.00    +0.000 N 
ATOM     22  H   UNL     1      -1.219   9.244  21.229  0.00  0.00    +0.000 HD
BRANCH  21  23
ATOM     23  C   UNL     1      -0.722  11.065  22.101  0.00  0.00    +0.000 A 
ATOM     24  C   UNL     1      -1.769  11.171  23.042  0.00  0.00    +0.000 A 
ATOM     25  C   UNL     1      -2.071  12.396  23.656  0.00  0.00    +0.000 A 
ATOM     26  C   UNL     1      -1.343  13.514  23.288  0.00  0.00    +0.000 A 
ATOM     27  C   UNL     1      -0.317  13.374  22.356  0.00  0.00    +0.000 A 
ATOM     28  C   UNL     1       0.045  12.176  21.771  0.00  0.00    +0.000 A 
ATOM     29  S   UNL     1       0.382  14.934  22.009  0.00  0.00    +0.000 S 
ATOM     30  O   UNL     1       0.026  15.285  20.650  0.00  0.00    +0.000 OA
ATOM     31  O   UNL     1       1.746  14.925  22.491  0.00  0.00    +0.000 OA
ATOM     32  C   UNL     1      -0.664  15.741  23.142  0.00  0.00    +0.000 C 
ATOM     33  C   UNL     1      -1.512  14.890  23.741  0.00  0.00    +0.000 C 
ENDBRANCH  21  23
ENDBRANCH  18  19
ENDBRANCH   6  18
TORSDOF 5
ENDMDL
