MODEL 1
REMARK VINA RESULT:      -8.7      0.000      0.000
REMARK  Name = 
REMARK  5 active torsions:
REMARK  status: ('A' for Active; 'I' for Inactive)
REMARK    1  A    between atoms: C_2  and  C_4
REMARK    2  A    between atoms: C_8  and  C_9
REMARK    3  A    between atoms: C_13  and  C_14
REMARK    4  A    between atoms: N_16  and  C_17
REMARK    5  A    between atoms: C_17  and  C_18
REMARK                            x       y       z     vdW  Elec       q    Type
REMARK                         _______ _______ _______ _____ _____    ______ ____
ROOT
ATOM      1  C   UNL     1       4.061   6.417  18.093  0.00  0.00    +0.000 A 
ATOM      2  C   UNL     1       3.665   7.544  17.386  0.00  0.00    +0.000 A 
ATOM      3  O   UNL     1       2.754   8.246  18.072  0.00  0.00    +0.000 OA
ATOM      4  C   UNL     1       2.395   7.490  19.138  0.00  0.00    +0.000 A 
ATOM      5  C   UNL     1       1.481   7.912  20.099  0.00  0.00    +0.000 A 
ATOM      6  C   UNL     1       0.999   6.922  20.956  0.00  0.00    +0.000 A 
ATOM      7  C   UNL     1       1.546   5.629  20.916  0.00  0.00    +0.000 A 
ATOM      8  C   UNL     1       2.630   5.302  20.058  0.00  0.00    +0.000 A 
ATOM      9  C   UNL     1       3.053   6.259  19.108  0.00  0.00    +0.000 A 
ENDROOT
BRANCH   1  14
ATOM     10  C   UNL     1       6.650   4.921  15.814  0.00  0.00    +0.000 A 
ATOM     11  C   UNL     1       7.623   4.489  16.712  0.00  0.00    +0.000 A 
ATOM     12  C   UNL     1       7.448   4.716  18.089  0.00  0.00    +0.000 A 
ATOM     13  C   UNL     1       6.300   5.359  18.584  0.00  0.00    +0.000 A 
ATOM     14  C   UNL     1       5.306   5.770  17.701  0.00  0.00    +0.000 A 
ATOM     15  C   UNL     1       5.516   5.561  16.318  0.00  0.00    +0.000 A 
BRANCH  10  17
ATOM     16  N   UNL     1       7.741   5.473  13.695  0.00  0.00    +0.000 N 
ATOM     17  C   UNL     1       6.756   4.778  14.332  0.00  0.00    +0.000 C 
ATOM     18  O   UNL     1       6.012   4.035  13.704  0.00  0.00    +0.000 OA
ATOM     19  H   UNL     1       7.841   5.295  12.703  0.00  0.00    +0.000 HD
ATOM     20  H   UNL     1       8.522   5.892  14.177  0.00  0.00    +0.000 HD
ENDBRANCH  10  17
ENDBRANCH   1  14
BRANCH   5  21
ATOM     21  C   UNL     1       1.085   9.347  20.162  0.00  0.00    +0.000 C 
ATOM     22  O   UNL     1       1.162   9.976  21.209  0.00  0.00    +0.000 OA
ATOM     23  N   UNL     1       0.672   9.883  18.955  0.00  0.00    +0.000 N 
ATOM     24  H   UNL     1       0.567   9.243  18.174  0.00  0.00    +0.000 HD
BRANCH  23  25
ATOM     25  C   UNL     1      -0.008  11.148  18.808  0.00  0.00    +0.000 C 
BRANCH  25  26
ATOM     26  C   UNL     1      -1.422  10.934  18.337  0.00  0.00    +0.000 A 
ATOM     27  C   UNL     1      -1.767   9.964  17.388  0.00  0.00    +0.000 A 
ATOM     28  C   UNL     1      -3.087   9.840  16.964  0.00  0.00    +0.000 A 
ATOM     29  C   UNL     1      -4.035  10.701  17.502  0.00  0.00    +0.000 A 
ATOM     30  N   UNL     1      -3.743  11.649  18.412  0.00  0.00    +0.000 NA
ATOM     31  C   UNL     1      -2.450  11.751  18.804  0.00  0.00    +0.000 A 
ENDBRANCH  25  26
ENDBRANCH  23  25
ENDBRANCH   5  21
TORSDOF 5
ENDMDL
MODEL 2
REMARK VINA RESULT:      -8.3      2.637      8.680
REMARK  Name = 
REMARK  5 active torsions:
REMARK  status: ('A' for Active; 'I' for Inactive)
REMARK    1  A    between atoms: C_2  and  C_4
REMARK    2  A    between atoms: C_8  and  C_9
REMARK    3  A    between atoms: C_13  and  C_14
REMARK    4  A    between atoms: N_16  and  C_17
REMARK    5  A    between atoms: C_17  and  C_18
REMARK                            x       y       z     vdW  Elec       q    Type
REMARK                         _______ _______ _______ _____ _____    ______ ____
ROOT
ATOM      1  C   UNL     1       2.268   7.353  19.180  0.00  0.00    +0.000 A 
ATOM      2  C   UNL     1       3.179   7.248  18.137  0.00  0.00    +0.000 A 
ATOM      3  O   UNL     1       3.458   5.966  17.871  0.00  0.00    +0.000 OA
ATOM      4  C   UNL     1       2.895   5.227  18.858  0.00  0.00    +0.000 A 
ATOM      5  C   UNL     1       2.954   3.836  18.897  0.00  0.00    +0.000 A 
ATOM      6  C   UNL     1       2.593   3.247  20.109  0.00  0.00    +0.000 A 
ATOM      7  C   UNL     1       2.061   4.034  21.144  0.00  0.00    +0.000 A 
ATOM      8  C   UNL     1       1.821   5.425  20.978  0.00  0.00    +0.000 A 
ATOM      9  C   UNL     1       2.284   6.055  19.801  0.00  0.00    +0.000 A 
ENDROOT
BRANCH   1  14
ATOM     10  C   UNL     1       0.296  10.058  20.891  0.00  0.00    +0.000 A 
ATOM     11  C   UNL     1       0.091  10.974  19.862  0.00  0.00    +0.000 A 
ATOM     12  C   UNL     1       0.631  10.721  18.589  0.00  0.00    +0.000 A 
ATOM     13  C   UNL     1       1.366   9.551  18.325  0.00  0.00    +0.000 A 
ATOM     14  C   UNL     1       1.555   8.614  19.336  0.00  0.00    +0.000 A 
ATOM     15  C   UNL     1       1.030   8.902  20.618  0.00  0.00    +0.000 A 
BRANCH  10  17
ATOM     16  N   UNL     1      -0.449   9.134  23.030  0.00  0.00    +0.000 N 
ATOM     17  C   UNL     1      -0.188  10.249  22.290  0.00  0.00    +0.000 C 
ATOM     18  O   UNL     1      -0.314  11.365  22.780  0.00  0.00    +0.000 OA
ATOM     19  H   UNL     1      -0.698   9.291  23.999  0.00  0.00    +0.000 HD
ATOM     20  H   UNL     1      -0.132   8.212  22.771  0.00  0.00    +0.000 HD
ENDBRANCH  10  17
ENDBRANCH   1  14
BRANCH   5  21
ATOM     21  C   UNL     1       3.379   3.080  17.686  0.00  0.00    +0.000 C 
ATOM     22  O   UNL     1       2.696   2.168  17.241  0.00  0.00    +0.000 OA
ATOM     23  N   UNL     1       4.562   3.522  17.118  0.00  0.00    +0.000 N 
ATOM     24  H   UNL     1       5.085   4.229  17.625  0.00  0.00    +0.000 HD
BRANCH  23  25
ATOM     25  C   UNL     1       5.315   2.799  16.121  0.00  0.00    +0.000 C 
BRANCH  25  26
ATOM     26  C   UNL     1       6.074   3.752  15.238  0.00  0.00    +0.000 A 
ATOM     27  C   UNL     1       6.032   3.689  13.840  0.00  0.00    +0.000 A 
ATOM     28  C   UNL     1       6.787   4.575  13.077  0.00  0.00    +0.000 A 
ATOM     29  C   UNL     1       7.574   5.507  13.739  0.00  0.00    +0.000 A 
ATOM     30  N   UNL     1       7.646   5.598  15.081  0.00  0.00    +0.000 NA
ATOM     31  C   UNL     1       6.905   4.720  15.799  0.00  0.00    +0.000 A 
ENDBRANCH  25  26
ENDBRANCH  23  25
ENDBRANCH   5  21
TORSDOF 5
ENDMDL
MODEL 3
REMARK VINA RESULT:      -8.2      2.739      3.733
REMARK  Name = 
REMARK  5 active torsions:
REMARK  status: ('A' for Active; 'I' for Inactive)
REMARK    1  A    between atoms: C_2  and  C_4
REMARK    2  A    between atoms: C_8  and  C_9
REMARK    3  A    between atoms: C_13  and  C_14
REMARK    4  A    between atoms: N_16  and  C_17
REMARK    5  A    between atoms: C_17  and  C_18
REMARK                            x       y       z     vdW  Elec       q    Type
REMARK                         _______ _______ _______ _____ _____    ______ ____
ROOT
ATOM      1  C   UNL     1       4.310   4.991  16.586  0.00  0.00    +0.000 A 
ATOM      2  C   UNL     1       4.092   6.249  17.131  0.00  0.00    +0.000 A 
ATOM      3  O   UNL     1       3.375   6.166  18.259  0.00  0.00    +0.000 OA
ATOM      4  C   UNL     1       2.946   4.885  18.360  0.00  0.00    +0.000 A 
ATOM      5  C   UNL     1       2.190   4.415  19.431  0.00  0.00    +0.000 A 
ATOM      6  C   UNL     1       1.583   3.173  19.249  0.00  0.00    +0.000 A 
ATOM      7  C   UNL     1       1.871   2.410  18.105  0.00  0.00    +0.000 A 
ATOM      8  C   UNL     1       2.818   2.840  17.137  0.00  0.00    +0.000 A 
ATOM      9  C   UNL     1       3.355   4.143  17.251  0.00  0.00    +0.000 A 
ENDROOT
BRANCH   1  14
ATOM     10  C   UNL     1       6.034   3.898  13.429  0.00  0.00    +0.000 A 
ATOM     11  C   UNL     1       7.320   4.402  13.603  0.00  0.00    +0.000 A 
ATOM     12  C   UNL     1       7.628   5.140  14.759  0.00  0.00    +0.000 A 
ATOM     13  C   UNL     1       6.664   5.370  15.758  0.00  0.00    +0.000 A 
ATOM     14  C   UNL     1       5.383   4.848  15.611  0.00  0.00    +0.000 A 
ATOM     15  C   UNL     1       5.085   4.136  14.426  0.00  0.00    +0.000 A 
BRANCH  10  17
ATOM     16  N   UNL     1       6.379   2.134  11.770  0.00  0.00    +0.000 N 
ATOM     17  C   UNL     1       5.585   3.146  12.220  0.00  0.00    +0.000 C 
ATOM     18  O   UNL     1       4.521   3.397  11.667  0.00  0.00    +0.000 OA
ATOM     19  H   UNL     1       6.012   1.590  10.998  0.00  0.00    +0.000 HD
ATOM     20  H   UNL     1       7.122   1.728  12.318  0.00  0.00    +0.000 HD
ENDBRANCH  10  17
ENDBRANCH   1  14
BRANCH   5  21
ATOM     21  C   UNL     1       2.078   5.234  20.671  0.00  0.00    +0.000 C 
ATOM     22  O   UNL     1       2.287   4.742  21.771  0.00  0.00    +0.000 OA
ATOM     23  N   UNL     1       1.761   6.564  20.456  0.00  0.00    +0.000 N 
ATOM     24  H   UNL     1       1.525   6.837  19.507  0.00  0.00    +0.000 HD
BRANCH  23  25
ATOM     25  C   UNL     1       1.335   7.484  21.484  0.00  0.00    +0.000 C 
BRANCH  25  26
ATOM     26  C   UNL     1       1.140   8.862  20.911  0.00  0.00    +0.000 A 
ATOM     27  C   UNL     1       1.203   9.128  19.538  0.00  0.00    +0.000 A 
ATOM     28  C   UNL     1       1.052  10.431  19.072  0.00  0.00    +0.000 A 
ATOM     29  C   UNL     1       0.846  11.443  20.000  0.00  0.00    +0.000 A 
ATOM     30  N   UNL     1       0.784  11.229  21.328  0.00  0.00    +0.000 NA
ATOM     31  C   UNL     1       0.939   9.953  21.755  0.00  0.00    +0.000 A 
ENDBRANCH  25  26
ENDBRANCH  23  25
ENDBRANCH   5  21
TORSDOF 5
ENDMDL
MODEL 4
REMARK VINA RESULT:      -8.1      3.307      4.772
REMARK  Name = 
REMARK  5 active torsions:
REMARK  status: ('A' for Active; 'I' for Inactive)
REMARK    1  A    between atoms: C_2  and  C_4
REMARK    2  A    between atoms: C_8  and  C_9
REMARK    3  A    between atoms: C_13  and  C_14
REMARK    4  A    between atoms: N_16  and  C_17
REMARK    5  A    between atoms: C_17  and  C_18
REMARK                            x       y       z     vdW  Elec       q    Type
REMARK                         _______ _______ _______ _____ _____    ______ ____
ROOT
ATOM      1  C   UNL     1       1.760   8.466  19.005  0.00  0.00    +0.000 A 
ATOM      2  C   UNL     1       1.768   9.531  18.115  0.00  0.00    +0.000 A 
ATOM      3  O   UNL     1       1.408  10.668  18.723  0.00  0.00    +0.000 OA
ATOM      4  C   UNL     1       0.968  10.331  19.960  0.00  0.00    +0.000 A 
ATOM      5  C   UNL     1       0.536  11.266  20.897  0.00  0.00    +0.000 A 
ATOM      6  C   UNL     1      -0.154  10.752  21.994  0.00  0.00    +0.000 A 
ATOM      7  C   UNL     1      -0.248   9.362  22.180  0.00  0.00    +0.000 A 
ATOM      8  C   UNL     1       0.396   8.446  21.305  0.00  0.00    +0.000 A 
ATOM      9  C   UNL     1       1.002   8.946  20.130  0.00  0.00    +0.000 A 
ENDROOT
BRANCH   1  14
ATOM     10  C   UNL     1       4.334   6.343  17.272  0.00  0.00    +0.000 A 
ATOM     11  C   UNL     1       4.029   5.066  17.738  0.00  0.00    +0.000 A 
ATOM     12  C   UNL     1       2.981   4.894  18.659  0.00  0.00    +0.000 A 
ATOM     13  C   UNL     1       2.220   5.986  19.113  0.00  0.00    +0.000 A 
ATOM     14  C   UNL     1       2.494   7.263  18.635  0.00  0.00    +0.000 A 
ATOM     15  C   UNL     1       3.573   7.419  17.733  0.00  0.00    +0.000 A 
BRANCH  10  17
ATOM     16  N   UNL     1       6.598   7.172  16.859  0.00  0.00    +0.000 N 
ATOM     17  C   UNL     1       5.455   6.647  16.334  0.00  0.00    +0.000 C 
ATOM     18  O   UNL     1       5.374   6.402  15.136  0.00  0.00    +0.000 OA
ATOM     19  H   UNL     1       7.369   7.294  16.213  0.00  0.00    +0.000 HD
ATOM     20  H   UNL     1       6.809   7.162  17.845  0.00  0.00    +0.000 HD
ENDBRANCH  10  17
ENDBRANCH   1  14
BRANCH   5  21
ATOM     21  C   UNL     1       0.828  12.712  20.686  0.00  0.00    +0.000 C 
ATOM     22  O   UNL     1       1.387  13.373  21.550  0.00  0.00    +0.000 OA
ATOM     23  N   UNL     1       0.448  13.201  19.448  0.00  0.00    +0.000 N 
ATOM     24  H   UNL     1      -0.085  12.581  18.848  0.00  0.00    +0.000 HD
BRANCH  23  25
ATOM     25  C   UNL     1       0.373  14.601  19.107  0.00  0.00    +0.000 C 
BRANCH  25  26
ATOM     26  C   UNL     1       1.734  15.128  18.736  0.00  0.00    +0.000 A 
ATOM     27  C   UNL     1       2.732  14.322  18.178  0.00  0.00    +0.000 A 
ATOM     28  C   UNL     1       3.984  14.858  17.891  0.00  0.00    +0.000 A 
ATOM     29  C   UNL     1       4.207  16.198  18.177  0.00  0.00    +0.000 A 
ATOM     30  N   UNL     1       3.275  17.006  18.718  0.00  0.00    +0.000 NA
ATOM     31  C   UNL     1       2.067  16.457  18.992  0.00  0.00    +0.000 A 
ENDBRANCH  25  26
ENDBRANCH  23  25
ENDBRANCH   5  21
TORSDOF 5
ENDMDL
MODEL 5
REMARK VINA RESULT:      -8.1      3.587      4.957
REMARK  Name = 
REMARK  5 active torsions:
REMARK  status: ('A' for Active; 'I' for Inactive)
REMARK    1  A    between atoms: C_2  and  C_4
REMARK    2  A    between atoms: C_8  and  C_9
REMARK    3  A    between atoms: C_13  and  C_14
REMARK    4  A    between atoms: N_16  and  C_17
REMARK    5  A    between atoms: C_17  and  C_18
REMARK                            x       y       z     vdW  Elec       q    Type
REMARK                         _______ _______ _______ _____ _____    ______ ____
ROOT
ATOM      1  C   UNL     1       1.990   8.412  18.631  0.00  0.00    +0.000 A 
ATOM      2  C   UNL     1       1.838   9.524  17.814  0.00  0.00    +0.000 A 
ATOM      3  O   UNL     1       1.454  10.593  18.522  0.00  0.00    +0.000 OA
ATOM      4  C   UNL     1       1.157  10.153  19.769  0.00  0.00    +0.000 A 
ATOM      5  C   UNL     1       0.747  10.997  20.798  0.00  0.00    +0.000 A 
ATOM      6  C   UNL     1       0.202  10.369  21.918  0.00  0.00    +0.000 A 
ATOM      7  C   UNL     1       0.228   8.968  22.023  0.00  0.00    +0.000 A 
ATOM      8  C   UNL     1       0.852   8.156  21.038  0.00  0.00    +0.000 A 
ATOM      9  C   UNL     1       1.307   8.767  19.848  0.00  0.00    +0.000 A 
ENDROOT
BRANCH   1  14
ATOM     10  C   UNL     1       2.913   4.840  17.910  0.00  0.00    +0.000 A 
ATOM     11  C   UNL     1       4.140   4.974  17.265  0.00  0.00    +0.000 A 
ATOM     12  C   UNL     1       4.666   6.256  17.032  0.00  0.00    +0.000 A 
ATOM     13  C   UNL     1       3.985   7.414  17.451  0.00  0.00    +0.000 A 
ATOM     14  C   UNL     1       2.773   7.294  18.122  0.00  0.00    +0.000 A 
ATOM     15  C   UNL     1       2.245   5.996  18.318  0.00  0.00    +0.000 A 
BRANCH  10  17
ATOM     16  N   UNL     1       2.955   2.560  18.795  0.00  0.00    +0.000 N 
ATOM     17  C   UNL     1       2.238   3.533  18.164  0.00  0.00    +0.000 C 
ATOM     18  O   UNL     1       1.068   3.343  17.853  0.00  0.00    +0.000 OA
ATOM     19  H   UNL     1       2.448   1.713  19.025  0.00  0.00    +0.000 HD
ATOM     20  H   UNL     1       3.817   2.739  19.286  0.00  0.00    +0.000 HD
ENDBRANCH  10  17
ENDBRANCH   1  14
BRANCH   5  21
ATOM     21  C   UNL     1       0.912  12.470  20.655  0.00  0.00    +0.000 C 
ATOM     22  O   UNL     1       1.484  13.126  21.515  0.00  0.00    +0.000 OA
ATOM     23  N   UNL     1       0.403  12.995  19.479  0.00  0.00    +0.000 N 
ATOM     24  H   UNL     1      -0.127  12.368  18.883  0.00  0.00    +0.000 HD
BRANCH  23  25
ATOM     25  C   UNL     1       0.196  14.401  19.230  0.00  0.00    +0.000 C 
BRANCH  25  26
ATOM     26  C   UNL     1       1.473  15.048  18.765  0.00  0.00    +0.000 A 
ATOM     27  C   UNL     1       2.534  14.321  18.213  0.00  0.00    +0.000 A 
ATOM     28  C   UNL     1       3.706  14.971  17.837  0.00  0.00    +0.000 A 
ATOM     29  C   UNL     1       3.787  16.344  18.029  0.00  0.00    +0.000 A 
ATOM     30  N   UNL     1       2.792  17.078  18.561  0.00  0.00    +0.000 NA
ATOM     31  C   UNL     1       1.665  16.419  18.923  0.00  0.00    +0.000 A 
ENDBRANCH  25  26
ENDBRANCH  23  25
ENDBRANCH   5  21
TORSDOF 5
ENDMDL
MODEL 6
REMARK VINA RESULT:      -8.1      2.644      3.625
REMARK  Name = 
REMARK  5 active torsions:
REMARK  status: ('A' for Active; 'I' for Inactive)
REMARK    1  A    between atoms: C_2  and  C_4
REMARK    2  A    between atoms: C_8  and  C_9
REMARK    3  A    between atoms: C_13  and  C_14
REMARK    4  A    between atoms: N_16  and  C_17
REMARK    5  A    between atoms: C_17  and  C_18
REMARK                            x       y       z     vdW  Elec       q    Type
REMARK                         _______ _______ _______ _____ _____    ______ ____
ROOT
ATOM      1  C   UNL     1       2.712   6.522  19.007  0.00  0.00    +0.000 A 
ATOM      2  C   UNL     1       2.603   6.284  20.370  0.00  0.00    +0.000 A 
ATOM      3  O   UNL     1       1.800   7.183  20.953  0.00  0.00    +0.000 OA
ATOM      4  C   UNL     1       1.534   8.133  20.024  0.00  0.00    +0.000 A 
ATOM      5  C   UNL     1       0.700   9.222  20.265  0.00  0.00    +0.000 A 
ATOM      6  C   UNL     1       0.761  10.253  19.327  0.00  0.00    +0.000 A 
ATOM      7  C   UNL     1       1.513  10.093  18.152  0.00  0.00    +0.000 A 
ATOM      8  C   UNL     1       2.179   8.875  17.851  0.00  0.00    +0.000 A 
ATOM      9  C   UNL     1       2.219   7.865  18.838  0.00  0.00    +0.000 A 
ENDROOT
BRANCH   1  14
ATOM     10  C   UNL     1       5.045   4.659  16.723  0.00  0.00    +0.000 A 
ATOM     11  C   UNL     1       4.329   3.496  16.450  0.00  0.00    +0.000 A 
ATOM     12  C   UNL     1       3.071   3.299  17.045  0.00  0.00    +0.000 A 
ATOM     13  C   UNL     1       2.509   4.261  17.904  0.00  0.00    +0.000 A 
ATOM     14  C   UNL     1       3.200   5.440  18.163  0.00  0.00    +0.000 A 
ATOM     15  C   UNL     1       4.478   5.605  17.579  0.00  0.00    +0.000 A 
BRANCH  10  17
ATOM     16  N   UNL     1       6.513   5.851  15.171  0.00  0.00    +0.000 N 
ATOM     17  C   UNL     1       6.408   4.948  16.187  0.00  0.00    +0.000 C 
ATOM     18  O   UNL     1       7.410   4.426  16.663  0.00  0.00    +0.000 OA
ATOM     19  H   UNL     1       7.455   6.088  14.881  0.00  0.00    +0.000 HD
ATOM     20  H   UNL     1       5.771   6.484  14.915  0.00  0.00    +0.000 HD
ENDBRANCH  10  17
ENDBRANCH   1  14
BRANCH   5  21
ATOM     21  C   UNL     1      -0.185   9.224  21.463  0.00  0.00    +0.000 C 
ATOM     22  O   UNL     1      -0.815   8.225  21.782  0.00  0.00    +0.000 OA
ATOM     23  N   UNL     1      -0.193  10.414  22.171  0.00  0.00    +0.000 N 
ATOM     24  H   UNL     1       0.300  11.200  21.761  0.00  0.00    +0.000 HD
BRANCH  23  25
ATOM     25  C   UNL     1      -1.155  10.756  23.190  0.00  0.00    +0.000 C 
BRANCH  25  26
ATOM     26  C   UNL     1      -2.061  11.859  22.712  0.00  0.00    +0.000 A 
ATOM     27  C   UNL     1      -1.825  12.577  21.534  0.00  0.00    +0.000 A 
ATOM     28  C   UNL     1      -2.678  13.613  21.163  0.00  0.00    +0.000 A 
ATOM     29  C   UNL     1      -3.752  13.908  21.991  0.00  0.00    +0.000 A 
ATOM     30  N   UNL     1      -4.011  13.245  23.134  0.00  0.00    +0.000 NA
ATOM     31  C   UNL     1      -3.163  12.245  23.474  0.00  0.00    +0.000 A 
ENDBRANCH  25  26
ENDBRANCH  23  25
ENDBRANCH   5  21
TORSDOF 5
ENDMDL
MODEL 7
REMARK VINA RESULT:      -8.0      2.124      8.607
REMARK  Name = 
REMARK  5 active torsions:
REMARK  status: ('A' for Active; 'I' for Inactive)
REMARK    1  A    between atoms: C_2  and  C_4
REMARK    2  A    between atoms: C_8  and  C_9
REMARK    3  A    between atoms: C_13  and  C_14
REMARK    4  A    between atoms: N_16  and  C_17
REMARK    5  A    between atoms: C_17  and  C_18
REMARK                            x       y       z     vdW  Elec       q    Type
REMARK                         _______ _______ _______ _____ _____    ______ ____
ROOT
ATOM      1  C   UNL     1       1.719   9.451  18.657  0.00  0.00    +0.000 A 
ATOM      2  C   UNL     1       2.567   9.088  17.620  0.00  0.00    +0.000 A 
ATOM      3  O   UNL     1       2.765   7.764  17.601  0.00  0.00    +0.000 OA
ATOM      4  C   UNL     1       2.216   7.269  18.737  0.00  0.00    +0.000 A 
ATOM      5  C   UNL     1       2.203   5.911  19.048  0.00  0.00    +0.000 A 
ATOM      6  C   UNL     1       1.874   5.593  20.366  0.00  0.00    +0.000 A 
ATOM      7  C   UNL     1       1.438   6.598  21.245  0.00  0.00    +0.000 A 
ATOM      8  C   UNL     1       1.264   7.942  20.817  0.00  0.00    +0.000 A 
ATOM      9  C   UNL     1       1.698   8.300  19.521  0.00  0.00    +0.000 A 
ENDROOT
BRANCH   1  14
ATOM     10  C   UNL     1      -1.057  11.970  18.360  0.00  0.00    +0.000 A 
ATOM     11  C   UNL     1      -0.366  13.179  18.391  0.00  0.00    +0.000 A 
ATOM     12  C   UNL     1       1.032  13.177  18.541  0.00  0.00    +0.000 A 
ATOM     13  C   UNL     1       1.755  11.975  18.647  0.00  0.00    +0.000 A 
ATOM     14  C   UNL     1       1.081  10.759  18.589  0.00  0.00    +0.000 A 
ATOM     15  C   UNL     1      -0.328  10.783  18.470  0.00  0.00    +0.000 A 
BRANCH  10  17
ATOM     16  N   UNL     1      -3.083  11.729  17.011  0.00  0.00    +0.000 N 
ATOM     17  C   UNL     1      -2.541  11.855  18.256  0.00  0.00    +0.000 C 
ATOM     18  O   UNL     1      -3.256  11.837  19.251  0.00  0.00    +0.000 OA
ATOM     19  H   UNL     1      -4.084  11.573  16.975  0.00  0.00    +0.000 HD
ATOM     20  H   UNL     1      -2.542  11.491  16.195  0.00  0.00    +0.000 HD
ENDBRANCH  10  17
ENDBRANCH   1  14
BRANCH   5  21
ATOM     21  C   UNL     1       2.525   4.908  17.994  0.00  0.00    +0.000 C 
ATOM     22  O   UNL     1       1.638   4.352  17.362  0.00  0.00    +0.000 OA
ATOM     23  N   UNL     1       3.879   4.705  17.789  0.00  0.00    +0.000 N 
ATOM     24  H   UNL     1       4.519   5.157  18.432  0.00  0.00    +0.000 HD
BRANCH  23  25
ATOM     25  C   UNL     1       4.439   3.610  17.033  0.00  0.00    +0.000 C 
BRANCH  25  26
ATOM     26  C   UNL     1       5.403   4.123  15.996  0.00  0.00    +0.000 A 
ATOM     27  C   UNL     1       5.346   3.737  14.652  0.00  0.00    +0.000 A 
ATOM     28  C   UNL     1       6.290   4.215  13.748  0.00  0.00    +0.000 A 
ATOM     29  C   UNL     1       7.276   5.072  14.217  0.00  0.00    +0.000 A 
ATOM     30  N   UNL     1       7.368   5.463  15.503  0.00  0.00    +0.000 NA
ATOM     31  C   UNL     1       6.440   4.978  16.362  0.00  0.00    +0.000 A 
ENDBRANCH  25  26
ENDBRANCH  23  25
ENDBRANCH   5  21
TORSDOF 5
ENDMDL
MODEL 8
REMARK VINA RESULT:      -8.0      2.570      3.600
REMARK  Name = 
REMARK  5 active torsions:
REMARK  status: ('A' for Active; 'I' for Inactive)
REMARK    1  A    between atoms: C_2  and  C_4
REMARK    2  A    between atoms: C_8  and  C_9
REMARK    3  A    between atoms: C_13  and  C_14
REMARK    4  A    between atoms: N_16  and  C_17
REMARK    5  A    between atoms: C_17  and  C_18
REMARK                            x       y       z     vdW  Elec       q    Type
REMARK                         _______ _______ _______ _____ _____    ______ ____
ROOT
ATOM      1  C   UNL     1       2.809   6.627  18.897  0.00  0.00    +0.000 A 
ATOM      2  C   UNL     1       2.705   6.362  20.256  0.00  0.00    +0.000 A 
ATOM      3  O   UNL     1       1.871   7.224  20.851  0.00  0.00    +0.000 OA
ATOM      4  C   UNL     1       1.576   8.180  19.938  0.00  0.00    +0.000 A 
ATOM      5  C   UNL     1       0.704   9.236  20.195  0.00  0.00    +0.000 A 
ATOM      6  C   UNL     1       0.733  10.285  19.275  0.00  0.00    +0.000 A 
ATOM      7  C   UNL     1       1.492  10.170  18.099  0.00  0.00    +0.000 A 
ATOM      8  C   UNL     1       2.200   8.980  17.779  0.00  0.00    +0.000 A 
ATOM      9  C   UNL     1       2.272   7.955  18.750  0.00  0.00    +0.000 A 
ENDROOT
BRANCH   1  14
ATOM     10  C   UNL     1       5.095   4.964  16.419  0.00  0.00    +0.000 A 
ATOM     11  C   UNL     1       4.507   3.711  16.266  0.00  0.00    +0.000 A 
ATOM     12  C   UNL     1       3.357   3.387  17.008  0.00  0.00    +0.000 A 
ATOM     13  C   UNL     1       2.775   4.311  17.895  0.00  0.00    +0.000 A 
ATOM     14  C   UNL     1       3.335   5.577  18.036  0.00  0.00    +0.000 A 
ATOM     15  C   UNL     1       4.510   5.871  17.305  0.00  0.00    +0.000 A 
BRANCH  10  17
ATOM     16  N   UNL     1       7.209   6.195  16.405  0.00  0.00    +0.000 N 
ATOM     17  C   UNL     1       6.342   5.395  15.721  0.00  0.00    +0.000 C 
ATOM     18  O   UNL     1       6.606   5.016  14.586  0.00  0.00    +0.000 OA
ATOM     19  H   UNL     1       8.083   6.406  15.938  0.00  0.00    +0.000 HD
ATOM     20  H   UNL     1       7.167   6.329  17.403  0.00  0.00    +0.000 HD
ENDBRANCH  10  17
ENDBRANCH   1  14
BRANCH   5  21
ATOM     21  C   UNL     1      -0.183   9.188  21.391  0.00  0.00    +0.000 C 
ATOM     22  O   UNL     1      -0.795   8.169  21.680  0.00  0.00    +0.000 OA
ATOM     23  N   UNL     1      -0.213  10.357  22.132  0.00  0.00    +0.000 N 
ATOM     24  H   UNL     1       0.267  11.163  21.747  0.00  0.00    +0.000 HD
BRANCH  23  25
ATOM     25  C   UNL     1      -1.183  10.653  23.159  0.00  0.00    +0.000 C 
BRANCH  25  26
ATOM     26  C   UNL     1      -2.066  11.797  22.737  0.00  0.00    +0.000 A 
ATOM     27  C   UNL     1      -3.084  12.309  23.549  0.00  0.00    +0.000 A 
ATOM     28  C   UNL     1      -3.892  13.344  23.088  0.00  0.00    +0.000 A 
ATOM     29  C   UNL     1      -3.662  13.840  21.812  0.00  0.00    +0.000 A 
ATOM     30  N   UNL     1      -2.697  13.371  20.998  0.00  0.00    +0.000 NA
ATOM     31  C   UNL     1      -1.928  12.361  21.470  0.00  0.00    +0.000 A 
ENDBRANCH  25  26
ENDBRANCH  23  25
ENDBRANCH   5  21
TORSDOF 5
ENDMDL
MODEL 9
REMARK VINA RESULT:      -8.0      2.147      8.470
REMARK  Name = 
REMARK  5 active torsions:
REMARK  status: ('A' for Active; 'I' for Inactive)
REMARK    1  A    between atoms: C_2  and  C_4
REMARK    2  A    between atoms: C_8  and  C_9
REMARK    3  A    between atoms: C_13  and  C_14
REMARK    4  A    between atoms: N_16  and  C_17
REMARK    5  A    between atoms: C_17  and  C_18
REMARK                            x       y       z     vdW  Elec       q    Type
REMARK                         _______ _______ _______ _____ _____    ______ ____
ROOT
ATOM      1  C   UNL     1       1.908   8.120  18.915  0.00  0.00    +0.000 A 
ATOM      2  C   UNL     1       2.744   8.038  17.810  0.00  0.00    +0.000 A 
ATOM      3  O   UNL     1       3.101   6.770  17.570  0.00  0.00    +0.000 OA
ATOM      4  C   UNL     1       2.671   6.034  18.623  0.00  0.00    +0.000 A 
ATOM      5  C   UNL     1       2.839   4.654  18.709  0.00  0.00    +0.000 A 
ATOM      6  C   UNL     1       2.614   4.092  19.966  0.00  0.00    +0.000 A 
ATOM      7  C   UNL     1       2.102   4.880  21.009  0.00  0.00    +0.000 A 
ATOM      8  C   UNL     1       1.744   6.241  20.812  0.00  0.00    +0.000 A 
ATOM      9  C   UNL     1       2.070   6.853  19.580  0.00  0.00    +0.000 A 
ENDROOT
BRANCH   1  14
ATOM     10  C   UNL     1      -0.755  10.672  18.187  0.00  0.00    +0.000 A 
ATOM     11  C   UNL     1      -0.528  11.628  19.174  0.00  0.00    +0.000 A 
ATOM     12  C   UNL     1       0.495  11.425  20.116  0.00  0.00    +0.000 A 
ATOM     13  C   UNL     1       1.310  10.279  20.077  0.00  0.00    +0.000 A 
ATOM     14  C   UNL     1       1.113   9.329  19.079  0.00  0.00    +0.000 A 
ATOM     15  C   UNL     1       0.058   9.537  18.160  0.00  0.00    +0.000 A 
BRANCH  10  17
ATOM     16  N   UNL     1      -2.356  11.992  16.892  0.00  0.00    +0.000 N 
ATOM     17  C   UNL     1      -1.843  10.760  17.169  0.00  0.00    +0.000 C 
ATOM     18  O   UNL     1      -2.243   9.769  16.569  0.00  0.00    +0.000 OA
ATOM     19  H   UNL     1      -3.036  12.033  16.142  0.00  0.00    +0.000 HD
ATOM     20  H   UNL     1      -1.905  12.852  17.163  0.00  0.00    +0.000 HD
ENDBRANCH  10  17
ENDBRANCH   1  14
BRANCH   5  21
ATOM     21  C   UNL     1       3.230   3.881  17.498  0.00  0.00    +0.000 C 
ATOM     22  O   UNL     1       2.392   3.294  16.828  0.00  0.00    +0.000 OA
ATOM     23  N   UNL     1       4.581   3.923  17.200  0.00  0.00    +0.000 N 
ATOM     24  H   UNL     1       5.192   4.368  17.877  0.00  0.00    +0.000 HD
BRANCH  23  25
ATOM     25  C   UNL     1       5.242   3.052  16.257  0.00  0.00    +0.000 C 
BRANCH  25  26
ATOM     26  C   UNL     1       6.033   3.856  15.260  0.00  0.00    +0.000 A 
ATOM     27  C   UNL     1       5.942   3.652  13.878  0.00  0.00    +0.000 A 
ATOM     28  C   UNL     1       6.727   4.402  13.008  0.00  0.00    +0.000 A 
ATOM     29  C   UNL     1       7.594   5.342  13.549  0.00  0.00    +0.000 A 
ATOM     30  N   UNL     1       7.714   5.565  14.871  0.00  0.00    +0.000 NA
ATOM     31  C   UNL     1       6.942   4.818  15.696  0.00  0.00    +0.000 A 
ENDBRANCH  25  26
ENDBRANCH  23  25
ENDBRANCH   5  21
TORSDOF 5
ENDMDL
