MODEL 1
REMARK VINA RESULT:      -9.7      0.000      0.000
REMARK  Name = 
REMARK  9 active torsions:
REMARK  status: ('A' for Active; 'I' for Inactive)
REMARK    1  A    between atoms: C_1  and  C_2
REMARK    2  A    between atoms: C_2  and  C_3
REMARK    3  A    between atoms: C_5  and  C_6
REMARK    4  A    between atoms: C_6  and  N_7
REMARK    5  A    between atoms: N_10  and  C_11
REMARK    6  A    between atoms: C_15  and  N_16
REMARK    7  A    between atoms: C_17  and  C_19
REMARK    8  A    between atoms: N_26  and  C_27
REMARK    9  A    between atoms: C_34  and  C_35
REMARK                            x       y       z     vdW  Elec       q    Type
REMARK                         _______ _______ _______ _____ _____    ______ ____
ROOT
ATOM      1  N   UNL     1       1.877   7.249  20.718  0.00  0.00    +0.000 N 
ATOM      2  C   UNL     1       1.587   8.394  20.002  0.00  0.00    +0.000 C 
ATOM      3  O   UNL     1       1.773   8.590  18.813  0.00  0.00    +0.000 OA
ATOM      4  H   UNL     1       1.623   7.245  21.697  0.00  0.00    +0.000 HD
ENDROOT
BRANCH   2   5
ATOM      5  C   UNL     1       0.844   9.417  20.794  0.00  0.00    +0.000 A 
ATOM      6  C   UNL     1       0.267   9.230  22.064  0.00  0.00    +0.000 A 
ATOM      7  C   UNL     1      -0.610  10.215  22.611  0.00  0.00    +0.000 A 
ATOM      8  C   UNL     1      -0.945  11.334  21.853  0.00  0.00    +0.000 A 
ATOM      9  C   UNL     1      -0.366  11.479  20.582  0.00  0.00    +0.000 A 
ATOM     10  C   UNL     1       0.592  10.583  20.099  0.00  0.00    +0.000 A 
ATOM     11  C   UNL     1      -0.909  12.514  19.642  0.00  0.00    +0.000 C 
ATOM     12  N   UNL     1      -2.387  12.434  19.648  0.00  0.00    +0.000 N 
ATOM     13  C   UNL     1      -3.033  12.382  20.994  0.00  0.00    +0.000 C 
ATOM     14  C   UNL     1      -1.968  12.436  22.142  0.00  0.00    +0.000 C 
ATOM     15  C   UNL     1      -2.574  12.598  23.535  0.00  0.00    +0.000 C 
BRANCH  12  16
ATOM     16  C   UNL     1      -2.967  11.945  18.480  0.00  0.00    +0.000 A 
ATOM     17  C   UNL     1      -4.319  11.742  18.247  0.00  0.00    +0.000 A 
ATOM     18  N   UNL     1      -4.849  11.187  17.124  0.00  0.00    +0.000 NA
ATOM     19  C   UNL     1      -3.978  10.830  16.173  0.00  0.00    +0.000 A 
ATOM     20  N   UNL     1      -2.657  11.013  16.225  0.00  0.00    +0.000 NA
ATOM     21  C   UNL     1      -2.207  11.579  17.367  0.00  0.00    +0.000 A 
ENDBRANCH  12  16
ENDBRANCH   2   5
BRANCH   1  26
ATOM     22  C   UNL     1       2.097   3.660  19.863  0.00  0.00    +0.000 A 
ATOM     23  C   UNL     1       3.421   3.543  19.425  0.00  0.00    +0.000 A 
ATOM     24  C   UNL     1       4.258   4.666  19.374  0.00  0.00    +0.000 A 
ATOM     25  C   UNL     1       3.746   5.919  19.762  0.00  0.00    +0.000 A 
ATOM     26  C   UNL     1       2.436   6.049  20.227  0.00  0.00    +0.000 A 
ATOM     27  C   UNL     1       1.611   4.920  20.245  0.00  0.00    +0.000 A 
BRANCH  22  29
ATOM     28  C   UNL     1       0.571   2.061  18.710  0.00  0.00    +0.000 C 
ATOM     29  C   UNL     1       1.231   2.438  20.030  0.00  0.00    +0.000 C 
ENDBRANCH  22  29
BRANCH  24  30
ATOM     30  C   UNL     1       5.710   4.532  18.953  0.00  0.00    +0.000 C 
BRANCH  30  31
ATOM     31  N   UNL     1       6.048   5.204  17.687  0.00  0.00    +0.000 NA
ATOM     32  C   UNL     1       4.887   5.164  16.769  0.00  0.00    +0.000 C 
ATOM     33  C   UNL     1       5.189   5.794  15.385  0.00  0.00    +0.000 C 
ATOM     34  N   UNL     1       6.389   5.270  14.702  0.00  0.00    +0.000 NA
ATOM     35  C   UNL     1       6.156   3.949  14.124  0.00  0.00    +0.000 C 
ATOM     36  C   UNL     1       7.514   5.252  15.657  0.00  0.00    +0.000 C 
ATOM     37  C   UNL     1       7.206   4.582  17.017  0.00  0.00    +0.000 C 
ENDBRANCH  30  31
ENDBRANCH  24  30
ENDBRANCH   1  26
TORSDOF 6
ENDMDL
MODEL 2
REMARK VINA RESULT:      -9.7      1.386      1.893
REMARK  Name = 
REMARK  9 active torsions:
REMARK  status: ('A' for Active; 'I' for Inactive)
REMARK    1  A    between atoms: C_1  and  C_2
REMARK    2  A    between atoms: C_2  and  C_3
REMARK    3  A    between atoms: C_5  and  C_6
REMARK    4  A    between atoms: C_6  and  N_7
REMARK    5  A    between atoms: N_10  and  C_11
REMARK    6  A    between atoms: C_15  and  N_16
REMARK    7  A    between atoms: C_17  and  C_19
REMARK    8  A    between atoms: N_26  and  C_27
REMARK    9  A    between atoms: C_34  and  C_35
REMARK                            x       y       z     vdW  Elec       q    Type
REMARK                         _______ _______ _______ _____ _____    ______ ____
ROOT
ATOM      1  N   UNL     1       0.652   8.457  20.932  0.00  0.00    +0.000 N 
ATOM      2  C   UNL     1       0.948   9.273  22.006  0.00  0.00    +0.000 C 
ATOM      3  O   UNL     1       1.957   9.258  22.692  0.00  0.00    +0.000 OA
ATOM      4  H   UNL     1      -0.221   8.632  20.452  0.00  0.00    +0.000 HD
ENDROOT
BRANCH   2   5
ATOM      5  C   UNL     1      -0.051  10.360  22.219  0.00  0.00    +0.000 A 
ATOM      6  C   UNL     1      -1.008  10.423  23.250  0.00  0.00    +0.000 A 
ATOM      7  C   UNL     1      -2.050  11.397  23.209  0.00  0.00    +0.000 A 
ATOM      8  C   UNL     1      -2.157  12.245  22.110  0.00  0.00    +0.000 A 
ATOM      9  C   UNL     1      -1.197  12.142  21.090  0.00  0.00    +0.000 A 
ATOM     10  C   UNL     1      -0.101  11.279  21.190  0.00  0.00    +0.000 A 
ATOM     11  C   UNL     1      -1.436  12.839  19.784  0.00  0.00    +0.000 C 
ATOM     12  N   UNL     1      -2.830  12.582  19.356  0.00  0.00    +0.000 N 
ATOM     13  C   UNL     1      -3.881  12.784  20.398  0.00  0.00    +0.000 C 
ATOM     14  C   UNL     1      -3.257  13.250  21.758  0.00  0.00    +0.000 C 
ATOM     15  C   UNL     1      -4.294  13.674  22.796  0.00  0.00    +0.000 C 
BRANCH  12  16
ATOM     16  C   UNL     1      -2.974  11.753  18.246  0.00  0.00    +0.000 A 
ATOM     17  C   UNL     1      -4.106  11.613  17.457  0.00  0.00    +0.000 A 
ATOM     18  N   UNL     1      -4.243  10.735  16.427  0.00  0.00    +0.000 NA
ATOM     19  C   UNL     1      -3.181   9.965  16.162  0.00  0.00    +0.000 A 
ATOM     20  N   UNL     1      -2.006  10.022  16.791  0.00  0.00    +0.000 NA
ATOM     21  C   UNL     1      -1.943  10.925  17.795  0.00  0.00    +0.000 A 
ENDBRANCH  12  16
ENDBRANCH   2   5
BRANCH   1  26
ATOM     22  C   UNL     1       2.256   5.143  20.613  0.00  0.00    +0.000 A 
ATOM     23  C   UNL     1       3.108   5.333  19.519  0.00  0.00    +0.000 A 
ATOM     24  C   UNL     1       3.140   6.561  18.843  0.00  0.00    +0.000 A 
ATOM     25  C   UNL     1       2.296   7.602  19.276  0.00  0.00    +0.000 A 
ATOM     26  C   UNL     1       1.459   7.438  20.381  0.00  0.00    +0.000 A 
ATOM     27  C   UNL     1       1.424   6.196  21.023  0.00  0.00    +0.000 A 
BRANCH  22  29
ATOM     28  C   UNL     1       1.155   2.944  21.021  0.00  0.00    +0.000 C 
ATOM     29  C   UNL     1       2.303   3.866  21.412  0.00  0.00    +0.000 C 
ENDBRANCH  22  29
BRANCH  24  30
ATOM     30  C   UNL     1       4.103   6.787  17.692  0.00  0.00    +0.000 C 
BRANCH  30  31
ATOM     31  N   UNL     1       5.019   5.667  17.426  0.00  0.00    +0.000 NA
ATOM     32  C   UNL     1       6.386   6.179  17.180  0.00  0.00    +0.000 C 
ATOM     33  C   UNL     1       7.396   5.059  16.824  0.00  0.00    +0.000 C 
ATOM     34  N   UNL     1       6.988   4.168  15.719  0.00  0.00    +0.000 NA
ATOM     35  C   UNL     1       7.137   4.810  14.415  0.00  0.00    +0.000 C 
ATOM     36  C   UNL     1       5.597   3.728  15.949  0.00  0.00    +0.000 C 
ATOM     37  C   UNL     1       4.595   4.863  16.262  0.00  0.00    +0.000 C 
ENDBRANCH  30  31
ENDBRANCH  24  30
ENDBRANCH   1  26
TORSDOF 6
ENDMDL
MODEL 3
REMARK VINA RESULT:      -9.3      1.619      2.345
REMARK  Name = 
REMARK  9 active torsions:
REMARK  status: ('A' for Active; 'I' for Inactive)
REMARK    1  A    between atoms: C_1  and  C_2
REMARK    2  A    between atoms: C_2  and  C_3
REMARK    3  A    between atoms: C_5  and  C_6
REMARK    4  A    between atoms: C_6  and  N_7
REMARK    5  A    between atoms: N_10  and  C_11
REMARK    6  A    between atoms: C_15  and  N_16
REMARK    7  A    between atoms: C_17  and  C_19
REMARK    8  A    between atoms: N_26  and  C_27
REMARK    9  A    between atoms: C_34  and  C_35
REMARK                            x       y       z     vdW  Elec       q    Type
REMARK                         _______ _______ _______ _____ _____    ______ ____
ROOT
ATOM      1  N   UNL     1       0.898   8.912  20.882  0.00  0.00    +0.000 N 
ATOM      2  C   UNL     1       0.205   9.933  20.263  0.00  0.00    +0.000 C 
ATOM      3  O   UNL     1       0.019  10.082  19.066  0.00  0.00    +0.000 OA
ATOM      4  H   UNL     1       0.925   8.925  21.893  0.00  0.00    +0.000 HD
ENDROOT
BRANCH   2   5
ATOM      5  C   UNL     1      -0.482  10.850  21.218  0.00  0.00    +0.000 A 
ATOM      6  C   UNL     1      -0.633  10.649  22.603  0.00  0.00    +0.000 A 
ATOM      7  C   UNL     1      -1.506  11.485  23.363  0.00  0.00    +0.000 A 
ATOM      8  C   UNL     1      -2.259  12.461  22.716  0.00  0.00    +0.000 A 
ATOM      9  C   UNL     1      -2.098  12.621  21.330  0.00  0.00    +0.000 A 
ATOM     10  C   UNL     1      -1.149  11.893  20.607  0.00  0.00    +0.000 A 
ATOM     11  C   UNL     1      -3.079  13.463  20.569  0.00  0.00    +0.000 C 
ATOM     12  N   UNL     1      -4.449  13.102  21.000  0.00  0.00    +0.000 N 
ATOM     13  C   UNL     1      -4.672  13.025  22.475  0.00  0.00    +0.000 C 
ATOM     14  C   UNL     1      -3.364  13.366  23.269  0.00  0.00    +0.000 C 
ATOM     15  C   UNL     1      -3.580  13.509  24.775  0.00  0.00    +0.000 C 
BRANCH  12  16
ATOM     16  C   UNL     1      -5.217  12.427  20.054  0.00  0.00    +0.000 A 
ATOM     17  C   UNL     1      -6.586  12.208  20.102  0.00  0.00    +0.000 A 
ATOM     18  N   UNL     1      -7.297  11.475  19.202  0.00  0.00    +0.000 NA
ATOM     19  C   UNL     1      -6.601  10.947  18.189  0.00  0.00    +0.000 A 
ATOM     20  N   UNL     1      -5.295  11.116  17.974  0.00  0.00    +0.000 NA
ATOM     21  C   UNL     1      -4.659  11.864  18.904  0.00  0.00    +0.000 A 
ENDBRANCH  12  16
ENDBRANCH   2   5
BRANCH   1  26
ATOM     22  C   UNL     1       2.082   5.438  20.449  0.00  0.00    +0.000 A 
ATOM     23  C   UNL     1       2.838   5.530  19.274  0.00  0.00    +0.000 A 
ATOM     24  C   UNL     1       2.940   6.745  18.584  0.00  0.00    +0.000 A 
ATOM     25  C   UNL     1       2.265   7.875  19.084  0.00  0.00    +0.000 A 
ATOM     26  C   UNL     1       1.528   7.807  20.268  0.00  0.00    +0.000 A 
ATOM     27  C   UNL     1       1.418   6.578  20.926  0.00  0.00    +0.000 A 
BRANCH  22  29
ATOM     28  C   UNL     1       1.216   3.103  20.566  0.00  0.00    +0.000 C 
ATOM     29  C   UNL     1       2.064   4.164  21.255  0.00  0.00    +0.000 C 
ENDBRANCH  22  29
BRANCH  24  30
ATOM     30  C   UNL     1       3.804   6.860  17.342  0.00  0.00    +0.000 C 
BRANCH  30  31
ATOM     31  N   UNL     1       4.939   5.924  17.292  0.00  0.00    +0.000 NA
ATOM     32  C   UNL     1       6.168   6.642  16.882  0.00  0.00    +0.000 C 
ATOM     33  C   UNL     1       7.395   5.706  16.741  0.00  0.00    +0.000 C 
ATOM     34  N   UNL     1       7.192   4.525  15.878  0.00  0.00    +0.000 NA
ATOM     35  C   UNL     1       7.210   4.873  14.460  0.00  0.00    +0.000 C 
ATOM     36  C   UNL     1       5.926   3.867  16.257  0.00  0.00    +0.000 C 
ATOM     37  C   UNL     1       4.703   4.810  16.353  0.00  0.00    +0.000 C 
ENDBRANCH  30  31
ENDBRANCH  24  30
ENDBRANCH   1  26
TORSDOF 6
ENDMDL
MODEL 4
REMARK VINA RESULT:      -9.1      1.030      1.562
REMARK  Name = 
REMARK  9 active torsions:
REMARK  status: ('A' for Active; 'I' for Inactive)
REMARK    1  A    between atoms: C_1  and  C_2
REMARK    2  A    between atoms: C_2  and  C_3
REMARK    3  A    between atoms: C_5  and  C_6
REMARK    4  A    between atoms: C_6  and  N_7
REMARK    5  A    between atoms: N_10  and  C_11
REMARK    6  A    between atoms: C_15  and  N_16
REMARK    7  A    between atoms: C_17  and  C_19
REMARK    8  A    between atoms: N_26  and  C_27
REMARK    9  A    between atoms: C_34  and  C_35
REMARK                            x       y       z     vdW  Elec       q    Type
REMARK                         _______ _______ _______ _____ _____    ______ ____
ROOT
ATOM      1  N   UNL     1       1.554   7.102  20.690  0.00  0.00    +0.000 N 
ATOM      2  C   UNL     1       1.594   8.347  20.095  0.00  0.00    +0.000 C 
ATOM      3  O   UNL     1       2.039   8.628  18.995  0.00  0.00    +0.000 OA
ATOM      4  H   UNL     1       1.114   7.042  21.599  0.00  0.00    +0.000 HD
ENDROOT
BRANCH   2   5
ATOM      5  C   UNL     1       0.878   9.400  20.872  0.00  0.00    +0.000 A 
ATOM      6  C   UNL     1       0.307   9.249  22.151  0.00  0.00    +0.000 A 
ATOM      7  C   UNL     1      -0.545  10.262  22.685  0.00  0.00    +0.000 A 
ATOM      8  C   UNL     1      -0.863  11.373  21.908  0.00  0.00    +0.000 A 
ATOM      9  C   UNL     1      -0.291  11.482  20.630  0.00  0.00    +0.000 A 
ATOM     10  C   UNL     1       0.645  10.558  20.157  0.00  0.00    +0.000 A 
ATOM     11  C   UNL     1      -0.820  12.510  19.675  0.00  0.00    +0.000 C 
ATOM     12  N   UNL     1      -2.300  12.461  19.693  0.00  0.00    +0.000 N 
ATOM     13  C   UNL     1      -2.936  12.447  21.045  0.00  0.00    +0.000 C 
ATOM     14  C   UNL     1      -1.860  12.502  22.184  0.00  0.00    +0.000 C 
ATOM     15  C   UNL     1      -2.452  12.702  23.578  0.00  0.00    +0.000 C 
BRANCH  12  16
ATOM     16  C   UNL     1      -2.898  11.962  18.540  0.00  0.00    +0.000 A 
ATOM     17  C   UNL     1      -4.254  11.754  18.332  0.00  0.00    +0.000 A 
ATOM     18  N   UNL     1      -4.802  11.189  17.222  0.00  0.00    +0.000 NA
ATOM     19  C   UNL     1      -3.947  10.828  16.259  0.00  0.00    +0.000 A 
ATOM     20  N   UNL     1      -2.626  11.014  16.286  0.00  0.00    +0.000 NA
ATOM     21  C   UNL     1      -2.157  11.590  17.416  0.00  0.00    +0.000 A 
ENDBRANCH  12  16
ENDBRANCH   2   5
BRANCH   1  26
ATOM     22  C   UNL     1       2.507   3.532  20.595  0.00  0.00    +0.000 A 
ATOM     23  C   UNL     1       3.003   3.395  19.294  0.00  0.00    +0.000 A 
ATOM     24  C   UNL     1       2.998   4.481  18.409  0.00  0.00    +0.000 A 
ATOM     25  C   UNL     1       2.479   5.716  18.846  0.00  0.00    +0.000 A 
ATOM     26  C   UNL     1       2.005   5.878  20.149  0.00  0.00    +0.000 A 
ATOM     27  C   UNL     1       1.996   4.773  21.006  0.00  0.00    +0.000 A 
BRANCH  22  29
ATOM     28  C   UNL     1       1.294   2.184  22.305  0.00  0.00    +0.000 C 
ATOM     29  C   UNL     1       2.618   2.400  21.584  0.00  0.00    +0.000 C 
ENDBRANCH  22  29
BRANCH  24  30
ATOM     30  C   UNL     1       3.585   4.351  17.016  0.00  0.00    +0.000 C 
BRANCH  30  31
ATOM     31  N   UNL     1       5.054   4.419  16.959  0.00  0.00    +0.000 NA
ATOM     32  C   UNL     1       5.590   4.873  18.263  0.00  0.00    +0.000 C 
ATOM     33  C   UNL     1       7.131   5.035  18.259  0.00  0.00    +0.000 C 
ATOM     34  N   UNL     1       7.675   5.874  17.172  0.00  0.00    +0.000 NA
ATOM     35  C   UNL     1       7.459   7.297  17.420  0.00  0.00    +0.000 C 
ATOM     36  C   UNL     1       7.073   5.450  15.893  0.00  0.00    +0.000 C 
ATOM     37  C   UNL     1       5.530   5.334  15.903  0.00  0.00    +0.000 C 
ENDBRANCH  30  31
ENDBRANCH  24  30
ENDBRANCH   1  26
TORSDOF 6
ENDMDL
MODEL 5
REMARK VINA RESULT:      -9.1      1.202      1.885
REMARK  Name = 
REMARK  9 active torsions:
REMARK  status: ('A' for Active; 'I' for Inactive)
REMARK    1  A    between atoms: C_1  and  C_2
REMARK    2  A    between atoms: C_2  and  C_3
REMARK    3  A    between atoms: C_5  and  C_6
REMARK    4  A    between atoms: C_6  and  N_7
REMARK    5  A    between atoms: N_10  and  C_11
REMARK    6  A    between atoms: C_15  and  N_16
REMARK    7  A    between atoms: C_17  and  C_19
REMARK    8  A    between atoms: N_26  and  C_27
REMARK    9  A    between atoms: C_34  and  C_35
REMARK                            x       y       z     vdW  Elec       q    Type
REMARK                         _______ _______ _______ _____ _____    ______ ____
ROOT
ATOM      1  N   UNL     1       1.647   7.262  20.613  0.00  0.00    +0.000 N 
ATOM      2  C   UNL     1       1.543   8.492  19.994  0.00  0.00    +0.000 C 
ATOM      3  O   UNL     1       1.846   8.771  18.846  0.00  0.00    +0.000 OA
ATOM      4  H   UNL     1       1.314   7.200  21.567  0.00  0.00    +0.000 HD
ENDROOT
BRANCH   2   5
ATOM      5  C   UNL     1       0.852   9.519  20.826  0.00  0.00    +0.000 A 
ATOM      6  C   UNL     1       0.363   9.341  22.135  0.00  0.00    +0.000 A 
ATOM      7  C   UNL     1      -0.478  10.328  22.732  0.00  0.00    +0.000 A 
ATOM      8  C   UNL     1      -0.867  11.440  21.990  0.00  0.00    +0.000 A 
ATOM      9  C   UNL     1      -0.377  11.576  20.682  0.00  0.00    +0.000 A 
ATOM     10  C   UNL     1       0.550  10.679  20.142  0.00  0.00    +0.000 A 
ATOM     11  C   UNL     1      -0.985  12.603  19.773  0.00  0.00    +0.000 C 
ATOM     12  N   UNL     1      -2.460  12.519  19.880  0.00  0.00    +0.000 N 
ATOM     13  C   UNL     1      -3.012  12.475  21.268  0.00  0.00    +0.000 C 
ATOM     14  C   UNL     1      -1.871  12.542  22.340  0.00  0.00    +0.000 C 
ATOM     15  C   UNL     1      -2.382  12.713  23.770  0.00  0.00    +0.000 C 
BRANCH  12  16
ATOM     16  C   UNL     1      -3.116  12.019  18.758  0.00  0.00    +0.000 A 
ATOM     17  C   UNL     1      -2.526  11.542  17.597  0.00  0.00    +0.000 A 
ATOM     18  N   UNL     1      -3.195  11.133  16.485  0.00  0.00    +0.000 NA
ATOM     19  C   UNL     1      -4.531  11.190  16.545  0.00  0.00    +0.000 A 
ATOM     20  N   UNL     1      -5.243  11.569  17.608  0.00  0.00    +0.000 NA
ATOM     21  C   UNL     1      -4.508  11.950  18.677  0.00  0.00    +0.000 A 
ENDBRANCH  12  16
ENDBRANCH   2   5
BRANCH   1  26
ATOM     22  C   UNL     1       2.662   3.712  20.454  0.00  0.00    +0.000 A 
ATOM     23  C   UNL     1       3.141   3.602  19.143  0.00  0.00    +0.000 A 
ATOM     24  C   UNL     1       3.105   4.701  18.275  0.00  0.00    +0.000 A 
ATOM     25  C   UNL     1       2.570   5.920  18.736  0.00  0.00    +0.000 A 
ATOM     26  C   UNL     1       2.112   6.055  20.048  0.00  0.00    +0.000 A 
ATOM     27  C   UNL     1       2.134   4.937  20.889  0.00  0.00    +0.000 A 
BRANCH  22  29
ATOM     28  C   UNL     1       1.467   2.236  22.069  0.00  0.00    +0.000 C 
ATOM     29  C   UNL     1       2.806   2.568  21.425  0.00  0.00    +0.000 C 
ENDBRANCH  22  29
BRANCH  24  30
ATOM     30  C   UNL     1       3.674   4.601  16.872  0.00  0.00    +0.000 C 
BRANCH  30  31
ATOM     31  N   UNL     1       5.038   5.135  16.722  0.00  0.00    +0.000 NA
ATOM     32  C   UNL     1       6.026   4.138  17.196  0.00  0.00    +0.000 C 
ATOM     33  C   UNL     1       7.485   4.656  17.133  0.00  0.00    +0.000 C 
ATOM     34  N   UNL     1       7.723   5.954  17.796  0.00  0.00    +0.000 NA
ATOM     35  C   UNL     1       7.761   5.827  19.250  0.00  0.00    +0.000 C 
ATOM     36  C   UNL     1       6.685   6.910  17.363  0.00  0.00    +0.000 C 
ATOM     37  C   UNL     1       5.232   6.391  17.473  0.00  0.00    +0.000 C 
ENDBRANCH  30  31
ENDBRANCH  24  30
ENDBRANCH   1  26
TORSDOF 6
ENDMDL
MODEL 6
REMARK VINA RESULT:      -9.0      3.089      9.713
REMARK  Name = 
REMARK  9 active torsions:
REMARK  status: ('A' for Active; 'I' for Inactive)
REMARK    1  A    between atoms: C_1  and  C_2
REMARK    2  A    between atoms: C_2  and  C_3
REMARK    3  A    between atoms: C_5  and  C_6
REMARK    4  A    between atoms: C_6  and  N_7
REMARK    5  A    between atoms: N_10  and  C_11
REMARK    6  A    between atoms: C_15  and  N_16
REMARK    7  A    between atoms: C_17  and  C_19
REMARK    8  A    between atoms: N_26  and  C_27
REMARK    9  A    between atoms: C_34  and  C_35
REMARK                            x       y       z     vdW  Elec       q    Type
REMARK                         _______ _______ _______ _____ _____    ______ ____
ROOT
ATOM      1  N   UNL     1       1.094   8.931  19.442  0.00  0.00    +0.000 N 
ATOM      2  C   UNL     1       1.448   8.087  20.477  0.00  0.00    +0.000 C 
ATOM      3  O   UNL     1       1.395   8.320  21.673  0.00  0.00    +0.000 OA
ATOM      4  H   UNL     1       1.169   8.561  18.504  0.00  0.00    +0.000 HD
ENDROOT
BRANCH   2   5
ATOM      5  C   UNL     1       1.798   6.709  20.026  0.00  0.00    +0.000 A 
ATOM      6  C   UNL     1       1.711   5.533  20.795  0.00  0.00    +0.000 A 
ATOM      7  C   UNL     1       2.290   4.317  20.322  0.00  0.00    +0.000 A 
ATOM      8  C   UNL     1       3.000   4.313  19.125  0.00  0.00    +0.000 A 
ATOM      9  C   UNL     1       3.084   5.509  18.393  0.00  0.00    +0.000 A 
ATOM     10  C   UNL     1       2.408   6.667  18.788  0.00  0.00    +0.000 A 
ATOM     11  C   UNL     1       4.057   5.607  17.255  0.00  0.00    +0.000 C 
ATOM     12  N   UNL     1       5.358   5.052  17.693  0.00  0.00    +0.000 N 
ATOM     13  C   UNL     1       5.305   3.730  18.386  0.00  0.00    +0.000 C 
ATOM     14  C   UNL     1       3.834   3.197  18.489  0.00  0.00    +0.000 C 
ATOM     15  C   UNL     1       3.737   1.759  18.997  0.00  0.00    +0.000 C 
BRANCH  12  16
ATOM     16  C   UNL     1       6.383   5.982  17.854  0.00  0.00    +0.000 A 
ATOM     17  C   UNL     1       7.430   5.912  18.761  0.00  0.00    +0.000 A 
ATOM     18  N   UNL     1       8.372   6.876  18.950  0.00  0.00    +0.000 NA
ATOM     19  C   UNL     1       8.270   7.962  18.175  0.00  0.00    +0.000 A 
ATOM     20  N   UNL     1       7.357   8.149  17.220  0.00  0.00    +0.000 NA
ATOM     21  C   UNL     1       6.462   7.145  17.085  0.00  0.00    +0.000 A 
ENDBRANCH  12  16
ENDBRANCH   2   5
BRANCH   1  26
ATOM     22  C   UNL     1      -1.303  11.716  19.048  0.00  0.00    +0.000 A 
ATOM     23  C   UNL     1      -0.568  12.806  19.527  0.00  0.00    +0.000 A 
ATOM     24  C   UNL     1       0.730  12.629  20.024  0.00  0.00    +0.000 A 
ATOM     25  C   UNL     1       1.285  11.335  20.042  0.00  0.00    +0.000 A 
ATOM     26  C   UNL     1       0.576  10.241  19.543  0.00  0.00    +0.000 A 
ATOM     27  C   UNL     1      -0.727  10.437  19.077  0.00  0.00    +0.000 A 
BRANCH  22  29
ATOM     28  C   UNL     1      -2.819  11.004  17.201  0.00  0.00    +0.000 C 
ATOM     29  C   UNL     1      -2.652  11.920  18.407  0.00  0.00    +0.000 C 
ENDBRANCH  22  29
BRANCH  24  30
ATOM     30  C   UNL     1       1.550  13.817  20.493  0.00  0.00    +0.000 C 
BRANCH  30  31
ATOM     31  N   UNL     1       1.933  14.759  19.429  0.00  0.00    +0.000 NA
ATOM     32  C   UNL     1       3.212  14.336  18.815  0.00  0.00    +0.000 C 
ATOM     33  C   UNL     1       3.716  15.319  17.729  0.00  0.00    +0.000 C 
ATOM     34  N   UNL     1       3.804  16.733  18.149  0.00  0.00    +0.000 NA
ATOM     35  C   UNL     1       4.962  16.978  19.003  0.00  0.00    +0.000 C 
ATOM     36  C   UNL     1       2.545  17.111  18.821  0.00  0.00    +0.000 C 
ATOM     37  C   UNL     1       2.080  16.140  19.931  0.00  0.00    +0.000 C 
ENDBRANCH  30  31
ENDBRANCH  24  30
ENDBRANCH   1  26
TORSDOF 6
ENDMDL
MODEL 7
REMARK VINA RESULT:      -9.0      2.499     10.681
REMARK  Name = 
REMARK  9 active torsions:
REMARK  status: ('A' for Active; 'I' for Inactive)
REMARK    1  A    between atoms: C_1  and  C_2
REMARK    2  A    between atoms: C_2  and  C_3
REMARK    3  A    between atoms: C_5  and  C_6
REMARK    4  A    between atoms: C_6  and  N_7
REMARK    5  A    between atoms: N_10  and  C_11
REMARK    6  A    between atoms: C_15  and  N_16
REMARK    7  A    between atoms: C_17  and  C_19
REMARK    8  A    between atoms: N_26  and  C_27
REMARK    9  A    between atoms: C_34  and  C_35
REMARK                            x       y       z     vdW  Elec       q    Type
REMARK                         _______ _______ _______ _____ _____    ______ ____
ROOT
ATOM      1  N   UNL     1       1.044   9.321  19.310  0.00  0.00    +0.000 N 
ATOM      2  C   UNL     1       1.426   8.540  20.383  0.00  0.00    +0.000 C 
ATOM      3  O   UNL     1       1.459   8.862  21.559  0.00  0.00    +0.000 OA
ATOM      4  H   UNL     1       1.043   8.880  18.400  0.00  0.00    +0.000 HD
ENDROOT
BRANCH   2   5
ATOM      5  C   UNL     1       1.688   7.117  20.018  0.00  0.00    +0.000 A 
ATOM      6  C   UNL     1       1.520   5.998  20.855  0.00  0.00    +0.000 A 
ATOM      7  C   UNL     1       2.021   4.721  20.461  0.00  0.00    +0.000 A 
ATOM      8  C   UNL     1       2.735   4.599  19.272  0.00  0.00    +0.000 A 
ATOM      9  C   UNL     1       2.901   5.740  18.471  0.00  0.00    +0.000 A 
ATOM     10  C   UNL     1       2.300   6.961  18.791  0.00  0.00    +0.000 A 
ATOM     11  C   UNL     1       3.884   5.706  17.339  0.00  0.00    +0.000 C 
ATOM     12  N   UNL     1       5.144   5.096  17.821  0.00  0.00    +0.000 N 
ATOM     13  C   UNL     1       5.000   3.823  18.591  0.00  0.00    +0.000 C 
ATOM     14  C   UNL     1       3.497   3.395  18.712  0.00  0.00    +0.000 C 
ATOM     15  C   UNL     1       3.304   1.999  19.303  0.00  0.00    +0.000 C 
BRANCH  12  16
ATOM     16  C   UNL     1       6.226   5.964  17.936  0.00  0.00    +0.000 A 
ATOM     17  C   UNL     1       7.287   5.854  18.823  0.00  0.00    +0.000 A 
ATOM     18  N   UNL     1       8.290   6.763  18.966  0.00  0.00    +0.000 NA
ATOM     19  C   UNL     1       8.237   7.833  18.164  0.00  0.00    +0.000 A 
ATOM     20  N   UNL     1       7.316   8.051  17.224  0.00  0.00    +0.000 NA
ATOM     21  C   UNL     1       6.359   7.101  17.135  0.00  0.00    +0.000 A 
ENDBRANCH  12  16
ENDBRANCH   2   5
BRANCH   1  26
ATOM     22  C   UNL     1       1.163  12.997  18.948  0.00  0.00    +0.000 A 
ATOM     23  C   UNL     1      -0.080  13.384  19.464  0.00  0.00    +0.000 A 
ATOM     24  C   UNL     1      -0.997  12.424  19.912  0.00  0.00    +0.000 A 
ATOM     25  C   UNL     1      -0.655  11.060  19.829  0.00  0.00    +0.000 A 
ATOM     26  C   UNL     1       0.590  10.658  19.342  0.00  0.00    +0.000 A 
ATOM     27  C   UNL     1       1.479  11.632  18.876  0.00  0.00    +0.000 A 
BRANCH  22  29
ATOM     28  C   UNL     1       1.622  15.435  18.701  0.00  0.00    +0.000 C 
ATOM     29  C   UNL     1       2.196  14.030  18.574  0.00  0.00    +0.000 C 
ENDBRANCH  22  29
BRANCH  24  30
ATOM     30  C   UNL     1      -2.321  12.842  20.523  0.00  0.00    +0.000 C 
BRANCH  30  31
ATOM     31  N   UNL     1      -2.319  12.936  21.992  0.00  0.00    +0.000 NA
ATOM     32  C   UNL     1      -3.693  12.744  22.512  0.00  0.00    +0.000 C 
ATOM     33  C   UNL     1      -3.782  12.897  24.052  0.00  0.00    +0.000 C 
ATOM     34  N   UNL     1      -3.208  14.143  24.597  0.00  0.00    +0.000 NA
ATOM     35  C   UNL     1      -4.077  15.294  24.365  0.00  0.00    +0.000 C 
ATOM     36  C   UNL     1      -1.869  14.350  24.010  0.00  0.00    +0.000 C 
ATOM     37  C   UNL     1      -1.807  14.235  22.469  0.00  0.00    +0.000 C 
ENDBRANCH  30  31
ENDBRANCH  24  30
ENDBRANCH   1  26
TORSDOF 6
ENDMDL
MODEL 8
REMARK VINA RESULT:      -8.9      1.072      1.607
REMARK  Name = 
REMARK  9 active torsions:
REMARK  status: ('A' for Active; 'I' for Inactive)
REMARK    1  A    between atoms: C_1  and  C_2
REMARK    2  A    between atoms: C_2  and  C_3
REMARK    3  A    between atoms: C_5  and  C_6
REMARK    4  A    between atoms: C_6  and  N_7
REMARK    5  A    between atoms: N_10  and  C_11
REMARK    6  A    between atoms: C_15  and  N_16
REMARK    7  A    between atoms: C_17  and  C_19
REMARK    8  A    between atoms: N_26  and  C_27
REMARK    9  A    between atoms: C_34  and  C_35
REMARK                            x       y       z     vdW  Elec       q    Type
REMARK                         _______ _______ _______ _____ _____    ______ ____
ROOT
ATOM      1  N   UNL     1       1.305   7.855  21.057  0.00  0.00    +0.000 N 
ATOM      2  C   UNL     1       1.032   9.059  20.438  0.00  0.00    +0.000 C 
ATOM      3  O   UNL     1       1.261   9.364  19.280  0.00  0.00    +0.000 OA
ATOM      4  H   UNL     1       1.014   7.760  22.022  0.00  0.00    +0.000 HD
ENDROOT
BRANCH   2   5
ATOM      5  C   UNL     1       0.251  10.001  21.291  0.00  0.00    +0.000 A 
ATOM      6  C   UNL     1      -0.247   9.740  22.582  0.00  0.00    +0.000 A 
ATOM      7  C   UNL     1      -1.170  10.640  23.195  0.00  0.00    +0.000 A 
ATOM      8  C   UNL     1      -1.628  11.746  22.484  0.00  0.00    +0.000 A 
ATOM      9  C   UNL     1      -1.125  11.965  21.191  0.00  0.00    +0.000 A 
ATOM     10  C   UNL     1      -0.125  11.159  20.640  0.00  0.00    +0.000 A 
ATOM     11  C   UNL     1      -1.793  12.976  20.306  0.00  0.00    +0.000 C 
ATOM     12  N   UNL     1      -3.258  12.778  20.379  0.00  0.00    +0.000 N 
ATOM     13  C   UNL     1      -3.832  12.644  21.752  0.00  0.00    +0.000 C 
ATOM     14  C   UNL     1      -2.718  12.757  22.850  0.00  0.00    +0.000 C 
ATOM     15  C   UNL     1      -3.267  12.838  24.274  0.00  0.00    +0.000 C 
BRANCH  12  16
ATOM     16  C   UNL     1      -3.854  12.271  19.227  0.00  0.00    +0.000 A 
ATOM     17  C   UNL     1      -3.210  11.662  18.160  0.00  0.00    +0.000 A 
ATOM     18  N   UNL     1      -3.811  11.248  17.012  0.00  0.00    +0.000 NA
ATOM     19  C   UNL     1      -5.133  11.440  16.934  0.00  0.00    +0.000 A 
ATOM     20  N   UNL     1      -5.899  11.957  17.896  0.00  0.00    +0.000 NA
ATOM     21  C   UNL     1      -5.232  12.336  19.010  0.00  0.00    +0.000 A 
ENDBRANCH  12  16
ENDBRANCH   2   5
BRANCH   1  26
ATOM     22  C   UNL     1       1.788   4.281  20.249  0.00  0.00    +0.000 A 
ATOM     23  C   UNL     1       2.992   4.302  19.535  0.00  0.00    +0.000 A 
ATOM     24  C   UNL     1       3.649   5.512  19.278  0.00  0.00    +0.000 A 
ATOM     25  C   UNL     1       3.078   6.713  19.743  0.00  0.00    +0.000 A 
ATOM     26  C   UNL     1       1.893   6.708  20.480  0.00  0.00    +0.000 A 
ATOM     27  C   UNL     1       1.240   5.491  20.702  0.00  0.00    +0.000 A 
BRANCH  22  29
ATOM     28  C   UNL     1       1.803   2.381  21.863  0.00  0.00    +0.000 C 
ATOM     29  C   UNL     1       1.140   2.974  20.627  0.00  0.00    +0.000 C 
ENDBRANCH  22  29
BRANCH  24  30
ATOM     30  C   UNL     1       4.982   5.532  18.552  0.00  0.00    +0.000 C 
BRANCH  30  31
ATOM     31  N   UNL     1       4.916   5.143  17.134  0.00  0.00    +0.000 NA
ATOM     32  C   UNL     1       5.825   4.001  16.882  0.00  0.00    +0.000 C 
ATOM     33  C   UNL     1       5.862   3.576  15.392  0.00  0.00    +0.000 C 
ATOM     34  N   UNL     1       6.143   4.664  14.432  0.00  0.00    +0.000 NA
ATOM     35  C   UNL     1       7.553   5.041  14.429  0.00  0.00    +0.000 C 
ATOM     36  C   UNL     1       5.276   5.816  14.749  0.00  0.00    +0.000 C 
ATOM     37  C   UNL     1       5.284   6.252  16.233  0.00  0.00    +0.000 C 
ENDBRANCH  30  31
ENDBRANCH  24  30
ENDBRANCH   1  26
TORSDOF 6
ENDMDL
MODEL 9
REMARK VINA RESULT:      -8.9      2.027     10.360
REMARK  Name = 
REMARK  9 active torsions:
REMARK  status: ('A' for Active; 'I' for Inactive)
REMARK    1  A    between atoms: C_1  and  C_2
REMARK    2  A    between atoms: C_2  and  C_3
REMARK    3  A    between atoms: C_5  and  C_6
REMARK    4  A    between atoms: C_6  and  N_7
REMARK    5  A    between atoms: N_10  and  C_11
REMARK    6  A    between atoms: C_15  and  N_16
REMARK    7  A    between atoms: C_17  and  C_19
REMARK    8  A    between atoms: N_26  and  C_27
REMARK    9  A    between atoms: C_34  and  C_35
REMARK                            x       y       z     vdW  Elec       q    Type
REMARK                         _______ _______ _______ _____ _____    ______ ____
ROOT
ATOM      1  N   UNL     1       0.988   9.118  19.273  0.00  0.00    +0.000 N 
ATOM      2  C   UNL     1       1.431   8.381  20.354  0.00  0.00    +0.000 C 
ATOM      3  O   UNL     1       1.459   8.726  21.524  0.00  0.00    +0.000 OA
ATOM      4  H   UNL     1       1.003   8.662  18.371  0.00  0.00    +0.000 HD
ENDROOT
BRANCH   2   5
ATOM      5  C   UNL     1       1.775   6.971  20.010  0.00  0.00    +0.000 A 
ATOM      6  C   UNL     1       1.675   5.857  20.865  0.00  0.00    +0.000 A 
ATOM      7  C   UNL     1       2.249   4.605  20.489  0.00  0.00    +0.000 A 
ATOM      8  C   UNL     1       2.967   4.507  19.300  0.00  0.00    +0.000 A 
ATOM      9  C   UNL     1       3.063   5.644  18.481  0.00  0.00    +0.000 A 
ATOM     10  C   UNL     1       2.392   6.832  18.783  0.00  0.00    +0.000 A 
ATOM     11  C   UNL     1       4.044   5.650  17.346  0.00  0.00    +0.000 C 
ATOM     12  N   UNL     1       5.339   5.122  17.833  0.00  0.00    +0.000 N 
ATOM     13  C   UNL     1       5.272   3.856  18.623  0.00  0.00    +0.000 C 
ATOM     14  C   UNL     1       3.797   3.341  18.756  0.00  0.00    +0.000 C 
ATOM     15  C   UNL     1       3.687   1.946  19.369  0.00  0.00    +0.000 C 
BRANCH  12  16
ATOM     16  C   UNL     1       6.369   6.054  17.931  0.00  0.00    +0.000 A 
ATOM     17  C   UNL     1       7.453   6.005  18.795  0.00  0.00    +0.000 A 
ATOM     18  N   UNL     1       8.401   6.972  18.923  0.00  0.00    +0.000 NA
ATOM     19  C   UNL     1       8.266   8.041  18.130  0.00  0.00    +0.000 A 
ATOM     20  N   UNL     1       7.314   8.207  17.210  0.00  0.00    +0.000 NA
ATOM     21  C   UNL     1       6.415   7.201  17.135  0.00  0.00    +0.000 A 
ENDBRANCH  12  16
ENDBRANCH   2   5
BRANCH   1  26
ATOM     22  C   UNL     1       0.880  12.789  18.856  0.00  0.00    +0.000 A 
ATOM     23  C   UNL     1      -0.381  13.106  19.374  0.00  0.00    +0.000 A 
ATOM     24  C   UNL     1      -1.236  12.099  19.842  0.00  0.00    +0.000 A 
ATOM     25  C   UNL     1      -0.811  10.758  19.777  0.00  0.00    +0.000 A 
ATOM     26  C   UNL     1       0.454  10.425  19.288  0.00  0.00    +0.000 A 
ATOM     27  C   UNL     1       1.279  11.444  18.802  0.00  0.00    +0.000 A 
BRANCH  22  29
ATOM     28  C   UNL     1       2.256  14.699  19.674  0.00  0.00    +0.000 C 
ATOM     29  C   UNL     1       1.845  13.877  18.460  0.00  0.00    +0.000 C 
ENDBRANCH  22  29
BRANCH  24  30
ATOM     30  C   UNL     1      -2.580  12.445  20.455  0.00  0.00    +0.000 C 
BRANCH  30  31
ATOM     31  N   UNL     1      -3.662  12.663  19.482  0.00  0.00    +0.000 NA
ATOM     32  C   UNL     1      -4.962  12.761  20.186  0.00  0.00    +0.000 C 
ATOM     33  C   UNL     1      -6.162  12.924  19.219  0.00  0.00    +0.000 C 
ATOM     34  N   UNL     1      -6.247  11.915  18.144  0.00  0.00    +0.000 NA
ATOM     35  C   UNL     1      -6.733  10.629  18.637  0.00  0.00    +0.000 C 
ATOM     36  C   UNL     1      -4.923  11.783  17.504  0.00  0.00    +0.000 C 
ATOM     37  C   UNL     1      -3.743  11.579  18.483  0.00  0.00    +0.000 C 
ENDBRANCH  30  31
ENDBRANCH  24  30
ENDBRANCH   1  26
TORSDOF 6
ENDMDL
