MODEL 1
REMARK VINA RESULT:      -7.4      0.000      0.000
REMARK  Name = 
REMARK  9 active torsions:
REMARK  status: ('A' for Active; 'I' for Inactive)
REMARK    1  A    between atoms: C_1  and  C_2
REMARK    2  A    between atoms: C_2  and  N_3
REMARK    3  A    between atoms: N_3  and  C_12
REMARK    4  A    between atoms: C_4  and  C_6
REMARK    5  A    between atoms: C_21  and  C_23
REMARK    6  A    between atoms: C_26  and  C_27
REMARK    7  A    between atoms: N_31  and  C_32
REMARK    8  A    between atoms: C_32  and  C_33
REMARK    9  A    between atoms: C_33  and  C_34
REMARK                            x       y       z     vdW  Elec       q    Type
REMARK                         _______ _______ _______ _____ _____    ______ ____
ROOT
ATOM      1  C   UNL     1       1.238   9.537  19.148  0.00  0.00    +0.000 A 
ATOM      2  C   UNL     1       0.985   8.634  20.191  0.00  0.00    +0.000 A 
ATOM      3  C   UNL     1       1.680   7.398  20.309  0.00  0.00    +0.000 A 
ATOM      4  C   UNL     1       2.616   7.087  19.305  0.00  0.00    +0.000 A 
ATOM      5  C   UNL     1       2.905   8.019  18.320  0.00  0.00    +0.000 A 
ATOM      6  C   UNL     1       2.230   9.235  18.225  0.00  0.00    +0.000 A 
ATOM      7  N   UNL     1       3.849   7.566  17.480  0.00  0.00    +0.000 NA
ATOM      8  C   UNL     1       4.013   6.295  17.732  0.00  0.00    +0.000 A 
ATOM      9  N   UNL     1       4.660   5.461  16.842  0.00  0.00    +0.000 N 
ATOM     10  C   UNL     1       5.118   5.998  15.636  0.00  0.00    +0.000 C 
ATOM     11  O   UNL     1       5.089   7.177  15.286  0.00  0.00    +0.000 OA
ATOM     12  N   UNL     1       3.375   5.961  18.928  0.00  0.00    +0.000 N 
ATOM     13  H   UNL     1       4.686   4.471  16.995  0.00  0.00    +0.000 HD
ENDROOT
BRANCH  10  14
ATOM     14  C   UNL     1       5.683   5.060  14.626  0.00  0.00    +0.000 A 
ATOM     15  C   UNL     1       4.784   4.189  13.979  0.00  0.00    +0.000 A 
ATOM     16  C   UNL     1       5.219   3.328  12.969  0.00  0.00    +0.000 A 
ATOM     17  C   UNL     1       6.567   3.327  12.597  0.00  0.00    +0.000 A 
ATOM     18  C   UNL     1       7.466   4.184  13.244  0.00  0.00    +0.000 A 
ATOM     19  C   UNL     1       7.028   5.052  14.254  0.00  0.00    +0.000 A 
BRANCH  17  20
ATOM     20  C   UNL     1       7.020   2.458  11.555  0.00  0.00    +0.000 C 
ATOM     21  N   UNL     1       7.400   1.744  10.708  0.00  0.00    +0.000 NA
ENDBRANCH  17  20
ENDBRANCH  10  14
BRANCH   1  22
ATOM     22  N   UNL     1       0.492  10.757  19.010  0.00  0.00    +0.000 N 
ATOM     23  C   UNL     1       0.617  11.707  20.055  0.00  0.00    +0.000 C 
ATOM     24  O   UNL     1       1.242  11.484  21.096  0.00  0.00    +0.000 OA
BRANCH  23  25
ATOM     25  C   UNL     1       0.026  13.077  19.926  0.00  0.00    +0.000 A 
ATOM     26  C   UNL     1      -1.217  13.377  20.509  0.00  0.00    +0.000 A 
ATOM     27  C   UNL     1      -1.692  14.697  20.526  0.00  0.00    +0.000 A 
ATOM     28  C   UNL     1      -0.946  15.721  19.941  0.00  0.00    +0.000 A 
ATOM     29  C   UNL     1       0.280  15.431  19.358  0.00  0.00    +0.000 A 
ATOM     30  C   UNL     1       0.770  14.127  19.392  0.00  0.00    +0.000 A 
ENDBRANCH  23  25
BRANCH  22  32
ATOM     31  C   UNL     1      -1.920  10.156  18.691  0.00  0.00    +0.000 C 
ATOM     32  C   UNL     1      -0.643  10.703  18.051  0.00  0.00    +0.000 C 
ENDBRANCH  22  32
ENDBRANCH   1  22
BRANCH  12  33
ATOM     33  C   UNL     1       3.223   4.658  19.551  0.00  0.00    +0.000 C 
BRANCH  33  34
ATOM     34  C   UNL     1       2.084   3.722  19.150  0.00  0.00    +0.000 C 
BRANCH  34  35
ATOM     35  C   UNL     1       2.339   2.830  17.964  0.00  0.00    +0.000 C 
ATOM     36  N   UNL     1       2.620   1.527  18.229  0.00  0.00    +0.000 N 
ATOM     37  O   UNL     1       2.216   3.235  16.813  0.00  0.00    +0.000 OA
ATOM     38  H   UNL     1       2.714   1.131  19.152  0.00  0.00    +0.000 HD
ATOM     39  H   UNL     1       2.752   0.909  17.435  0.00  0.00    +0.000 HD
ENDBRANCH  34  35
ENDBRANCH  33  34
ENDBRANCH  12  33
TORSDOF 8
ENDMDL
MODEL 2
REMARK VINA RESULT:      -7.1      1.097      1.398
REMARK  Name = 
REMARK  9 active torsions:
REMARK  status: ('A' for Active; 'I' for Inactive)
REMARK    1  A    between atoms: C_1  and  C_2
REMARK    2  A    between atoms: C_2  and  N_3
REMARK    3  A    between atoms: N_3  and  C_12
REMARK    4  A    between atoms: C_4  and  C_6
REMARK    5  A    between atoms: C_21  and  C_23
REMARK    6  A    between atoms: C_26  and  C_27
REMARK    7  A    between atoms: N_31  and  C_32
REMARK    8  A    between atoms: C_32  and  C_33
REMARK    9  A    between atoms: C_33  and  C_34
REMARK                            x       y       z     vdW  Elec       q    Type
REMARK                         _______ _______ _______ _____ _____    ______ ____
ROOT
ATOM      1  C   UNL     1       1.492   9.009  19.561  0.00  0.00    +0.000 A 
ATOM      2  C   UNL     1       1.204   7.991  20.482  0.00  0.00    +0.000 A 
ATOM      3  C   UNL     1       1.827   6.713  20.419  0.00  0.00    +0.000 A 
ATOM      4  C   UNL     1       2.727   6.487  19.360  0.00  0.00    +0.000 A 
ATOM      5  C   UNL     1       3.053   7.524  18.500  0.00  0.00    +0.000 A 
ATOM      6  C   UNL     1       2.449   8.778  18.582  0.00  0.00    +0.000 A 
ATOM      7  N   UNL     1       3.955   7.134  17.585  0.00  0.00    +0.000 NA
ATOM      8  C   UNL     1       4.048   5.834  17.663  0.00  0.00    +0.000 A 
ATOM      9  N   UNL     1       4.630   5.091  16.655  0.00  0.00    +0.000 N 
ATOM     10  C   UNL     1       5.098   5.757  15.520  0.00  0.00    +0.000 C 
ATOM     11  O   UNL     1       5.133   6.972  15.329  0.00  0.00    +0.000 OA
ATOM     12  N   UNL     1       3.412   5.380  18.820  0.00  0.00    +0.000 N 
ATOM     13  H   UNL     1       4.600   4.090  16.676  0.00  0.00    +0.000 HD
ENDROOT
BRANCH  10  14
ATOM     14  C   UNL     1       5.590   4.932  14.382  0.00  0.00    +0.000 A 
ATOM     15  C   UNL     1       6.959   5.026  14.060  0.00  0.00    +0.000 A 
ATOM     16  C   UNL     1       7.517   4.234  13.053  0.00  0.00    +0.000 A 
ATOM     17  C   UNL     1       6.704   3.337  12.352  0.00  0.00    +0.000 A 
ATOM     18  C   UNL     1       5.341   3.247  12.662  0.00  0.00    +0.000 A 
ATOM     19  C   UNL     1       4.783   4.038  13.676  0.00  0.00    +0.000 A 
BRANCH  17  20
ATOM     20  C   UNL     1       7.268   2.513  11.328  0.00  0.00    +0.000 C 
ATOM     21  N   UNL     1       7.721   1.840  10.484  0.00  0.00    +0.000 NA
ENDBRANCH  17  20
ENDBRANCH  10  14
BRANCH   1  22
ATOM     22  N   UNL     1       0.817  10.277  19.604  0.00  0.00    +0.000 N 
ATOM     23  C   UNL     1       0.762  10.933  20.859  0.00  0.00    +0.000 C 
ATOM     24  O   UNL     1       1.170  10.420  21.905  0.00  0.00    +0.000 OA
BRANCH  23  25
ATOM     25  C   UNL     1       0.241  12.332  20.975  0.00  0.00    +0.000 A 
ATOM     26  C   UNL     1      -0.897  12.609  21.751  0.00  0.00    +0.000 A 
ATOM     27  C   UNL     1      -1.287  13.935  21.989  0.00  0.00    +0.000 A 
ATOM     28  C   UNL     1      -0.563  14.992  21.436  0.00  0.00    +0.000 A 
ATOM     29  C   UNL     1       0.560  14.726  20.664  0.00  0.00    +0.000 A 
ATOM     30  C   UNL     1       0.972  13.408  20.476  0.00  0.00    +0.000 A 
ENDBRANCH  23  25
BRANCH  22  32
ATOM     31  C   UNL     1      -1.567  10.222  18.832  0.00  0.00    +0.000 C 
ATOM     32  C   UNL     1      -0.114  10.538  18.474  0.00  0.00    +0.000 C 
ENDBRANCH  22  32
ENDBRANCH   1  22
BRANCH  12  33
ATOM     33  C   UNL     1       3.193   4.017  19.269  0.00  0.00    +0.000 C 
BRANCH  33  34
ATOM     34  C   UNL     1       2.307   3.058  18.475  0.00  0.00    +0.000 C 
BRANCH  34  35
ATOM     35  C   UNL     1       0.966   2.735  19.077  0.00  0.00    +0.000 C 
ATOM     36  N   UNL     1       0.658   3.351  20.249  0.00  0.00    +0.000 N 
ATOM     37  O   UNL     1       0.155   2.017  18.502  0.00  0.00    +0.000 OA
ATOM     38  H   UNL     1       1.274   3.966  20.758  0.00  0.00    +0.000 HD
ATOM     39  H   UNL     1      -0.261   3.173  20.641  0.00  0.00    +0.000 HD
ENDBRANCH  34  35
ENDBRANCH  33  34
ENDBRANCH  12  33
TORSDOF 8
ENDMDL
MODEL 3
REMARK VINA RESULT:      -7.1      0.640      1.066
REMARK  Name = 
REMARK  9 active torsions:
REMARK  status: ('A' for Active; 'I' for Inactive)
REMARK    1  A    between atoms: C_1  and  C_2
REMARK    2  A    between atoms: C_2  and  N_3
REMARK    3  A    between atoms: N_3  and  C_12
REMARK    4  A    between atoms: C_4  and  C_6
REMARK    5  A    between atoms: C_21  and  C_23
REMARK    6  A    between atoms: C_26  and  C_27
REMARK    7  A    between atoms: N_31  and  C_32
REMARK    8  A    between atoms: C_32  and  C_33
REMARK    9  A    between atoms: C_33  and  C_34
REMARK                            x       y       z     vdW  Elec       q    Type
REMARK                         _______ _______ _______ _____ _____    ______ ____
ROOT
ATOM      1  C   UNL     1       1.317   9.073  19.442  0.00  0.00    +0.000 A 
ATOM      2  C   UNL     1       1.143   8.120  20.455  0.00  0.00    +0.000 A 
ATOM      3  C   UNL     1       1.893   6.911  20.497  0.00  0.00    +0.000 A 
ATOM      4  C   UNL     1       2.802   6.681  19.447  0.00  0.00    +0.000 A 
ATOM      5  C   UNL     1       3.013   7.662  18.491  0.00  0.00    +0.000 A 
ATOM      6  C   UNL     1       2.285   8.851  18.470  0.00  0.00    +0.000 A 
ATOM      7  N   UNL     1       3.941   7.284  17.598  0.00  0.00    +0.000 NA
ATOM      8  C   UNL     1       4.168   6.013  17.791  0.00  0.00    +0.000 A 
ATOM      9  N   UNL     1       4.814   5.243  16.844  0.00  0.00    +0.000 N 
ATOM     10  C   UNL     1       5.202   5.846  15.646  0.00  0.00    +0.000 C 
ATOM     11  O   UNL     1       5.111   7.035  15.345  0.00  0.00    +0.000 OA
ATOM     12  N   UNL     1       3.592   5.605  18.996  0.00  0.00    +0.000 N 
ATOM     13  H   UNL     1       4.887   4.250  16.956  0.00  0.00    +0.000 HD
ENDROOT
BRANCH  10  14
ATOM     14  C   UNL     1       5.765   4.974  14.578  0.00  0.00    +0.000 A 
ATOM     15  C   UNL     1       4.895   4.042  13.978  0.00  0.00    +0.000 A 
ATOM     16  C   UNL     1       5.323   3.236  12.920  0.00  0.00    +0.000 A 
ATOM     17  C   UNL     1       6.636   3.352  12.453  0.00  0.00    +0.000 A 
ATOM     18  C   UNL     1       7.508   4.269  13.052  0.00  0.00    +0.000 A 
ATOM     19  C   UNL     1       7.076   5.083  14.110  0.00  0.00    +0.000 A 
BRANCH  17  20
ATOM     20  C   UNL     1       7.081   2.539  11.363  0.00  0.00    +0.000 C 
ATOM     21  N   UNL     1       7.438   1.879  10.465  0.00  0.00    +0.000 NA
ENDBRANCH  17  20
ENDBRANCH  10  14
BRANCH   1  22
ATOM     22  N   UNL     1       0.517  10.265  19.382  0.00  0.00    +0.000 N 
ATOM     23  C   UNL     1       0.352  10.989  20.590  0.00  0.00    +0.000 C 
ATOM     24  O   UNL     1       0.773  10.586  21.678  0.00  0.00    +0.000 OA
BRANCH  23  25
ATOM     25  C   UNL     1      -0.311  12.331  20.599  0.00  0.00    +0.000 A 
ATOM     26  C   UNL     1       0.249  13.411  19.895  0.00  0.00    +0.000 A 
ATOM     27  C   UNL     1      -0.454  14.618  19.771  0.00  0.00    +0.000 A 
ATOM     28  C   UNL     1      -1.707  14.767  20.367  0.00  0.00    +0.000 A 
ATOM     29  C   UNL     1      -2.265  13.706  21.067  0.00  0.00    +0.000 A 
ATOM     30  C   UNL     1      -1.584  12.493  21.142  0.00  0.00    +0.000 A 
ENDBRANCH  23  25
BRANCH  22  32
ATOM     31  C   UNL     1      -1.826   9.941  18.553  0.00  0.00    +0.000 C 
ATOM     32  C   UNL     1      -0.395  10.358  18.211  0.00  0.00    +0.000 C 
ENDBRANCH  22  32
ENDBRANCH   1  22
BRANCH  12  33
ATOM     33  C   UNL     1       3.518   4.273  19.570  0.00  0.00    +0.000 C 
BRANCH  33  34
ATOM     34  C   UNL     1       3.621   3.028  18.689  0.00  0.00    +0.000 C 
BRANCH  34  35
ATOM     35  C   UNL     1       2.397   2.675  17.886  0.00  0.00    +0.000 C 
ATOM     36  N   UNL     1       1.553   1.759  18.430  0.00  0.00    +0.000 N 
ATOM     37  O   UNL     1       2.129   3.244  16.834  0.00  0.00    +0.000 OA
ATOM     38  H   UNL     1       1.710   1.273  19.300  0.00  0.00    +0.000 HD
ATOM     39  H   UNL     1       0.705   1.546  17.916  0.00  0.00    +0.000 HD
ENDBRANCH  34  35
ENDBRANCH  33  34
ENDBRANCH  12  33
TORSDOF 8
ENDMDL
MODEL 4
REMARK VINA RESULT:      -7.0      1.069      1.396
REMARK  Name = 
REMARK  9 active torsions:
REMARK  status: ('A' for Active; 'I' for Inactive)
REMARK    1  A    between atoms: C_1  and  C_2
REMARK    2  A    between atoms: C_2  and  N_3
REMARK    3  A    between atoms: N_3  and  C_12
REMARK    4  A    between atoms: C_4  and  C_6
REMARK    5  A    between atoms: C_21  and  C_23
REMARK    6  A    between atoms: C_26  and  C_27
REMARK    7  A    between atoms: N_31  and  C_32
REMARK    8  A    between atoms: C_32  and  C_33
REMARK    9  A    between atoms: C_33  and  C_34
REMARK                            x       y       z     vdW  Elec       q    Type
REMARK                         _______ _______ _______ _____ _____    ______ ____
ROOT
ATOM      1  C   UNL     1       1.308   9.316  19.274  0.00  0.00    +0.000 A 
ATOM      2  C   UNL     1       1.031   8.360  20.262  0.00  0.00    +0.000 A 
ATOM      3  C   UNL     1       1.709   7.111  20.320  0.00  0.00    +0.000 A 
ATOM      4  C   UNL     1       2.654   6.843  19.311  0.00  0.00    +0.000 A 
ATOM      5  C   UNL     1       2.967   7.824  18.383  0.00  0.00    +0.000 A 
ATOM      6  C   UNL     1       2.309   9.053  18.347  0.00  0.00    +0.000 A 
ATOM      7  N   UNL     1       3.915   7.406  17.531  0.00  0.00    +0.000 NA
ATOM      8  C   UNL     1       4.060   6.121  17.713  0.00  0.00    +0.000 A 
ATOM      9  N   UNL     1       4.708   5.329  16.786  0.00  0.00    +0.000 N 
ATOM     10  C   UNL     1       5.188   5.926  15.618  0.00  0.00    +0.000 C 
ATOM     11  O   UNL     1       5.179   7.123  15.333  0.00  0.00    +0.000 OA
ATOM     12  N   UNL     1       3.403   5.730  18.881  0.00  0.00    +0.000 N 
ATOM     13  H   UNL     1       4.719   4.332  16.884  0.00  0.00    +0.000 HD
ENDROOT
BRANCH  10  14
ATOM     14  C   UNL     1       5.754   5.038  14.564  0.00  0.00    +0.000 A 
ATOM     15  C   UNL     1       4.877   4.121  13.952  0.00  0.00    +0.000 A 
ATOM     16  C   UNL     1       5.308   3.301  12.906  0.00  0.00    +0.000 A 
ATOM     17  C   UNL     1       6.631   3.390  12.463  0.00  0.00    +0.000 A 
ATOM     18  C   UNL     1       7.510   4.293  13.074  0.00  0.00    +0.000 A 
ATOM     19  C   UNL     1       7.075   5.119  14.120  0.00  0.00    +0.000 A 
BRANCH  17  20
ATOM     20  C   UNL     1       7.080   2.563  11.385  0.00  0.00    +0.000 C 
ATOM     21  N   UNL     1       7.444   1.878  10.508  0.00  0.00    +0.000 NA
ENDBRANCH  17  20
ENDBRANCH  10  14
BRANCH   1  22
ATOM     22  N   UNL     1       0.580  10.552  19.195  0.00  0.00    +0.000 N 
ATOM     23  C   UNL     1       0.612  11.390  20.338  0.00  0.00    +0.000 C 
ATOM     24  O   UNL     1       1.141  11.056  21.402  0.00  0.00    +0.000 OA
BRANCH  23  25
ATOM     25  C   UNL     1       0.037  12.772  20.297  0.00  0.00    +0.000 A 
ATOM     26  C   UNL     1       0.638  13.773  19.516  0.00  0.00    +0.000 A 
ATOM     27  C   UNL     1       0.010  15.016  19.351  0.00  0.00    +0.000 A 
ATOM     28  C   UNL     1      -1.207  15.279  19.980  0.00  0.00    +0.000 A 
ATOM     29  C   UNL     1      -1.805  14.296  20.757  0.00  0.00    +0.000 A 
ATOM     30  C   UNL     1      -1.201  13.046  20.874  0.00  0.00    +0.000 A 
ENDBRANCH  23  25
BRANCH  22  32
ATOM     31  C   UNL     1      -1.826  10.123  18.640  0.00  0.00    +0.000 C 
ATOM     32  C   UNL     1      -0.464  10.607  18.139  0.00  0.00    +0.000 C 
ENDBRANCH  22  32
ENDBRANCH   1  22
BRANCH  12  33
ATOM     33  C   UNL     1       3.226   4.397  19.429  0.00  0.00    +0.000 C 
BRANCH  33  34
ATOM     34  C   UNL     1       2.684   4.190  20.842  0.00  0.00    +0.000 C 
BRANCH  34  35
ATOM     35  C   UNL     1       1.542   3.219  20.983  0.00  0.00    +0.000 C 
ATOM     36  N   UNL     1       1.482   2.511  22.142  0.00  0.00    +0.000 N 
ATOM     37  O   UNL     1       0.662   3.129  20.135  0.00  0.00    +0.000 OA
ATOM     38  H   UNL     1       2.164   2.557  22.884  0.00  0.00    +0.000 HD
ATOM     39  H   UNL     1       0.693   1.885  22.265  0.00  0.00    +0.000 HD
ENDBRANCH  34  35
ENDBRANCH  33  34
ENDBRANCH  12  33
TORSDOF 8
ENDMDL
MODEL 5
REMARK VINA RESULT:      -6.9      1.009      1.317
REMARK  Name = 
REMARK  9 active torsions:
REMARK  status: ('A' for Active; 'I' for Inactive)
REMARK    1  A    between atoms: C_1  and  C_2
REMARK    2  A    between atoms: C_2  and  N_3
REMARK    3  A    between atoms: N_3  and  C_12
REMARK    4  A    between atoms: C_4  and  C_6
REMARK    5  A    between atoms: C_21  and  C_23
REMARK    6  A    between atoms: C_26  and  C_27
REMARK    7  A    between atoms: N_31  and  C_32
REMARK    8  A    between atoms: C_32  and  C_33
REMARK    9  A    between atoms: C_33  and  C_34
REMARK                            x       y       z     vdW  Elec       q    Type
REMARK                         _______ _______ _______ _____ _____    ______ ____
ROOT
ATOM      1  C   UNL     1       1.175   9.674  19.249  0.00  0.00    +0.000 A 
ATOM      2  C   UNL     1       0.816   8.748  20.239  0.00  0.00    +0.000 A 
ATOM      3  C   UNL     1       1.434   7.470  20.342  0.00  0.00    +0.000 A 
ATOM      4  C   UNL     1       2.406   7.145  19.376  0.00  0.00    +0.000 A 
ATOM      5  C   UNL     1       2.800   8.097  18.448  0.00  0.00    +0.000 A 
ATOM      6  C   UNL     1       2.199   9.352  18.368  0.00  0.00    +0.000 A 
ATOM      7  N   UNL     1       3.762   7.623  17.641  0.00  0.00    +0.000 NA
ATOM      8  C   UNL     1       3.842   6.337  17.847  0.00  0.00    +0.000 A 
ATOM      9  N   UNL     1       4.490   5.502  16.958  0.00  0.00    +0.000 N 
ATOM     10  C   UNL     1       5.042   6.058  15.802  0.00  0.00    +0.000 C 
ATOM     11  O   UNL     1       5.098   7.250  15.501  0.00  0.00    +0.000 OA
ATOM     12  N   UNL     1       3.121   5.994  18.993  0.00  0.00    +0.000 N 
ATOM     13  H   UNL     1       4.453   4.507  17.071  0.00  0.00    +0.000 HD
ENDROOT
BRANCH  10  14
ATOM     14  C   UNL     1       5.610   5.130  14.785  0.00  0.00    +0.000 A 
ATOM     15  C   UNL     1       4.717   4.245  14.148  0.00  0.00    +0.000 A 
ATOM     16  C   UNL     1       5.153   3.392  13.132  0.00  0.00    +0.000 A 
ATOM     17  C   UNL     1       6.496   3.411  12.744  0.00  0.00    +0.000 A 
ATOM     18  C   UNL     1       7.390   4.281  13.381  0.00  0.00    +0.000 A 
ATOM     19  C   UNL     1       6.951   5.142  14.397  0.00  0.00    +0.000 A 
BRANCH  17  20
ATOM     20  C   UNL     1       6.950   2.549  11.697  0.00  0.00    +0.000 C 
ATOM     21  N   UNL     1       7.323   1.852  10.834  0.00  0.00    +0.000 NA
ENDBRANCH  17  20
ENDBRANCH  10  14
BRANCH   1  22
ATOM     22  N   UNL     1       0.507  10.940  19.124  0.00  0.00    +0.000 N 
ATOM     23  C   UNL     1       0.641  11.847  20.205  0.00  0.00    +0.000 C 
ATOM     24  O   UNL     1       1.208  11.555  21.262  0.00  0.00    +0.000 OA
BRANCH  23  25
ATOM     25  C   UNL     1       0.135  13.252  20.099  0.00  0.00    +0.000 A 
ATOM     26  C   UNL     1       0.735  14.164  19.214  0.00  0.00    +0.000 A 
ATOM     27  C   UNL     1       0.162  15.425  18.998  0.00  0.00    +0.000 A 
ATOM     28  C   UNL     1      -0.999  15.796  19.679  0.00  0.00    +0.000 A 
ATOM     29  C   UNL     1      -1.595  14.903  20.558  0.00  0.00    +0.000 A 
ATOM     30  C   UNL     1      -1.049  13.632  20.728  0.00  0.00    +0.000 A 
ENDBRANCH  23  25
BRANCH  22  32
ATOM     31  C   UNL     1      -1.908  10.445  18.673  0.00  0.00    +0.000 C 
ATOM     32  C   UNL     1      -0.587  10.982  18.119  0.00  0.00    +0.000 C 
ENDBRANCH  22  32
ENDBRANCH   1  22
BRANCH  12  33
ATOM     33  C   UNL     1       2.863   4.678  19.551  0.00  0.00    +0.000 C 
BRANCH  33  34
ATOM     34  C   UNL     1       3.467   3.423  18.923  0.00  0.00    +0.000 C 
BRANCH  34  35
ATOM     35  C   UNL     1       4.841   3.033  19.397  0.00  0.00    +0.000 C 
ATOM     36  N   UNL     1       4.986   1.772  19.882  0.00  0.00    +0.000 N 
ATOM     37  O   UNL     1       5.803   3.784  19.275  0.00  0.00    +0.000 OA
ATOM     38  H   UNL     1       4.238   1.104  19.988  0.00  0.00    +0.000 HD
ATOM     39  H   UNL     1       5.918   1.486  20.165  0.00  0.00    +0.000 HD
ENDBRANCH  34  35
ENDBRANCH  33  34
ENDBRANCH  12  33
TORSDOF 8
ENDMDL
MODEL 6
REMARK VINA RESULT:      -6.9      3.714     11.951
REMARK  Name = 
REMARK  9 active torsions:
REMARK  status: ('A' for Active; 'I' for Inactive)
REMARK    1  A    between atoms: C_1  and  C_2
REMARK    2  A    between atoms: C_2  and  N_3
REMARK    3  A    between atoms: N_3  and  C_12
REMARK    4  A    between atoms: C_4  and  C_6
REMARK    5  A    between atoms: C_21  and  C_23
REMARK    6  A    between atoms: C_26  and  C_27
REMARK    7  A    between atoms: N_31  and  C_32
REMARK    8  A    between atoms: C_32  and  C_33
REMARK    9  A    between atoms: C_33  and  C_34
REMARK                            x       y       z     vdW  Elec       q    Type
REMARK                         _______ _______ _______ _____ _____    ______ ____
ROOT
ATOM      1  C   UNL     1       2.009   7.506  19.586  0.00  0.00    +0.000 A 
ATOM      2  C   UNL     1       2.361   8.256  18.454  0.00  0.00    +0.000 A 
ATOM      3  C   UNL     1       1.980   9.618  18.298  0.00  0.00    +0.000 A 
ATOM      4  C   UNL     1       1.189  10.186  19.315  0.00  0.00    +0.000 A 
ATOM      5  C   UNL     1       0.908   9.455  20.459  0.00  0.00    +0.000 A 
ATOM      6  C   UNL     1       1.302   8.127  20.609  0.00  0.00    +0.000 A 
ATOM      7  N   UNL     1       0.183  10.173  21.331  0.00  0.00    +0.000 NA
ATOM      8  C   UNL     1      -0.220  11.247  20.709  0.00  0.00    +0.000 A 
ATOM      9  N   UNL     1      -1.245  12.027  21.205  0.00  0.00    +0.000 N 
ATOM     10  C   UNL     1      -1.875  11.628  22.386  0.00  0.00    +0.000 C 
ATOM     11  O   UNL     1      -1.571  10.681  23.111  0.00  0.00    +0.000 OA
ATOM     12  N   UNL     1       0.466  11.381  19.500  0.00  0.00    +0.000 N 
ATOM     13  H   UNL     1      -1.618  12.786  20.667  0.00  0.00    +0.000 HD
ENDROOT
BRANCH  10  14
ATOM     14  C   UNL     1      -3.071  12.396  22.832  0.00  0.00    +0.000 A 
ATOM     15  C   UNL     1      -3.761  13.142  21.855  0.00  0.00    +0.000 A 
ATOM     16  C   UNL     1      -4.933  13.833  22.173  0.00  0.00    +0.000 A 
ATOM     17  C   UNL     1      -5.426  13.788  23.481  0.00  0.00    +0.000 A 
ATOM     18  C   UNL     1      -4.739  13.056  24.458  0.00  0.00    +0.000 A 
ATOM     19  C   UNL     1      -3.566  12.358  24.137  0.00  0.00    +0.000 A 
BRANCH  17  20
ATOM     20  C   UNL     1      -6.631  14.482  23.814  0.00  0.00    +0.000 C 
ATOM     21  N   UNL     1      -7.614  15.052  24.096  0.00  0.00    +0.000 NA
ENDBRANCH  17  20
ENDBRANCH  10  14
BRANCH   1  22
ATOM     22  N   UNL     1       2.355   6.118  19.709  0.00  0.00    +0.000 N 
ATOM     23  C   UNL     1       2.849   5.474  18.546  0.00  0.00    +0.000 C 
ATOM     24  O   UNL     1       2.893   6.022  17.441  0.00  0.00    +0.000 OA
BRANCH  23  25
ATOM     25  C   UNL     1       3.402   4.084  18.612  0.00  0.00    +0.000 A 
ATOM     26  C   UNL     1       4.279   3.711  19.644  0.00  0.00    +0.000 A 
ATOM     27  C   UNL     1       4.667   2.372  19.796  0.00  0.00    +0.000 A 
ATOM     28  C   UNL     1       4.204   1.400  18.908  0.00  0.00    +0.000 A 
ATOM     29  C   UNL     1       3.342   1.762  17.882  0.00  0.00    +0.000 A 
ATOM     30  C   UNL     1       2.919   3.085  17.769  0.00  0.00    +0.000 A 
ENDBRANCH  23  25
BRANCH  22  32
ATOM     31  C   UNL     1       0.777   4.313  20.440  0.00  0.00    +0.000 C 
ATOM     32  C   UNL     1       1.749   5.413  20.869  0.00  0.00    +0.000 C 
ENDBRANCH  22  32
ENDBRANCH   1  22
BRANCH  12  33
ATOM     33  C   UNL     1       0.286  12.369  18.451  0.00  0.00    +0.000 C 
BRANCH  33  34
ATOM     34  C   UNL     1       0.784  13.803  18.625  0.00  0.00    +0.000 C 
BRANCH  34  35
ATOM     35  C   UNL     1      -0.219  14.799  19.144  0.00  0.00    +0.000 C 
ATOM     36  N   UNL     1      -0.494  15.863  18.344  0.00  0.00    +0.000 N 
ATOM     37  O   UNL     1      -0.820  14.621  20.198  0.00  0.00    +0.000 OA
ATOM     38  H   UNL     1      -0.048  16.052  17.460  0.00  0.00    +0.000 HD
ATOM     39  H   UNL     1      -1.200  16.517  18.666  0.00  0.00    +0.000 HD
ENDBRANCH  34  35
ENDBRANCH  33  34
ENDBRANCH  12  33
TORSDOF 8
ENDMDL
MODEL 7
REMARK VINA RESULT:      -6.9      1.571      2.058
REMARK  Name = 
REMARK  9 active torsions:
REMARK  status: ('A' for Active; 'I' for Inactive)
REMARK    1  A    between atoms: C_1  and  C_2
REMARK    2  A    between atoms: C_2  and  N_3
REMARK    3  A    between atoms: N_3  and  C_12
REMARK    4  A    between atoms: C_4  and  C_6
REMARK    5  A    between atoms: C_21  and  C_23
REMARK    6  A    between atoms: C_26  and  C_27
REMARK    7  A    between atoms: N_31  and  C_32
REMARK    8  A    between atoms: C_32  and  C_33
REMARK    9  A    between atoms: C_33  and  C_34
REMARK                            x       y       z     vdW  Elec       q    Type
REMARK                         _______ _______ _______ _____ _____    ______ ____
ROOT
ATOM      1  C   UNL     1       1.475   8.712  19.874  0.00  0.00    +0.000 A 
ATOM      2  C   UNL     1       1.118   7.643  20.710  0.00  0.00    +0.000 A 
ATOM      3  C   UNL     1       1.688   6.347  20.569  0.00  0.00    +0.000 A 
ATOM      4  C   UNL     1       2.608   6.158  19.521  0.00  0.00    +0.000 A 
ATOM      5  C   UNL     1       3.003   7.239  18.747  0.00  0.00    +0.000 A 
ATOM      6  C   UNL     1       2.450   8.509  18.906  0.00  0.00    +0.000 A 
ATOM      7  N   UNL     1       3.913   6.877  17.830  0.00  0.00    +0.000 NA
ATOM      8  C   UNL     1       3.949   5.573  17.815  0.00  0.00    +0.000 A 
ATOM      9  N   UNL     1       4.528   4.879  16.770  0.00  0.00    +0.000 N 
ATOM     10  C   UNL     1       5.057   5.604  15.700  0.00  0.00    +0.000 C 
ATOM     11  O   UNL     1       5.149   6.827  15.600  0.00  0.00    +0.000 OA
ATOM     12  N   UNL     1       3.261   5.065  18.918  0.00  0.00    +0.000 N 
ATOM     13  H   UNL     1       4.455   3.881  16.717  0.00  0.00    +0.000 HD
ENDROOT
BRANCH  10  14
ATOM     14  C   UNL     1       5.547   4.842  14.517  0.00  0.00    +0.000 A 
ATOM     15  C   UNL     1       6.920   4.931  14.214  0.00  0.00    +0.000 A 
ATOM     16  C   UNL     1       7.475   4.193  13.166  0.00  0.00    +0.000 A 
ATOM     17  C   UNL     1       6.654   3.357  12.403  0.00  0.00    +0.000 A 
ATOM     18  C   UNL     1       5.286   3.272  12.693  0.00  0.00    +0.000 A 
ATOM     19  C   UNL     1       4.731   4.009  13.749  0.00  0.00    +0.000 A 
BRANCH  17  20
ATOM     20  C   UNL     1       7.214   2.588  11.335  0.00  0.00    +0.000 C 
ATOM     21  N   UNL     1       7.678   1.967  10.457  0.00  0.00    +0.000 NA
ENDBRANCH  17  20
ENDBRANCH  10  14
BRANCH   1  22
ATOM     22  N   UNL     1       0.854  10.002  19.992  0.00  0.00    +0.000 N 
ATOM     23  C   UNL     1       0.666  10.506  21.304  0.00  0.00    +0.000 C 
ATOM     24  O   UNL     1       0.914   9.850  22.319  0.00  0.00    +0.000 OA
BRANCH  23  25
ATOM     25  C   UNL     1       0.193  11.909  21.529  0.00  0.00    +0.000 A 
ATOM     26  C   UNL     1       0.744  12.975  20.799  0.00  0.00    +0.000 A 
ATOM     27  C   UNL     1       0.190  14.260  20.893  0.00  0.00    +0.000 A 
ATOM     28  C   UNL     1      -0.899  14.497  21.732  0.00  0.00    +0.000 A 
ATOM     29  C   UNL     1      -1.446  13.450  22.460  0.00  0.00    +0.000 A 
ATOM     30  C   UNL     1      -0.924  12.165  22.322  0.00  0.00    +0.000 A 
ENDBRANCH  23  25
BRANCH  22  32
ATOM     31  C   UNL     1      -1.396  10.084  18.890  0.00  0.00    +0.000 C 
ATOM     32  C   UNL     1       0.088  10.448  18.799  0.00  0.00    +0.000 C 
ENDBRANCH  22  32
ENDBRANCH   1  22
BRANCH  12  33
ATOM     33  C   UNL     1       2.972   3.683  19.260  0.00  0.00    +0.000 C 
BRANCH  33  34
ATOM     34  C   UNL     1       2.929   3.223  20.716  0.00  0.00    +0.000 C 
BRANCH  34  35
ATOM     35  C   UNL     1       1.568   2.907  21.277  0.00  0.00    +0.000 C 
ATOM     36  N   UNL     1       0.506   3.118  20.457  0.00  0.00    +0.000 N 
ATOM     37  O   UNL     1       1.428   2.405  22.387  0.00  0.00    +0.000 OA
ATOM     38  H   UNL     1       0.560   3.509  19.528  0.00  0.00    +0.000 HD
ATOM     39  H   UNL     1      -0.412   2.868  20.810  0.00  0.00    +0.000 HD
ENDBRANCH  34  35
ENDBRANCH  33  34
ENDBRANCH  12  33
TORSDOF 8
ENDMDL
MODEL 8
REMARK VINA RESULT:      -6.9      3.771     11.648
REMARK  Name = 
REMARK  9 active torsions:
REMARK  status: ('A' for Active; 'I' for Inactive)
REMARK    1  A    between atoms: C_1  and  C_2
REMARK    2  A    between atoms: C_2  and  N_3
REMARK    3  A    between atoms: N_3  and  C_12
REMARK    4  A    between atoms: C_4  and  C_6
REMARK    5  A    between atoms: C_21  and  C_23
REMARK    6  A    between atoms: C_26  and  C_27
REMARK    7  A    between atoms: N_31  and  C_32
REMARK    8  A    between atoms: C_32  and  C_33
REMARK    9  A    between atoms: C_33  and  C_34
REMARK                            x       y       z     vdW  Elec       q    Type
REMARK                         _______ _______ _______ _____ _____    ______ ____
ROOT
ATOM      1  C   UNL     1       2.157   7.265  19.414  0.00  0.00    +0.000 A 
ATOM      2  C   UNL     1       2.308   7.867  18.156  0.00  0.00    +0.000 A 
ATOM      3  C   UNL     1       1.997   9.237  17.929  0.00  0.00    +0.000 A 
ATOM      4  C   UNL     1       1.484   9.970  19.016  0.00  0.00    +0.000 A 
ATOM      5  C   UNL     1       1.406   9.381  20.268  0.00  0.00    +0.000 A 
ATOM      6  C   UNL     1       1.731   8.042  20.483  0.00  0.00    +0.000 A 
ATOM      7  N   UNL     1       0.936  10.242  21.185  0.00  0.00    +0.000 NA
ATOM      8  C   UNL     1       0.483  11.283  20.541  0.00  0.00    +0.000 A 
ATOM      9  N   UNL     1      -0.356  12.197  21.147  0.00  0.00    +0.000 N 
ATOM     10  C   UNL     1      -0.743  11.973  22.470  0.00  0.00    +0.000 C 
ATOM     11  O   UNL     1      -0.356  11.076  23.219  0.00  0.00    +0.000 OA
ATOM     12  N   UNL     1       0.901  11.238  19.210  0.00  0.00    +0.000 N 
ATOM     13  H   UNL     1      -0.783  12.931  20.615  0.00  0.00    +0.000 HD
ENDROOT
BRANCH  10  14
ATOM     14  C   UNL     1      -1.760  12.885  23.063  0.00  0.00    +0.000 A 
ATOM     15  C   UNL     1      -1.379  14.225  23.279  0.00  0.00    +0.000 A 
ATOM     16  C   UNL     1      -2.293  15.163  23.765  0.00  0.00    +0.000 A 
ATOM     17  C   UNL     1      -3.604  14.766  24.045  0.00  0.00    +0.000 A 
ATOM     18  C   UNL     1      -3.986  13.434  23.841  0.00  0.00    +0.000 A 
ATOM     19  C   UNL     1      -3.069  12.494  23.348  0.00  0.00    +0.000 A 
BRANCH  17  20
ATOM     20  C   UNL     1      -4.551  15.722  24.531  0.00  0.00    +0.000 C 
ATOM     21  N   UNL     1      -5.320  16.512  24.925  0.00  0.00    +0.000 NA
ENDBRANCH  17  20
ENDBRANCH  10  14
BRANCH   1  22
ATOM     22  N   UNL     1       2.426   5.869  19.618  0.00  0.00    +0.000 N 
ATOM     23  C   UNL     1       3.058   5.174  18.556  0.00  0.00    +0.000 C 
ATOM     24  O   UNL     1       3.283   5.687  17.457  0.00  0.00    +0.000 OA
BRANCH  23  25
ATOM     25  C   UNL     1       3.539   3.768  18.734  0.00  0.00    +0.000 A 
ATOM     26  C   UNL     1       4.292   3.407  19.865  0.00  0.00    +0.000 A 
ATOM     27  C   UNL     1       4.603   2.062  20.110  0.00  0.00    +0.000 A 
ATOM     28  C   UNL     1       4.187   1.070  19.221  0.00  0.00    +0.000 A 
ATOM     29  C   UNL     1       3.447   1.419  18.100  0.00  0.00    +0.000 A 
ATOM     30  C   UNL     1       3.097   2.751  17.890  0.00  0.00    +0.000 A 
ENDBRANCH  23  25
BRANCH  22  32
ATOM     31  C   UNL     1       0.725   4.109  20.160  0.00  0.00    +0.000 C 
ATOM     32  C   UNL     1       1.630   5.221  20.694  0.00  0.00    +0.000 C 
ENDBRANCH  22  32
ENDBRANCH   1  22
BRANCH  12  33
ATOM     33  C   UNL     1       0.567  12.133  18.116  0.00  0.00    +0.000 C 
BRANCH  33  34
ATOM     34  C   UNL     1      -0.859  12.644  17.922  0.00  0.00    +0.000 C 
BRANCH  34  35
ATOM     35  C   UNL     1      -1.927  11.597  17.751  0.00  0.00    +0.000 C 
ATOM     36  N   UNL     1      -3.207  11.984  17.994  0.00  0.00    +0.000 N 
ATOM     37  O   UNL     1      -1.668  10.474  17.331  0.00  0.00    +0.000 OA
ATOM     38  H   UNL     1      -3.483  12.897  18.321  0.00  0.00    +0.000 HD
ATOM     39  H   UNL     1      -3.938  11.297  17.840  0.00  0.00    +0.000 HD
ENDBRANCH  34  35
ENDBRANCH  33  34
ENDBRANCH  12  33
TORSDOF 8
ENDMDL
MODEL 9
REMARK VINA RESULT:      -6.8      3.797     11.707
REMARK  Name = 
REMARK  9 active torsions:
REMARK  status: ('A' for Active; 'I' for Inactive)
REMARK    1  A    between atoms: C_1  and  C_2
REMARK    2  A    between atoms: C_2  and  N_3
REMARK    3  A    between atoms: N_3  and  C_12
REMARK    4  A    between atoms: C_4  and  C_6
REMARK    5  A    between atoms: C_21  and  C_23
REMARK    6  A    between atoms: C_26  and  C_27
REMARK    7  A    between atoms: N_31  and  C_32
REMARK    8  A    between atoms: C_32  and  C_33
REMARK    9  A    between atoms: C_33  and  C_34
REMARK                            x       y       z     vdW  Elec       q    Type
REMARK                         _______ _______ _______ _____ _____    ______ ____
ROOT
ATOM      1  C   UNL     1       2.010   7.220  19.638  0.00  0.00    +0.000 A 
ATOM      2  C   UNL     1       2.380   7.906  18.472  0.00  0.00    +0.000 A 
ATOM      3  C   UNL     1       2.092   9.287  18.281  0.00  0.00    +0.000 A 
ATOM      4  C   UNL     1       1.374   9.942  19.299  0.00  0.00    +0.000 A 
ATOM      5  C   UNL     1       1.076   9.270  20.475  0.00  0.00    +0.000 A 
ATOM      6  C   UNL     1       1.380   7.922  20.658  0.00  0.00    +0.000 A 
ATOM      7  N   UNL     1       0.431  10.065  21.342  0.00  0.00    +0.000 NA
ATOM      8  C   UNL     1       0.086  11.145  20.695  0.00  0.00    +0.000 A 
ATOM      9  N   UNL     1      -0.866  12.012  21.194  0.00  0.00    +0.000 N 
ATOM     10  C   UNL     1      -1.486  11.697  22.405  0.00  0.00    +0.000 C 
ATOM     11  O   UNL     1      -1.229  10.754  23.152  0.00  0.00    +0.000 OA
ATOM     12  N   UNL     1       0.744  11.191  19.464  0.00  0.00    +0.000 N 
ATOM     13  H   UNL     1      -1.199  12.778  20.640  0.00  0.00    +0.000 HD
ENDROOT
BRANCH  10  14
ATOM     14  C   UNL     1      -2.611  12.562  22.857  0.00  0.00    +0.000 A 
ATOM     15  C   UNL     1      -2.852  13.744  22.127  0.00  0.00    +0.000 A 
ATOM     16  C   UNL     1      -3.929  14.575  22.440  0.00  0.00    +0.000 A 
ATOM     17  C   UNL     1      -4.780  14.233  23.496  0.00  0.00    +0.000 A 
ATOM     18  C   UNL     1      -4.540  13.065  24.231  0.00  0.00    +0.000 A 
ATOM     19  C   UNL     1      -3.461  12.227  23.912  0.00  0.00    +0.000 A 
BRANCH  17  20
ATOM     20  C   UNL     1      -5.893  15.072  23.817  0.00  0.00    +0.000 C 
ATOM     21  N   UNL     1      -6.808  15.751  24.086  0.00  0.00    +0.000 NA
ENDBRANCH  17  20
ENDBRANCH  10  14
BRANCH   1  22
ATOM     22  N   UNL     1       2.260   5.815  19.797  0.00  0.00    +0.000 N 
ATOM     23  C   UNL     1       2.817   5.131  18.687  0.00  0.00    +0.000 C 
ATOM     24  O   UNL     1       2.990   5.665  17.588  0.00  0.00    +0.000 OA
BRANCH  23  25
ATOM     25  C   UNL     1       3.277   3.712  18.808  0.00  0.00    +0.000 A 
ATOM     26  C   UNL     1       2.957   2.769  17.816  0.00  0.00    +0.000 A 
ATOM     27  C   UNL     1       3.522   1.486  17.849  0.00  0.00    +0.000 A 
ATOM     28  C   UNL     1       4.390   1.125  18.879  0.00  0.00    +0.000 A 
ATOM     29  C   UNL     1       4.708   2.050  19.865  0.00  0.00    +0.000 A 
ATOM     30  C   UNL     1       4.184   3.339  19.798  0.00  0.00    +0.000 A 
ENDBRANCH  23  25
BRANCH  22  32
ATOM     31  C   UNL     1       0.658   3.988  20.414  0.00  0.00    +0.000 C 
ATOM     32  C   UNL     1       1.513   5.159  20.903  0.00  0.00    +0.000 C 
ENDBRANCH  22  32
ENDBRANCH   1  22
BRANCH  12  33
ATOM     33  C   UNL     1       0.602  12.156  18.388  0.00  0.00    +0.000 C 
BRANCH  33  34
ATOM     34  C   UNL     1      -0.722  12.877  18.144  0.00  0.00    +0.000 C 
BRANCH  34  35
ATOM     35  C   UNL     1      -1.905  12.007  17.811  0.00  0.00    +0.000 C 
ATOM     36  N   UNL     1      -1.973  11.530  16.540  0.00  0.00    +0.000 N 
ATOM     37  O   UNL     1      -2.722  11.674  18.662  0.00  0.00    +0.000 OA
ATOM     38  H   UNL     1      -1.322  11.752  15.803  0.00  0.00    +0.000 HD
ATOM     39  H   UNL     1      -2.744  10.908  16.318  0.00  0.00    +0.000 HD
ENDBRANCH  34  35
ENDBRANCH  33  34
ENDBRANCH  12  33
TORSDOF 8
ENDMDL
