MODEL 1
REMARK VINA RESULT:      -7.2      0.000      0.000
REMARK  Name = 
REMARK  7 active torsions:
REMARK  status: ('A' for Active; 'I' for Inactive)
REMARK    1  A    between atoms: C_1  and  C_2
REMARK    2  A    between atoms: C_2  and  O_3
REMARK    3  A    between atoms: O_3  and  C_4
REMARK    4  A    between atoms: C_4  and  C_6
REMARK    5  A    between atoms: C_8  and  C_9
REMARK    6  A    between atoms: C_12  and  N_13
REMARK    7  A    between atoms: C_19  and  C_20
REMARK                            x       y       z     vdW  Elec       q    Type
REMARK                         _______ _______ _______ _____ _____    ______ ____
ROOT
ATOM      1  C   UNL     1       6.116   4.270  15.582  0.00  0.00    +0.000 A 
ATOM      2  C   UNL     1       4.699   4.031  15.578  0.00  0.00    +0.000 A 
ATOM      3  C   UNL     1       4.287   4.092  16.889  0.00  0.00    +0.000 A 
ATOM      4  O   UNL     1       5.386   4.215  17.697  0.00  0.00    +0.000 OA
ATOM      5  C   UNL     1       6.480   4.352  16.912  0.00  0.00    +0.000 A 
ATOM      6  C   UNL     1       7.748   4.641  17.621  0.00  0.00    +0.000 C 
ENDROOT
BRANCH   3   7
ATOM      7  C   UNL     1       3.023   4.153  17.646  0.00  0.00    +0.000 C 
ATOM      8  O   UNL     1       2.240   2.990  17.257  0.00  0.00    +0.000 OA
ATOM      9  C   UNL     1       1.296   2.756  18.316  0.00  0.00    +0.000 C 
ATOM     10  C   UNL     1       1.422   3.960  19.239  0.00  0.00    +0.000 C 
ATOM     11  C   UNL     1       2.945   4.147  19.170  0.00  0.00    +0.000 C 
ATOM     12 CL   UNL     1       3.516   5.630  19.938  0.00  0.00    +0.000 Cl
BRANCH  10  13
ATOM     13  N   UNL     1       0.713   3.725  20.501  0.00  0.00    +0.000 NA
ATOM     14  N   UNL     1       1.243   3.060  21.384  0.00  0.00    +0.000 NA
ATOM     15  N   UNL     1       1.712   2.425  22.201  0.00  0.00    +0.000 NA
ENDBRANCH  10  13
ENDBRANCH   3   7
BRANCH   1  16
ATOM     16  C   UNL     1       7.004   4.521  14.465  0.00  0.00    +0.000 C 
ATOM     17  O   UNL     1       7.628   5.560  14.304  0.00  0.00    +0.000 OA
BRANCH  16  18
ATOM     18  O   UNL     1       6.937   3.506  13.557  0.00  0.00    +0.000 OA
BRANCH  18  20
ATOM     19  C   UNL     1       5.205   3.200  11.947  0.00  0.00    +0.000 C 
ATOM     20  C   UNL     1       6.520   3.899  12.247  0.00  0.00    +0.000 C 
ENDBRANCH  18  20
ENDBRANCH  16  18
ENDBRANCH   1  16
TORSDOF 5
ENDMDL
MODEL 2
REMARK VINA RESULT:      -6.8      4.503      7.144
REMARK  Name = 
REMARK  7 active torsions:
REMARK  status: ('A' for Active; 'I' for Inactive)
REMARK    1  A    between atoms: C_1  and  C_2
REMARK    2  A    between atoms: C_2  and  O_3
REMARK    3  A    between atoms: O_3  and  C_4
REMARK    4  A    between atoms: C_4  and  C_6
REMARK    5  A    between atoms: C_8  and  C_9
REMARK    6  A    between atoms: C_12  and  N_13
REMARK    7  A    between atoms: C_19  and  C_20
REMARK                            x       y       z     vdW  Elec       q    Type
REMARK                         _______ _______ _______ _____ _____    ______ ____
ROOT
ATOM      1  C   UNL     1       3.054   3.421  19.899  0.00  0.00    +0.000 A 
ATOM      2  C   UNL     1       4.388   3.778  19.499  0.00  0.00    +0.000 A 
ATOM      3  C   UNL     1       4.493   3.469  18.163  0.00  0.00    +0.000 A 
ATOM      4  O   UNL     1       3.354   2.822  17.763  0.00  0.00    +0.000 OA
ATOM      5  C   UNL     1       2.479   2.820  18.796  0.00  0.00    +0.000 A 
ATOM      6  C   UNL     1       1.132   2.283  18.498  0.00  0.00    +0.000 C 
ENDROOT
BRANCH   3   7
ATOM      7  C   UNL     1       5.422   3.714  17.044  0.00  0.00    +0.000 C 
ATOM      8  O   UNL     1       4.608   3.989  15.870  0.00  0.00    +0.000 OA
ATOM      9  C   UNL     1       5.441   4.715  14.951  0.00  0.00    +0.000 C 
ATOM     10  C   UNL     1       6.839   4.666  15.553  0.00  0.00    +0.000 C 
ATOM     11  C   UNL     1       6.460   4.832  17.033  0.00  0.00    +0.000 C 
ATOM     12 CL   UNL     1       7.810   4.590  18.145  0.00  0.00    +0.000 Cl
BRANCH  10  13
ATOM     13  N   UNL     1       7.738   5.596  14.860  0.00  0.00    +0.000 NA
ATOM     14  N   UNL     1       7.846   5.545  13.641  0.00  0.00    +0.000 NA
ATOM     15  N   UNL     1       7.974   5.492  12.513  0.00  0.00    +0.000 NA
ENDBRANCH  10  13
ENDBRANCH   3   7
BRANCH   1  16
ATOM     16  C   UNL     1       2.357   3.725  21.132  0.00  0.00    +0.000 C 
ATOM     17  O   UNL     1       2.428   3.047  22.147  0.00  0.00    +0.000 OA
BRANCH  16  18
ATOM     18  O   UNL     1       1.510   4.780  20.960  0.00  0.00    +0.000 OA
BRANCH  18  20
ATOM     19  C   UNL     1       2.065   6.667  19.612  0.00  0.00    +0.000 C 
ATOM     20  C   UNL     1       2.135   6.066  21.005  0.00  0.00    +0.000 C 
ENDBRANCH  18  20
ENDBRANCH  16  18
ENDBRANCH   1  16
TORSDOF 5
ENDMDL
MODEL 3
REMARK VINA RESULT:      -6.7      4.613      7.296
REMARK  Name = 
REMARK  7 active torsions:
REMARK  status: ('A' for Active; 'I' for Inactive)
REMARK    1  A    between atoms: C_1  and  C_2
REMARK    2  A    between atoms: C_2  and  O_3
REMARK    3  A    between atoms: O_3  and  C_4
REMARK    4  A    between atoms: C_4  and  C_6
REMARK    5  A    between atoms: C_8  and  C_9
REMARK    6  A    between atoms: C_12  and  N_13
REMARK    7  A    between atoms: C_19  and  C_20
REMARK                            x       y       z     vdW  Elec       q    Type
REMARK                         _______ _______ _______ _____ _____    ______ ____
ROOT
ATOM      1  C   UNL     1       2.353   3.475  18.490  0.00  0.00    +0.000 A 
ATOM      2  C   UNL     1       2.820   4.718  17.942  0.00  0.00    +0.000 A 
ATOM      3  C   UNL     1       4.076   4.477  17.437  0.00  0.00    +0.000 A 
ATOM      4  O   UNL     1       4.453   3.202  17.767  0.00  0.00    +0.000 OA
ATOM      5  C   UNL     1       3.408   2.591  18.372  0.00  0.00    +0.000 A 
ATOM      6  C   UNL     1       3.589   1.153  18.671  0.00  0.00    +0.000 C 
ENDROOT
BRANCH   3   7
ATOM      7  C   UNL     1       5.070   5.153  16.582  0.00  0.00    +0.000 C 
ATOM      8  O   UNL     1       5.973   5.870  17.469  0.00  0.00    +0.000 OA
ATOM      9  C   UNL     1       7.191   6.082  16.735  0.00  0.00    +0.000 C 
ATOM     10  C   UNL     1       6.880   5.644  15.310  0.00  0.00    +0.000 C 
ATOM     11  C   UNL     1       6.008   4.420  15.628  0.00  0.00    +0.000 C 
ATOM     12 CL   UNL     1       5.215   3.724  14.213  0.00  0.00    +0.000 Cl
BRANCH  10  13
ATOM     13  N   UNL     1       8.109   5.551  14.514  0.00  0.00    +0.000 NA
ATOM     14  N   UNL     1       8.062   5.702  13.299  0.00  0.00    +0.000 NA
ATOM     15  N   UNL     1       8.028   5.816  12.168  0.00  0.00    +0.000 NA
ENDBRANCH  10  13
ENDBRANCH   3   7
BRANCH   1  16
ATOM     16  C   UNL     1       1.026   3.121  18.953  0.00  0.00    +0.000 C 
ATOM     17  O   UNL     1       0.290   2.327  18.384  0.00  0.00    +0.000 OA
BRANCH  16  18
ATOM     18  O   UNL     1       0.663   3.894  20.016  0.00  0.00    +0.000 OA
BRANCH  18  20
ATOM     19  C   UNL     1       1.518   2.487  21.740  0.00  0.00    +0.000 C 
ATOM     20  C   UNL     1       1.577   3.870  21.116  0.00  0.00    +0.000 C 
ENDBRANCH  18  20
ENDBRANCH  16  18
ENDBRANCH   1  16
TORSDOF 5
ENDMDL
MODEL 4
REMARK VINA RESULT:      -6.6      4.608      7.051
REMARK  Name = 
REMARK  7 active torsions:
REMARK  status: ('A' for Active; 'I' for Inactive)
REMARK    1  A    between atoms: C_1  and  C_2
REMARK    2  A    between atoms: C_2  and  O_3
REMARK    3  A    between atoms: O_3  and  C_4
REMARK    4  A    between atoms: C_4  and  C_6
REMARK    5  A    between atoms: C_8  and  C_9
REMARK    6  A    between atoms: C_12  and  N_13
REMARK    7  A    between atoms: C_19  and  C_20
REMARK                            x       y       z     vdW  Elec       q    Type
REMARK                         _______ _______ _______ _____ _____    ______ ____
ROOT
ATOM      1  C   UNL     1       2.700   4.285  20.389  0.00  0.00    +0.000 A 
ATOM      2  C   UNL     1       3.810   3.887  19.569  0.00  0.00    +0.000 A 
ATOM      3  C   UNL     1       4.320   5.038  19.014  0.00  0.00    +0.000 A 
ATOM      4  O   UNL     1       3.505   6.089  19.338  0.00  0.00    +0.000 OA
ATOM      5  C   UNL     1       2.551   5.643  20.187  0.00  0.00    +0.000 A 
ATOM      6  C   UNL     1       1.660   6.680  20.756  0.00  0.00    +0.000 C 
ENDROOT
BRANCH   3   7
ATOM      7  C   UNL     1       5.517   5.464  18.265  0.00  0.00    +0.000 C 
ATOM      8  O   UNL     1       6.577   4.521  18.588  0.00  0.00    +0.000 OA
ATOM      9  C   UNL     1       7.537   4.598  17.520  0.00  0.00    +0.000 C 
ATOM     10  C   UNL     1       7.094   5.779  16.668  0.00  0.00    +0.000 C 
ATOM     11  C   UNL     1       5.575   5.565  16.744  0.00  0.00    +0.000 C 
ATOM     12 CL   UNL     1       4.633   6.892  16.061  0.00  0.00    +0.000 Cl
BRANCH  10  13
ATOM     13  N   UNL     1       7.824   5.806  15.396  0.00  0.00    +0.000 NA
ATOM     14  N   UNL     1       7.387   5.194  14.429  0.00  0.00    +0.000 NA
ATOM     15  N   UNL     1       7.005   4.611  13.531  0.00  0.00    +0.000 NA
ENDBRANCH  10  13
ENDBRANCH   3   7
BRANCH   1  16
ATOM     16  C   UNL     1       1.948   3.505  21.351  0.00  0.00    +0.000 C 
ATOM     17  O   UNL     1       2.401   3.103  22.414  0.00  0.00    +0.000 OA
BRANCH  16  18
ATOM     18  O   UNL     1       0.727   3.164  20.849  0.00  0.00    +0.000 OA
BRANCH  18  20
ATOM     19  C   UNL     1       0.784   1.942  18.802  0.00  0.00    +0.000 C 
ATOM     20  C   UNL     1       0.598   3.312  19.432  0.00  0.00    +0.000 C 
ENDBRANCH  18  20
ENDBRANCH  16  18
ENDBRANCH   1  16
TORSDOF 5
ENDMDL
MODEL 5
REMARK VINA RESULT:      -6.5      2.376      2.746
REMARK  Name = 
REMARK  7 active torsions:
REMARK  status: ('A' for Active; 'I' for Inactive)
REMARK    1  A    between atoms: C_1  and  C_2
REMARK    2  A    between atoms: C_2  and  O_3
REMARK    3  A    between atoms: O_3  and  C_4
REMARK    4  A    between atoms: C_4  and  C_6
REMARK    5  A    between atoms: C_8  and  C_9
REMARK    6  A    between atoms: C_12  and  N_13
REMARK    7  A    between atoms: C_19  and  C_20
REMARK                            x       y       z     vdW  Elec       q    Type
REMARK                         _______ _______ _______ _____ _____    ______ ____
ROOT
ATOM      1  C   UNL     1       5.916   4.542  16.101  0.00  0.00    +0.000 A 
ATOM      2  C   UNL     1       4.494   4.674  16.263  0.00  0.00    +0.000 A 
ATOM      3  C   UNL     1       4.273   4.944  17.594  0.00  0.00    +0.000 A 
ATOM      4  O   UNL     1       5.460   4.847  18.271  0.00  0.00    +0.000 OA
ATOM      5  C   UNL     1       6.449   4.637  17.372  0.00  0.00    +0.000 A 
ATOM      6  C   UNL     1       7.826   4.648  17.917  0.00  0.00    +0.000 C 
ENDROOT
BRANCH   3   7
ATOM      7  C   UNL     1       3.165   5.387  18.460  0.00  0.00    +0.000 C 
ATOM      8  O   UNL     1       3.128   4.480  19.597  0.00  0.00    +0.000 OA
ATOM      9  C   UNL     1       2.445   5.173  20.655  0.00  0.00    +0.000 C 
ATOM     10  C   UNL     1       1.901   6.443  20.016  0.00  0.00    +0.000 C 
ATOM     11  C   UNL     1       3.089   6.770  19.099  0.00  0.00    +0.000 C 
ATOM     12 CL   UNL     1       2.773   8.085  17.965  0.00  0.00    +0.000 Cl
BRANCH  10  13
ATOM     13  N   UNL     1       1.415   7.375  21.040  0.00  0.00    +0.000 NA
ATOM     14  N   UNL     1       0.929   8.449  20.706  0.00  0.00    +0.000 NA
ATOM     15  N   UNL     1       0.500   9.459  20.411  0.00  0.00    +0.000 NA
ENDBRANCH  10  13
ENDBRANCH   3   7
BRANCH   1  16
ATOM     16  C   UNL     1       6.695   4.467  14.882  0.00  0.00    +0.000 C 
ATOM     17  O   UNL     1       7.610   5.228  14.603  0.00  0.00    +0.000 OA
BRANCH  16  18
ATOM     18  O   UNL     1       6.177   3.531  14.035  0.00  0.00    +0.000 OA
BRANCH  18  20
ATOM     19  C   UNL     1       5.397   3.041  11.836  0.00  0.00    +0.000 C 
ATOM     20  C   UNL     1       6.467   3.747  12.652  0.00  0.00    +0.000 C 
ENDBRANCH  18  20
ENDBRANCH  16  18
ENDBRANCH   1  16
TORSDOF 5
ENDMDL
MODEL 6
REMARK VINA RESULT:      -6.5      4.465      7.192
REMARK  Name = 
REMARK  7 active torsions:
REMARK  status: ('A' for Active; 'I' for Inactive)
REMARK    1  A    between atoms: C_1  and  C_2
REMARK    2  A    between atoms: C_2  and  O_3
REMARK    3  A    between atoms: O_3  and  C_4
REMARK    4  A    between atoms: C_4  and  C_6
REMARK    5  A    between atoms: C_8  and  C_9
REMARK    6  A    between atoms: C_12  and  N_13
REMARK    7  A    between atoms: C_19  and  C_20
REMARK                            x       y       z     vdW  Elec       q    Type
REMARK                         _______ _______ _______ _____ _____    ______ ____
ROOT
ATOM      1  C   UNL     1       2.113   3.875  18.419  0.00  0.00    +0.000 A 
ATOM      2  C   UNL     1       2.970   3.360  17.387  0.00  0.00    +0.000 A 
ATOM      3  C   UNL     1       4.006   4.255  17.253  0.00  0.00    +0.000 A 
ATOM      4  O   UNL     1       3.757   5.347  18.043  0.00  0.00    +0.000 OA
ATOM      5  C   UNL     1       2.638   5.106  18.764  0.00  0.00    +0.000 A 
ATOM      6  C   UNL     1       2.296   6.126  19.781  0.00  0.00    +0.000 C 
ENDROOT
BRANCH   3   7
ATOM      7  C   UNL     1       5.320   4.329  16.589  0.00  0.00    +0.000 C 
ATOM      8  O   UNL     1       5.293   3.376  15.490  0.00  0.00    +0.000 OA
ATOM      9  C   UNL     1       6.305   3.792  14.558  0.00  0.00    +0.000 C 
ATOM     10  C   UNL     1       7.065   4.908  15.264  0.00  0.00    +0.000 C 
ATOM     11  C   UNL     1       5.878   5.598  15.952  0.00  0.00    +0.000 C 
ATOM     12 CL   UNL     1       6.353   6.849  17.104  0.00  0.00    +0.000 Cl
BRANCH  10  13
ATOM     13  N   UNL     1       7.950   5.609  14.327  0.00  0.00    +0.000 NA
ATOM     14  N   UNL     1       7.813   5.446  13.120  0.00  0.00    +0.000 NA
ATOM     15  N   UNL     1       7.712   5.285  11.999  0.00  0.00    +0.000 NA
ENDBRANCH  10  13
ENDBRANCH   3   7
BRANCH   1  16
ATOM     16  C   UNL     1       1.005   3.230  19.095  0.00  0.00    +0.000 C 
ATOM     17  O   UNL     1       0.230   2.454  18.555  0.00  0.00    +0.000 OA
BRANCH  16  18
ATOM     18  O   UNL     1       0.865   3.714  20.362  0.00  0.00    +0.000 OA
BRANCH  18  20
ATOM     19  C   UNL     1       2.661   2.713  21.568  0.00  0.00    +0.000 C 
ATOM     20  C   UNL     1       1.153   2.773  21.400  0.00  0.00    +0.000 C 
ENDBRANCH  18  20
ENDBRANCH  16  18
ENDBRANCH   1  16
TORSDOF 5
ENDMDL
MODEL 7
REMARK VINA RESULT:      -6.5      4.859      6.860
REMARK  Name = 
REMARK  7 active torsions:
REMARK  status: ('A' for Active; 'I' for Inactive)
REMARK    1  A    between atoms: C_1  and  C_2
REMARK    2  A    between atoms: C_2  and  O_3
REMARK    3  A    between atoms: O_3  and  C_4
REMARK    4  A    between atoms: C_4  and  C_6
REMARK    5  A    between atoms: C_8  and  C_9
REMARK    6  A    between atoms: C_12  and  N_13
REMARK    7  A    between atoms: C_19  and  C_20
REMARK                            x       y       z     vdW  Elec       q    Type
REMARK                         _______ _______ _______ _____ _____    ______ ____
ROOT
ATOM      1  C   UNL     1       1.618   8.934  18.929  0.00  0.00    +0.000 A 
ATOM      2  C   UNL     1       2.265   8.041  18.007  0.00  0.00    +0.000 A 
ATOM      3  C   UNL     1       2.510   6.876  18.696  0.00  0.00    +0.000 A 
ATOM      4  O   UNL     1       2.177   7.057  20.012  0.00  0.00    +0.000 OA
ATOM      5  C   UNL     1       1.615   8.281  20.146  0.00  0.00    +0.000 A 
ATOM      6  C   UNL     1       1.062   8.592  21.484  0.00  0.00    +0.000 C 
ENDROOT
BRANCH   3   7
ATOM      7  C   UNL     1       2.932   5.493  18.408  0.00  0.00    +0.000 C 
ATOM      8  O   UNL     1       4.367   5.530  18.166  0.00  0.00    +0.000 OA
ATOM      9  C   UNL     1       4.859   4.199  18.400  0.00  0.00    +0.000 C 
ATOM     10  C   UNL     1       3.616   3.339  18.583  0.00  0.00    +0.000 C 
ATOM     11  C   UNL     1       2.761   4.333  19.384  0.00  0.00    +0.000 C 
ATOM     12 CL   UNL     1       1.091   3.810  19.616  0.00  0.00    +0.000 Cl
BRANCH  10  13
ATOM     13  N   UNL     1       3.972   2.012  19.097  0.00  0.00    +0.000 NA
ATOM     14  N   UNL     1       4.604   1.913  20.143  0.00  0.00    +0.000 NA
ATOM     15  N   UNL     1       5.211   1.807  21.098  0.00  0.00    +0.000 NA
ENDBRANCH  10  13
ENDBRANCH   3   7
BRANCH   1  16
ATOM     16  C   UNL     1       0.964  10.200  18.669  0.00  0.00    +0.000 C 
ATOM     17  O   UNL     1       1.529  11.284  18.692  0.00  0.00    +0.000 OA
BRANCH  16  18
ATOM     18  O   UNL     1      -0.383  10.029  18.537  0.00  0.00    +0.000 OA
BRANCH  18  20
ATOM     19  C   UNL     1      -1.925  11.672  17.758  0.00  0.00    +0.000 C 
ATOM     20  C   UNL     1      -1.175  11.140  18.967  0.00  0.00    +0.000 C 
ENDBRANCH  18  20
ENDBRANCH  16  18
ENDBRANCH   1  16
TORSDOF 5
ENDMDL
MODEL 8
REMARK VINA RESULT:      -6.5      1.356      1.469
REMARK  Name = 
REMARK  7 active torsions:
REMARK  status: ('A' for Active; 'I' for Inactive)
REMARK    1  A    between atoms: C_1  and  C_2
REMARK    2  A    between atoms: C_2  and  O_3
REMARK    3  A    between atoms: O_3  and  C_4
REMARK    4  A    between atoms: C_4  and  C_6
REMARK    5  A    between atoms: C_8  and  C_9
REMARK    6  A    between atoms: C_12  and  N_13
REMARK    7  A    between atoms: C_19  and  C_20
REMARK                            x       y       z     vdW  Elec       q    Type
REMARK                         _______ _______ _______ _____ _____    ______ ____
ROOT
ATOM      1  C   UNL     1       6.316   4.821  15.711  0.00  0.00    +0.000 A 
ATOM      2  C   UNL     1       5.431   3.804  16.209  0.00  0.00    +0.000 A 
ATOM      3  C   UNL     1       4.976   4.242  17.431  0.00  0.00    +0.000 A 
ATOM      4  O   UNL     1       5.635   5.395  17.765  0.00  0.00    +0.000 OA
ATOM      5  C   UNL     1       6.416   5.759  16.721  0.00  0.00    +0.000 A 
ATOM      6  C   UNL     1       7.097   7.066  16.852  0.00  0.00    +0.000 C 
ENDROOT
BRANCH   3   7
ATOM      7  C   UNL     1       3.939   3.882  18.415  0.00  0.00    +0.000 C 
ATOM      8  O   UNL     1       4.274   2.558  18.918  0.00  0.00    +0.000 OA
ATOM      9  C   UNL     1       3.620   2.423  20.191  0.00  0.00    +0.000 C 
ATOM     10  C   UNL     1       2.717   3.643  20.310  0.00  0.00    +0.000 C 
ATOM     11  C   UNL     1       3.653   4.686  19.680  0.00  0.00    +0.000 C 
ATOM     12 CL   UNL     1       2.886   6.251  19.395  0.00  0.00    +0.000 Cl
BRANCH  10  13
ATOM     13  N   UNL     1       2.195   3.774  21.674  0.00  0.00    +0.000 NA
ATOM     14  N   UNL     1       1.543   2.862  22.168  0.00  0.00    +0.000 NA
ATOM     15  N   UNL     1       0.915   2.034  22.629  0.00  0.00    +0.000 NA
ENDBRANCH  10  13
ENDBRANCH   3   7
BRANCH   1  16
ATOM     16  C   UNL     1       6.896   4.962  14.392  0.00  0.00    +0.000 C 
ATOM     17  O   UNL     1       7.981   5.480  14.171  0.00  0.00    +0.000 OA
BRANCH  16  18
ATOM     18  O   UNL     1       6.011   4.572  13.430  0.00  0.00    +0.000 OA
BRANCH  18  20
ATOM     19  C   UNL     1       5.276   2.978  11.817  0.00  0.00    +0.000 C 
ATOM     20  C   UNL     1       6.473   3.519  12.580  0.00  0.00    +0.000 C 
ENDBRANCH  18  20
ENDBRANCH  16  18
ENDBRANCH   1  16
TORSDOF 5
ENDMDL
MODEL 9
REMARK VINA RESULT:      -6.5      4.646      7.268
REMARK  Name = 
REMARK  7 active torsions:
REMARK  status: ('A' for Active; 'I' for Inactive)
REMARK    1  A    between atoms: C_1  and  C_2
REMARK    2  A    between atoms: C_2  and  O_3
REMARK    3  A    between atoms: O_3  and  C_4
REMARK    4  A    between atoms: C_4  and  C_6
REMARK    5  A    between atoms: C_8  and  C_9
REMARK    6  A    between atoms: C_12  and  N_13
REMARK    7  A    between atoms: C_19  and  C_20
REMARK                            x       y       z     vdW  Elec       q    Type
REMARK                         _______ _______ _______ _____ _____    ______ ____
ROOT
ATOM      1  C   UNL     1       2.895   4.985  19.306  0.00  0.00    +0.000 A 
ATOM      2  C   UNL     1       4.268   5.262  18.986  0.00  0.00    +0.000 A 
ATOM      3  C   UNL     1       4.561   4.537  17.854  0.00  0.00    +0.000 A 
ATOM      4  O   UNL     1       3.494   3.733  17.551  0.00  0.00    +0.000 OA
ATOM      5  C   UNL     1       2.484   4.024  18.403  0.00  0.00    +0.000 A 
ATOM      6  C   UNL     1       1.197   3.347  18.129  0.00  0.00    +0.000 C 
ENDROOT
BRANCH   3   7
ATOM      7  C   UNL     1       5.636   4.449  16.848  0.00  0.00    +0.000 C 
ATOM      8  O   UNL     1       5.050   3.857  15.654  0.00  0.00    +0.000 OA
ATOM      9  C   UNL     1       5.892   4.235  14.552  0.00  0.00    +0.000 C 
ATOM     10  C   UNL     1       7.109   4.896  15.185  0.00  0.00    +0.000 C 
ATOM     11  C   UNL     1       6.399   5.657  16.314  0.00  0.00    +0.000 C 
ATOM     12 CL   UNL     1       7.502   6.399  17.476  0.00  0.00    +0.000 Cl
BRANCH  10  13
ATOM     13  N   UNL     1       7.922   5.572  14.168  0.00  0.00    +0.000 NA
ATOM     14  N   UNL     1       7.785   5.282  12.985  0.00  0.00    +0.000 NA
ATOM     15  N   UNL     1       7.686   5.004  11.887  0.00  0.00    +0.000 NA
ENDBRANCH  10  13
ENDBRANCH   3   7
BRANCH   1  16
ATOM     16  C   UNL     1       2.031   5.641  20.266  0.00  0.00    +0.000 C 
ATOM     17  O   UNL     1       1.980   6.852  20.430  0.00  0.00    +0.000 OA
BRANCH  16  18
ATOM     18  O   UNL     1       1.396   4.723  21.050  0.00  0.00    +0.000 OA
BRANCH  18  20
ATOM     19  C   UNL     1       1.576   2.451  21.750  0.00  0.00    +0.000 C 
ATOM     20  C   UNL     1       2.263   3.805  21.723  0.00  0.00    +0.000 C 
ENDBRANCH  18  20
ENDBRANCH  16  18
ENDBRANCH   1  16
TORSDOF 5
ENDMDL
