MODEL 1
REMARK VINA RESULT:      -8.5      0.000      0.000
REMARK  Name = 
REMARK  8 active torsions:
REMARK  status: ('A' for Active; 'I' for Inactive)
REMARK    1  A    between atoms: C_1  and  C_2
REMARK    2  A    between atoms: C_2  and  C_3
REMARK    3  A    between atoms: C_3  and  C_4
REMARK    4  A    between atoms: C_4  and  C_5
REMARK    5  A    between atoms: C_5  and  C_6
REMARK    6  A    between atoms: C_6  and  C_7
REMARK    7  A    between atoms: C_7  and  N_8
REMARK    8  A    between atoms: N_11  and  C_12
REMARK                            x       y       z     vdW  Elec       q    Type
REMARK                         _______ _______ _______ _____ _____    ______ ____
ROOT
ATOM      1  C   UNL     1       9.139   9.529  18.470  0.00  0.00    +0.000 C 
ENDROOT
BRANCH   1   2
ATOM      2  C   UNL     1       8.892  11.050  18.304  0.00  0.00    +0.000 C 
BRANCH   2   3
ATOM      3  C   UNL     1       9.857  12.001  19.044  0.00  0.00    +0.000 C 
ATOM      4  C   UNL     1       9.854  13.376  18.334  0.00  0.00    +0.000 C 
ATOM      5  O   UNL     1      10.260  13.626  17.213  0.00  0.00    +0.000 OA
ATOM      6  N   UNL     1       9.254  14.280  19.202  0.00  0.00    +0.000 N 
ATOM      7  C   UNL     1       8.917  13.686  20.409  0.00  0.00    +0.000 A 
ATOM      8  C   UNL     1       8.274  14.260  21.480  0.00  0.00    +0.000 A 
ATOM      9  C   UNL     1       8.008  13.443  22.581  0.00  0.00    +0.000 A 
ATOM     10  C   UNL     1       8.390  12.087  22.588  0.00  0.00    +0.000 A 
ATOM     11  C   UNL     1       9.040  11.524  21.490  0.00  0.00    +0.000 A 
ATOM     12  C   UNL     1       9.291  12.342  20.400  0.00  0.00    +0.000 A 
ATOM     13  H   UNL     1       9.085  15.242  18.949  0.00  0.00    +0.000 HD
BRANCH   3  15
ATOM     14  C   UNL     1      12.333  12.295  19.759  0.00  0.00    +0.000 C 
ATOM     15  C   UNL     1      11.281  11.403  19.101  0.00  0.00    +0.000 C 
ENDBRANCH   3  15
ENDBRANCH   2   3
ENDBRANCH   1   2
BRANCH   1  16
ATOM     16  C   UNL     1       7.986   8.795  17.773  0.00  0.00    +0.000 C 
BRANCH  16  17
ATOM     17  C   UNL     1       7.858   7.290  18.048  0.00  0.00    +0.000 C 
BRANCH  17  18
ATOM     18  N   UNL     1       7.268   6.520  16.952  0.00  0.00    +0.000 NA
ATOM     19  C   UNL     1       7.276   5.060  17.182  0.00  0.00    +0.000 C 
ATOM     20  C   UNL     1       6.292   4.534  18.243  0.00  0.00    +0.000 C 
ATOM     21  N   UNL     1       4.933   5.044  18.016  0.00  0.00    +0.000 N 
ATOM     22  C   UNL     1       4.778   6.463  17.671  0.00  0.00    +0.000 C 
ATOM     23  C   UNL     1       5.871   6.932  16.675  0.00  0.00    +0.000 C 
BRANCH  21  24
ATOM     24  C   UNL     1       3.837   4.208  18.083  0.00  0.00    +0.000 A 
ATOM     25  C   UNL     1       3.962   2.820  18.260  0.00  0.00    +0.000 A 
ATOM     26  C   UNL     1       2.835   1.991  18.330  0.00  0.00    +0.000 A 
ATOM     27  C   UNL     1       1.560   2.534  18.231  0.00  0.00    +0.000 A 
ATOM     28  C   UNL     1       1.407   3.906  18.062  0.00  0.00    +0.000 A 
ATOM     29  C   UNL     1       2.531   4.719  18.001  0.00  0.00    +0.000 A 
ENDBRANCH  21  24
ENDBRANCH  17  18
ENDBRANCH  16  17
ENDBRANCH   1  16
TORSDOF 7
ENDMDL
MODEL 2
REMARK VINA RESULT:      -8.0      2.707      9.851
REMARK  Name = 
REMARK  8 active torsions:
REMARK  status: ('A' for Active; 'I' for Inactive)
REMARK    1  A    between atoms: C_1  and  C_2
REMARK    2  A    between atoms: C_2  and  C_3
REMARK    3  A    between atoms: C_3  and  C_4
REMARK    4  A    between atoms: C_4  and  C_5
REMARK    5  A    between atoms: C_5  and  C_6
REMARK    6  A    between atoms: C_6  and  C_7
REMARK    7  A    between atoms: C_7  and  N_8
REMARK    8  A    between atoms: N_11  and  C_12
REMARK                            x       y       z     vdW  Elec       q    Type
REMARK                         _______ _______ _______ _____ _____    ______ ____
ROOT
ATOM      1  C   UNL     1       7.976   7.567  18.208  0.00  0.00    +0.000 C 
ENDROOT
BRANCH   1   2
ATOM      2  C   UNL     1       7.535   6.995  16.837  0.00  0.00    +0.000 C 
BRANCH   2   3
ATOM      3  C   UNL     1       6.704   5.694  16.854  0.00  0.00    +0.000 C 
ATOM      4  C   UNL     1       7.336   4.705  17.863  0.00  0.00    +0.000 C 
ATOM      5  O   UNL     1       8.423   4.163  17.779  0.00  0.00    +0.000 OA
ATOM      6  N   UNL     1       6.444   4.579  18.920  0.00  0.00    +0.000 N 
ATOM      7  C   UNL     1       5.286   5.312  18.706  0.00  0.00    +0.000 A 
ATOM      8  C   UNL     1       4.213   5.456  19.551  0.00  0.00    +0.000 A 
ATOM      9  C   UNL     1       3.170   6.284  19.128  0.00  0.00    +0.000 A 
ATOM     10  C   UNL     1       3.223   6.938  17.881  0.00  0.00    +0.000 A 
ATOM     11  C   UNL     1       4.323   6.779  17.039  0.00  0.00    +0.000 A 
ATOM     12  C   UNL     1       5.355   5.962  17.474  0.00  0.00    +0.000 A 
ATOM     13  H   UNL     1       6.650   4.024  19.738  0.00  0.00    +0.000 HD
BRANCH   3  15
ATOM     14  C   UNL     1       5.801   3.792  15.338  0.00  0.00    +0.000 C 
ATOM     15  C   UNL     1       6.623   5.077  15.440  0.00  0.00    +0.000 C 
ENDBRANCH   3  15
ENDBRANCH   2   3
ENDBRANCH   1   2
BRANCH   1  16
ATOM     16  C   UNL     1       8.370   9.033  17.993  0.00  0.00    +0.000 C 
BRANCH  16  17
ATOM     17  C   UNL     1       8.752   9.838  19.243  0.00  0.00    +0.000 C 
BRANCH  17  18
ATOM     18  N   UNL     1       9.960  10.652  19.098  0.00  0.00    +0.000 NA
ATOM     19  C   UNL     1       9.937  11.541  17.917  0.00  0.00    +0.000 C 
ATOM     20  C   UNL     1       8.985  12.749  17.994  0.00  0.00    +0.000 C 
ATOM     21  N   UNL     1       9.173  13.502  19.241  0.00  0.00    +0.000 N 
ATOM     22  C   UNL     1       9.319  12.743  20.490  0.00  0.00    +0.000 C 
ATOM     23  C   UNL     1      10.211  11.489  20.295  0.00  0.00    +0.000 C 
BRANCH  21  24
ATOM     24  C   UNL     1       9.252  14.880  19.238  0.00  0.00    +0.000 A 
ATOM     25  C   UNL     1      10.145  15.581  20.065  0.00  0.00    +0.000 A 
ATOM     26  C   UNL     1      10.212  16.980  20.041  0.00  0.00    +0.000 A 
ATOM     27  C   UNL     1       9.392  17.706  19.185  0.00  0.00    +0.000 A 
ATOM     28  C   UNL     1       8.505  17.036  18.350  0.00  0.00    +0.000 A 
ATOM     29  C   UNL     1       8.452  15.648  18.376  0.00  0.00    +0.000 A 
ENDBRANCH  21  24
ENDBRANCH  17  18
ENDBRANCH  16  17
ENDBRANCH   1  16
TORSDOF 7
ENDMDL
MODEL 3
REMARK VINA RESULT:      -8.0      1.394      2.332
REMARK  Name = 
REMARK  8 active torsions:
REMARK  status: ('A' for Active; 'I' for Inactive)
REMARK    1  A    between atoms: C_1  and  C_2
REMARK    2  A    between atoms: C_2  and  C_3
REMARK    3  A    between atoms: C_3  and  C_4
REMARK    4  A    between atoms: C_4  and  C_5
REMARK    5  A    between atoms: C_5  and  C_6
REMARK    6  A    between atoms: C_6  and  C_7
REMARK    7  A    between atoms: C_7  and  N_8
REMARK    8  A    between atoms: N_11  and  C_12
REMARK                            x       y       z     vdW  Elec       q    Type
REMARK                         _______ _______ _______ _____ _____    ______ ____
ROOT
ATOM      1  C   UNL     1       8.215  10.027  18.353  0.00  0.00    +0.000 C 
ENDROOT
BRANCH   1   2
ATOM      2  C   UNL     1       9.503  10.835  18.053  0.00  0.00    +0.000 C 
BRANCH   2   3
ATOM      3  C   UNL     1       9.929  11.889  19.097  0.00  0.00    +0.000 C 
ATOM      4  C   UNL     1      11.460  12.097  19.009  0.00  0.00    +0.000 C 
ATOM      5  O   UNL     1      12.329  11.288  19.280  0.00  0.00    +0.000 OA
ATOM      6  N   UNL     1      11.667  13.379  18.515  0.00  0.00    +0.000 N 
ATOM      7  C   UNL     1      10.472  14.055  18.324  0.00  0.00    +0.000 A 
ATOM      8  C   UNL     1      10.291  15.317  17.812  0.00  0.00    +0.000 A 
ATOM      9  C   UNL     1       8.976  15.773  17.678  0.00  0.00    +0.000 A 
ATOM     10  C   UNL     1       7.887  14.966  18.060  0.00  0.00    +0.000 A 
ATOM     11  C   UNL     1       8.093  13.688  18.576  0.00  0.00    +0.000 A 
ATOM     12  C   UNL     1       9.400  13.243  18.695  0.00  0.00    +0.000 A 
ATOM     13  H   UNL     1      12.589  13.739  18.316  0.00  0.00    +0.000 HD
BRANCH   3  15
ATOM     14  C   UNL     1       9.754  12.491  21.615  0.00  0.00    +0.000 C 
ATOM     15  C   UNL     1       9.504  11.455  20.518  0.00  0.00    +0.000 C 
ENDBRANCH   3  15
ENDBRANCH   2   3
ENDBRANCH   1   2
BRANCH   1  16
ATOM     16  C   UNL     1       8.273   8.740  17.523  0.00  0.00    +0.000 C 
BRANCH  16  17
ATOM     17  C   UNL     1       7.928   7.432  18.249  0.00  0.00    +0.000 C 
BRANCH  17  18
ATOM     18  N   UNL     1       7.572   6.320  17.365  0.00  0.00    +0.000 NA
ATOM     19  C   UNL     1       7.387   5.036  18.072  0.00  0.00    +0.000 C 
ATOM     20  C   UNL     1       6.119   4.913  18.938  0.00  0.00    +0.000 C 
ATOM     21  N   UNL     1       4.917   5.302  18.189  0.00  0.00    +0.000 N 
ATOM     22  C   UNL     1       4.986   6.507  17.352  0.00  0.00    +0.000 C 
ATOM     23  C   UNL     1       6.337   6.600  16.594  0.00  0.00    +0.000 C 
BRANCH  21  24
ATOM     24  C   UNL     1       3.769   4.538  18.235  0.00  0.00    +0.000 A 
ATOM     25  C   UNL     1       3.662   3.305  17.571  0.00  0.00    +0.000 A 
ATOM     26  C   UNL     1       2.489   2.543  17.636  0.00  0.00    +0.000 A 
ATOM     27  C   UNL     1       1.400   2.996  18.371  0.00  0.00    +0.000 A 
ATOM     28  C   UNL     1       1.481   4.210  19.044  0.00  0.00    +0.000 A 
ATOM     29  C   UNL     1       2.652   4.954  18.979  0.00  0.00    +0.000 A 
ENDBRANCH  21  24
ENDBRANCH  17  18
ENDBRANCH  16  17
ENDBRANCH   1  16
TORSDOF 7
ENDMDL
MODEL 4
REMARK VINA RESULT:      -8.0      1.381      2.501
REMARK  Name = 
REMARK  8 active torsions:
REMARK  status: ('A' for Active; 'I' for Inactive)
REMARK    1  A    between atoms: C_1  and  C_2
REMARK    2  A    between atoms: C_2  and  C_3
REMARK    3  A    between atoms: C_3  and  C_4
REMARK    4  A    between atoms: C_4  and  C_5
REMARK    5  A    between atoms: C_5  and  C_6
REMARK    6  A    between atoms: C_6  and  C_7
REMARK    7  A    between atoms: C_7  and  N_8
REMARK    8  A    between atoms: N_11  and  C_12
REMARK                            x       y       z     vdW  Elec       q    Type
REMARK                         _______ _______ _______ _____ _____    ______ ____
ROOT
ATOM      1  C   UNL     1       8.859   9.644  18.693  0.00  0.00    +0.000 C 
ENDROOT
BRANCH   1   2
ATOM      2  C   UNL     1       9.175  11.052  18.130  0.00  0.00    +0.000 C 
BRANCH   2   3
ATOM      3  C   UNL     1       9.741  12.093  19.120  0.00  0.00    +0.000 C 
ATOM      4  C   UNL     1      11.274  12.182  18.937  0.00  0.00    +0.000 C 
ATOM      5  O   UNL     1      12.095  11.314  19.177  0.00  0.00    +0.000 OA
ATOM      6  N   UNL     1      11.548  13.433  18.399  0.00  0.00    +0.000 N 
ATOM      7  C   UNL     1      10.397  14.194  18.261  0.00  0.00    +0.000 A 
ATOM      8  C   UNL     1      10.280  15.456  17.728  0.00  0.00    +0.000 A 
ATOM      9  C   UNL     1       8.998  16.007  17.660  0.00  0.00    +0.000 A 
ATOM     10  C   UNL     1       7.876  15.295  18.125  0.00  0.00    +0.000 A 
ATOM     11  C   UNL     1       8.017  14.015  18.661  0.00  0.00    +0.000 A 
ATOM     12  C   UNL     1       9.291  13.475  18.715  0.00  0.00    +0.000 A 
ATOM     13  H   UNL     1      12.480  13.717  18.138  0.00  0.00    +0.000 HD
BRANCH   3  15
ATOM     14  C   UNL     1       9.758  12.762  21.626  0.00  0.00    +0.000 C 
ATOM     15  C   UNL     1       9.370  11.723  20.574  0.00  0.00    +0.000 C 
ENDBRANCH   3  15
ENDBRANCH   2   3
ENDBRANCH   1   2
BRANCH   1  16
ATOM     16  C   UNL     1       8.318   8.794  17.536  0.00  0.00    +0.000 C 
BRANCH  16  17
ATOM     17  C   UNL     1       7.039   7.990  17.808  0.00  0.00    +0.000 C 
BRANCH  17  18
ATOM     18  N   UNL     1       6.924   6.750  17.038  0.00  0.00    +0.000 NA
ATOM     19  C   UNL     1       7.029   5.528  17.863  0.00  0.00    +0.000 C 
ATOM     20  C   UNL     1       5.826   5.217  18.773  0.00  0.00    +0.000 C 
ATOM     21  N   UNL     1       4.561   5.266  18.027  0.00  0.00    +0.000 N 
ATOM     22  C   UNL     1       4.360   6.374  17.084  0.00  0.00    +0.000 C 
ATOM     23  C   UNL     1       5.651   6.684  16.281  0.00  0.00    +0.000 C 
BRANCH  21  24
ATOM     24  C   UNL     1       3.607   4.280  18.175  0.00  0.00    +0.000 A 
ATOM     25  C   UNL     1       2.239   4.574  18.294  0.00  0.00    +0.000 A 
ATOM     26  C   UNL     1       1.286   3.557  18.438  0.00  0.00    +0.000 A 
ATOM     27  C   UNL     1       1.682   2.225  18.459  0.00  0.00    +0.000 A 
ATOM     28  C   UNL     1       3.030   1.906  18.335  0.00  0.00    +0.000 A 
ATOM     29  C   UNL     1       3.965   2.922  18.185  0.00  0.00    +0.000 A 
ENDBRANCH  21  24
ENDBRANCH  17  18
ENDBRANCH  16  17
ENDBRANCH   1  16
TORSDOF 7
ENDMDL
MODEL 5
REMARK VINA RESULT:      -7.9      5.758      8.785
REMARK  Name = 
REMARK  8 active torsions:
REMARK  status: ('A' for Active; 'I' for Inactive)
REMARK    1  A    between atoms: C_1  and  C_2
REMARK    2  A    between atoms: C_2  and  C_3
REMARK    3  A    between atoms: C_3  and  C_4
REMARK    4  A    between atoms: C_4  and  C_5
REMARK    5  A    between atoms: C_5  and  C_6
REMARK    6  A    between atoms: C_6  and  C_7
REMARK    7  A    between atoms: C_7  and  N_8
REMARK    8  A    between atoms: N_11  and  C_12
REMARK                            x       y       z     vdW  Elec       q    Type
REMARK                         _______ _______ _______ _____ _____    ______ ____
ROOT
ATOM      1  C   UNL     1       5.554   6.884  16.701  0.00  0.00    +0.000 C 
ENDROOT
BRANCH   1   2
ATOM      2  C   UNL     1       5.152   5.683  15.808  0.00  0.00    +0.000 C 
BRANCH   2   3
ATOM      3  C   UNL     1       5.538   4.275  16.311  0.00  0.00    +0.000 C 
ATOM      4  C   UNL     1       6.738   4.397  17.281  0.00  0.00    +0.000 C 
ATOM      5  O   UNL     1       7.871   4.752  17.008  0.00  0.00    +0.000 OA
ATOM      6  N   UNL     1       6.272   4.065  18.547  0.00  0.00    +0.000 N 
ATOM      7  C   UNL     1       4.938   3.687  18.520  0.00  0.00    +0.000 A 
ATOM      8  C   UNL     1       4.141   3.338  19.584  0.00  0.00    +0.000 A 
ATOM      9  C   UNL     1       2.806   3.030  19.309  0.00  0.00    +0.000 A 
ATOM     10  C   UNL     1       2.306   3.073  17.993  0.00  0.00    +0.000 A 
ATOM     11  C   UNL     1       3.133   3.432  16.929  0.00  0.00    +0.000 A 
ATOM     12  C   UNL     1       4.452   3.744  17.214  0.00  0.00    +0.000 A 
ATOM     13  H   UNL     1       6.856   4.118  19.368  0.00  0.00    +0.000 HD
BRANCH   3  15
ATOM     14  C   UNL     1       6.178   4.052  13.807  0.00  0.00    +0.000 C 
ATOM     15  C   UNL     1       5.868   3.341  15.125  0.00  0.00    +0.000 C 
ENDBRANCH   3  15
ENDBRANCH   2   3
ENDBRANCH   1   2
BRANCH   1  16
ATOM     16  C   UNL     1       4.262   7.529  17.217  0.00  0.00    +0.000 C 
BRANCH  16  17
ATOM     17  C   UNL     1       3.677   6.963  18.518  0.00  0.00    +0.000 C 
BRANCH  17  18
ATOM     18  N   UNL     1       2.215   6.882  18.544  0.00  0.00    +0.000 NA
ATOM     19  C   UNL     1       1.662   6.566  19.878  0.00  0.00    +0.000 C 
ATOM     20  C   UNL     1       1.740   7.689  20.929  0.00  0.00    +0.000 C 
ATOM     21  N   UNL     1       1.211   8.954  20.403  0.00  0.00    +0.000 N 
ATOM     22  C   UNL     1       1.591   9.348  19.041  0.00  0.00    +0.000 C 
ATOM     23  C   UNL     1       1.583   8.136  18.072  0.00  0.00    +0.000 C 
BRANCH  21  24
ATOM     24  C   UNL     1       0.347   9.731  21.149  0.00  0.00    +0.000 A 
ATOM     25  C   UNL     1       0.037   9.434  22.486  0.00  0.00    +0.000 A 
ATOM     26  C   UNL     1      -0.838  10.240  23.226  0.00  0.00    +0.000 A 
ATOM     27  C   UNL     1      -1.415  11.363  22.646  0.00  0.00    +0.000 A 
ATOM     28  C   UNL     1      -1.119  11.684  21.325  0.00  0.00    +0.000 A 
ATOM     29  C   UNL     1      -0.245  10.882  20.603  0.00  0.00    +0.000 A 
ENDBRANCH  21  24
ENDBRANCH  17  18
ENDBRANCH  16  17
ENDBRANCH   1  16
TORSDOF 7
ENDMDL
MODEL 6
REMARK VINA RESULT:      -7.9      6.057     10.020
REMARK  Name = 
REMARK  8 active torsions:
REMARK  status: ('A' for Active; 'I' for Inactive)
REMARK    1  A    between atoms: C_1  and  C_2
REMARK    2  A    between atoms: C_2  and  C_3
REMARK    3  A    between atoms: C_3  and  C_4
REMARK    4  A    between atoms: C_4  and  C_5
REMARK    5  A    between atoms: C_5  and  C_6
REMARK    6  A    between atoms: C_6  and  C_7
REMARK    7  A    between atoms: C_7  and  N_8
REMARK    8  A    between atoms: N_11  and  C_12
REMARK                            x       y       z     vdW  Elec       q    Type
REMARK                         _______ _______ _______ _____ _____    ______ ____
ROOT
ATOM      1  C   UNL     1       3.520   7.579  17.685  0.00  0.00    +0.000 C 
ENDROOT
BRANCH   1   2
ATOM      2  C   UNL     1       4.040   6.451  18.612  0.00  0.00    +0.000 C 
BRANCH   2   3
ATOM      3  C   UNL     1       4.435   5.119  17.940  0.00  0.00    +0.000 C 
ATOM      4  C   UNL     1       5.631   4.502  18.705  0.00  0.00    +0.000 C 
ATOM      5  O   UNL     1       6.762   4.948  18.784  0.00  0.00    +0.000 OA
ATOM      6  N   UNL     1       5.164   3.354  19.332  0.00  0.00    +0.000 N 
ATOM      7  C   UNL     1       3.832   3.110  19.029  0.00  0.00    +0.000 A 
ATOM      8  C   UNL     1       3.034   2.096  19.501  0.00  0.00    +0.000 A 
ATOM      9  C   UNL     1       1.702   2.079  19.078  0.00  0.00    +0.000 A 
ATOM     10  C   UNL     1       1.207   3.062  18.200  0.00  0.00    +0.000 A 
ATOM     11  C   UNL     1       2.035   4.084  17.734  0.00  0.00    +0.000 A 
ATOM     12  C   UNL     1       3.351   4.095  18.167  0.00  0.00    +0.000 A 
ATOM     13  H   UNL     1       5.744   2.796  19.940  0.00  0.00    +0.000 HD
BRANCH   3  15
ATOM     14  C   UNL     1       5.298   4.102  15.714  0.00  0.00    +0.000 C 
ATOM     15  C   UNL     1       4.777   5.337  16.448  0.00  0.00    +0.000 C 
ENDBRANCH   3  15
ENDBRANCH   2   3
ENDBRANCH   1   2
BRANCH   1  16
ATOM     16  C   UNL     1       2.029   7.774  17.988  0.00  0.00    +0.000 C 
BRANCH  16  17
ATOM     17  C   UNL     1       1.481   9.203  17.875  0.00  0.00    +0.000 C 
BRANCH  17  18
ATOM     18  N   UNL     1       1.793  10.067  19.015  0.00  0.00    +0.000 NA
ATOM     19  C   UNL     1       1.353  11.466  18.837  0.00  0.00    +0.000 C 
ATOM     20  C   UNL     1      -0.165  11.716  18.909  0.00  0.00    +0.000 C 
ATOM     21  N   UNL     1      -0.753  11.106  20.109  0.00  0.00    +0.000 N 
ATOM     22  C   UNL     1      -0.326   9.749  20.473  0.00  0.00    +0.000 C 
ATOM     23  C   UNL     1       1.201   9.557  20.275  0.00  0.00    +0.000 C 
BRANCH  21  24
ATOM     24  C   UNL     1      -1.648  11.801  20.897  0.00  0.00    +0.000 A 
ATOM     25  C   UNL     1      -2.683  12.576  20.349  0.00  0.00    +0.000 A 
ATOM     26  C   UNL     1      -3.585  13.269  21.168  0.00  0.00    +0.000 A 
ATOM     27  C   UNL     1      -3.472  13.197  22.551  0.00  0.00    +0.000 A 
ATOM     28  C   UNL     1      -2.461  12.431  23.120  0.00  0.00    +0.000 A 
ATOM     29  C   UNL     1      -1.577  11.742  22.299  0.00  0.00    +0.000 A 
ENDBRANCH  21  24
ENDBRANCH  17  18
ENDBRANCH  16  17
ENDBRANCH   1  16
TORSDOF 7
ENDMDL
MODEL 7
REMARK VINA RESULT:      -7.8      2.681     10.303
REMARK  Name = 
REMARK  8 active torsions:
REMARK  status: ('A' for Active; 'I' for Inactive)
REMARK    1  A    between atoms: C_1  and  C_2
REMARK    2  A    between atoms: C_2  and  C_3
REMARK    3  A    between atoms: C_3  and  C_4
REMARK    4  A    between atoms: C_4  and  C_5
REMARK    5  A    between atoms: C_5  and  C_6
REMARK    6  A    between atoms: C_6  and  C_7
REMARK    7  A    between atoms: C_7  and  N_8
REMARK    8  A    between atoms: N_11  and  C_12
REMARK                            x       y       z     vdW  Elec       q    Type
REMARK                         _______ _______ _______ _____ _____    ______ ____
ROOT
ATOM      1  C   UNL     1       7.703   7.783  17.315  0.00  0.00    +0.000 C 
ENDROOT
BRANCH   1   2
ATOM      2  C   UNL     1       6.460   7.092  17.931  0.00  0.00    +0.000 C 
BRANCH   2   3
ATOM      3  C   UNL     1       5.976   5.790  17.257  0.00  0.00    +0.000 C 
ATOM      4  C   UNL     1       6.848   4.611  17.751  0.00  0.00    +0.000 C 
ATOM      5  O   UNL     1       8.034   4.433  17.538  0.00  0.00    +0.000 OA
ATOM      6  N   UNL     1       6.031   3.801  18.530  0.00  0.00    +0.000 N 
ATOM      7  C   UNL     1       4.726   4.268  18.561  0.00  0.00    +0.000 A 
ATOM      8  C   UNL     1       3.663   3.748  19.261  0.00  0.00    +0.000 A 
ATOM      9  C   UNL     1       2.442   4.421  19.164  0.00  0.00    +0.000 A 
ATOM     10  C   UNL     1       2.313   5.581  18.376  0.00  0.00    +0.000 A 
ATOM     11  C   UNL     1       3.405   6.092  17.676  0.00  0.00    +0.000 A 
ATOM     12  C   UNL     1       4.613   5.422  17.786  0.00  0.00    +0.000 A 
ATOM     13  H   UNL     1       6.380   2.987  19.013  0.00  0.00    +0.000 HD
BRANCH   3  15
ATOM     14  C   UNL     1       5.603   4.668  14.947  0.00  0.00    +0.000 C 
ATOM     15  C   UNL     1       6.028   5.919  15.717  0.00  0.00    +0.000 C 
ENDBRANCH   3  15
ENDBRANCH   2   3
ENDBRANCH   1   2
BRANCH   1  16
ATOM     16  C   UNL     1       8.434   8.514  18.449  0.00  0.00    +0.000 C 
BRANCH  16  17
ATOM     17  C   UNL     1       8.620  10.029  18.287  0.00  0.00    +0.000 C 
BRANCH  17  18
ATOM     18  N   UNL     1       9.831  10.564  18.913  0.00  0.00    +0.000 NA
ATOM     19  C   UNL     1      10.695  11.321  17.984  0.00  0.00    +0.000 C 
ATOM     20  C   UNL     1      10.170  12.699  17.538  0.00  0.00    +0.000 C 
ATOM     21  N   UNL     1       9.758  13.514  18.689  0.00  0.00    +0.000 N 
ATOM     22  C   UNL     1       8.980  12.865  19.751  0.00  0.00    +0.000 C 
ATOM     23  C   UNL     1       9.516  11.443  20.065  0.00  0.00    +0.000 C 
BRANCH  21  24
ATOM     24  C   UNL     1      10.126  14.841  18.791  0.00  0.00    +0.000 A 
ATOM     25  C   UNL     1       9.424  15.865  18.134  0.00  0.00    +0.000 A 
ATOM     26  C   UNL     1       9.812  17.206  18.257  0.00  0.00    +0.000 A 
ATOM     27  C   UNL     1      10.905  17.550  19.043  0.00  0.00    +0.000 A 
ATOM     28  C   UNL     1      11.613  16.556  19.710  0.00  0.00    +0.000 A 
ATOM     29  C   UNL     1      11.215  15.230  19.587  0.00  0.00    +0.000 A 
ENDBRANCH  21  24
ENDBRANCH  17  18
ENDBRANCH  16  17
ENDBRANCH   1  16
TORSDOF 7
ENDMDL
MODEL 8
REMARK VINA RESULT:      -7.8      2.510     10.014
REMARK  Name = 
REMARK  8 active torsions:
REMARK  status: ('A' for Active; 'I' for Inactive)
REMARK    1  A    between atoms: C_1  and  C_2
REMARK    2  A    between atoms: C_2  and  C_3
REMARK    3  A    between atoms: C_3  and  C_4
REMARK    4  A    between atoms: C_4  and  C_5
REMARK    5  A    between atoms: C_5  and  C_6
REMARK    6  A    between atoms: C_6  and  C_7
REMARK    7  A    between atoms: C_7  and  N_8
REMARK    8  A    between atoms: N_11  and  C_12
REMARK                            x       y       z     vdW  Elec       q    Type
REMARK                         _______ _______ _______ _____ _____    ______ ____
ROOT
ATOM      1  C   UNL     1       7.658   8.467  17.559  0.00  0.00    +0.000 C 
ENDROOT
BRANCH   1   2
ATOM      2  C   UNL     1       7.672   7.034  18.150  0.00  0.00    +0.000 C 
BRANCH   2   3
ATOM      3  C   UNL     1       6.916   5.943  17.362  0.00  0.00    +0.000 C 
ATOM      4  C   UNL     1       7.336   4.552  17.895  0.00  0.00    +0.000 C 
ATOM      5  O   UNL     1       8.436   4.034  17.811  0.00  0.00    +0.000 OA
ATOM      6  N   UNL     1       6.229   4.011  18.535  0.00  0.00    +0.000 N 
ATOM      7  C   UNL     1       5.123   4.843  18.440  0.00  0.00    +0.000 A 
ATOM      8  C   UNL     1       3.877   4.653  18.987  0.00  0.00    +0.000 A 
ATOM      9  C   UNL     1       2.928   5.658  18.784  0.00  0.00    +0.000 A 
ATOM     10  C   UNL     1       3.242   6.814  18.044  0.00  0.00    +0.000 A 
ATOM     11  C   UNL     1       4.514   6.987  17.499  0.00  0.00    +0.000 A 
ATOM     12  C   UNL     1       5.450   5.988  17.714  0.00  0.00    +0.000 A 
ATOM     13  H   UNL     1       6.262   3.124  19.015  0.00  0.00    +0.000 HD
BRANCH   3  15
ATOM     14  C   UNL     1       6.528   5.005  14.975  0.00  0.00    +0.000 C 
ATOM     15  C   UNL     1       7.193   6.070  15.847  0.00  0.00    +0.000 C 
ENDBRANCH   3  15
ENDBRANCH   2   3
ENDBRANCH   1   2
BRANCH   1  16
ATOM     16  C   UNL     1       8.754   9.270  18.269  0.00  0.00    +0.000 C 
BRANCH  16  17
ATOM     17  C   UNL     1       8.709  10.796  18.106  0.00  0.00    +0.000 C 
BRANCH  17  18
ATOM     18  N   UNL     1       9.984  11.472  18.349  0.00  0.00    +0.000 NA
ATOM     19  C   UNL     1       9.934  12.932  18.123  0.00  0.00    +0.000 C 
ATOM     20  C   UNL     1       9.159  13.756  19.167  0.00  0.00    +0.000 C 
ATOM     21  N   UNL     1       9.587  13.430  20.534  0.00  0.00    +0.000 N 
ATOM     22  C   UNL     1       9.783  12.015  20.876  0.00  0.00    +0.000 C 
ATOM     23  C   UNL     1      10.480  11.240  19.727  0.00  0.00    +0.000 C 
BRANCH  21  24
ATOM     24  C   UNL     1       9.839  14.423  21.459  0.00  0.00    +0.000 A 
ATOM     25  C   UNL     1      10.763  15.452  21.220  0.00  0.00    +0.000 A 
ATOM     26  C   UNL     1      10.999  16.453  22.172  0.00  0.00    +0.000 A 
ATOM     27  C   UNL     1      10.311  16.448  23.379  0.00  0.00    +0.000 A 
ATOM     28  C   UNL     1       9.384  15.444  23.638  0.00  0.00    +0.000 A 
ATOM     29  C   UNL     1       9.153  14.461  22.684  0.00  0.00    +0.000 A 
ENDBRANCH  21  24
ENDBRANCH  17  18
ENDBRANCH  16  17
ENDBRANCH   1  16
TORSDOF 7
ENDMDL
MODEL 9
REMARK VINA RESULT:      -7.8      2.726     10.141
REMARK  Name = 
REMARK  8 active torsions:
REMARK  status: ('A' for Active; 'I' for Inactive)
REMARK    1  A    between atoms: C_1  and  C_2
REMARK    2  A    between atoms: C_2  and  C_3
REMARK    3  A    between atoms: C_3  and  C_4
REMARK    4  A    between atoms: C_4  and  C_5
REMARK    5  A    between atoms: C_5  and  C_6
REMARK    6  A    between atoms: C_6  and  C_7
REMARK    7  A    between atoms: C_7  and  N_8
REMARK    8  A    between atoms: N_11  and  C_12
REMARK                            x       y       z     vdW  Elec       q    Type
REMARK                         _______ _______ _______ _____ _____    ______ ____
ROOT
ATOM      1  C   UNL     1       7.536   8.488  17.566  0.00  0.00    +0.000 C 
ENDROOT
BRANCH   1   2
ATOM      2  C   UNL     1       7.585   7.057  18.157  0.00  0.00    +0.000 C 
BRANCH   2   3
ATOM      3  C   UNL     1       6.851   5.948  17.372  0.00  0.00    +0.000 C 
ATOM      4  C   UNL     1       7.306   4.568  17.903  0.00  0.00    +0.000 C 
ATOM      5  O   UNL     1       8.416   4.076  17.816  0.00  0.00    +0.000 OA
ATOM      6  N   UNL     1       6.213   4.001  18.547  0.00  0.00    +0.000 N 
ATOM      7  C   UNL     1       5.088   4.807  18.455  0.00  0.00    +0.000 A 
ATOM      8  C   UNL     1       3.848   4.588  19.006  0.00  0.00    +0.000 A 
ATOM      9  C   UNL     1       2.876   5.571  18.805  0.00  0.00    +0.000 A 
ATOM     10  C   UNL     1       3.161   6.734  18.064  0.00  0.00    +0.000 A 
ATOM     11  C   UNL     1       4.427   6.937  17.515  0.00  0.00    +0.000 A 
ATOM     12  C   UNL     1       5.386   5.960  17.728  0.00  0.00    +0.000 A 
ATOM     13  H   UNL     1       6.268   3.115  19.027  0.00  0.00    +0.000 HD
BRANCH   3  15
ATOM     14  C   UNL     1       6.482   4.999  14.986  0.00  0.00    +0.000 C 
ATOM     15  C   UNL     1       7.121   6.082  15.856  0.00  0.00    +0.000 C 
ENDBRANCH   3  15
ENDBRANCH   2   3
ENDBRANCH   1   2
BRANCH   1  16
ATOM     16  C   UNL     1       8.825   9.206  17.985  0.00  0.00    +0.000 C 
BRANCH  16  17
ATOM     17  C   UNL     1       8.678  10.370  18.975  0.00  0.00    +0.000 C 
BRANCH  17  18
ATOM     18  N   UNL     1       9.931  11.056  19.298  0.00  0.00    +0.000 NA
ATOM     19  C   UNL     1      10.625  11.610  18.116  0.00  0.00    +0.000 C 
ATOM     20  C   UNL     1       9.976  12.843  17.462  0.00  0.00    +0.000 C 
ATOM     21  N   UNL     1       9.676  13.883  18.457  0.00  0.00    +0.000 N 
ATOM     22  C   UNL     1       9.078  13.465  19.731  0.00  0.00    +0.000 C 
ATOM     23  C   UNL     1       9.724  12.160  20.266  0.00  0.00    +0.000 C 
BRANCH  21  24
ATOM     24  C   UNL     1       9.984  15.207  18.220  0.00  0.00    +0.000 A 
ATOM     25  C   UNL     1      11.014  15.592  17.345  0.00  0.00    +0.000 A 
ATOM     26  C   UNL     1      11.305  16.943  17.115  0.00  0.00    +0.000 A 
ATOM     27  C   UNL     1      10.570  17.936  17.751  0.00  0.00    +0.000 A 
ATOM     28  C   UNL     1       9.540  17.582  18.616  0.00  0.00    +0.000 A 
ATOM     29  C   UNL     1       9.255  16.240  18.831  0.00  0.00    +0.000 A 
ENDBRANCH  21  24
ENDBRANCH  17  18
ENDBRANCH  16  17
ENDBRANCH   1  16
TORSDOF 7
ENDMDL
