MODEL 1
REMARK VINA RESULT:      -7.5      0.000      0.000
REMARK  Name = 
REMARK  13 active torsions:
REMARK  status: ('A' for Active; 'I' for Inactive)
REMARK    1  A    between atoms: C_1  and  C_2
REMARK    2  A    between atoms: C_2  and  C_3
REMARK    3  A    between atoms: C_3  and  C_4
REMARK    4  A    between atoms: C_3  and  C_28
REMARK    5  A    between atoms: C_4  and  C_5
REMARK    6  A    between atoms: C_5  and  C_6
REMARK    7  A    between atoms: C_6  and  C_7
REMARK    8  A    between atoms: C_6  and  C_8
REMARK    9  A    between atoms: C_17  and  O_18
REMARK   10  A    between atoms: C_21  and  C_22
REMARK   11  A    between atoms: C_26  and  C_27
REMARK   12  A    between atoms: C_28  and  C_29
REMARK   13  A    between atoms: C_28  and  C_30
REMARK                            x       y       z     vdW  Elec       q    Type
REMARK                         _______ _______ _______ _____ _____    ______ ____
ROOT
ATOM      1  C   UNL     1       0.823   8.917  20.091  0.00  0.00    +0.000 C 
ATOM      2  C   UNL     1       1.185   8.598  21.580  0.00  0.00    +0.000 C 
ATOM      3  C   UNL     1       0.459   9.623  22.469  0.00  0.00    +0.000 C 
ATOM      4  C   UNL     1      -0.585  10.234  21.547  0.00  0.00    +0.000 C 
ATOM      5  C   UNL     1      -1.221  11.582  21.932  0.00  0.00    +0.000 C 
ATOM      6  C   UNL     1      -1.892  11.526  23.309  0.00  0.00    +0.000 C 
ATOM      7  C   UNL     1      -2.739  12.718  23.579  0.00  0.00    +0.000 C 
ATOM      8  C   UNL     1      -3.159  13.612  22.643  0.00  0.00    +0.000 C 
ATOM      9  C   UNL     1      -3.997  14.791  23.058  0.00  0.00    +0.000 C 
ATOM     10  C   UNL     1      -5.278  14.895  22.227  0.00  0.00    +0.000 C 
ATOM     11  C   UNL     1      -4.976  14.876  20.731  0.00  0.00    +0.000 C 
ATOM     12  C   UNL     1      -4.159  13.644  20.339  0.00  0.00    +0.000 C 
ATOM     13  C   UNL     1      -2.839  13.467  21.147  0.00  0.00    +0.000 C 
ATOM     14  C   UNL     1      -1.843  14.576  20.746  0.00  0.00    +0.000 C 
ATOM     15  C   UNL     1      -2.262  12.023  20.851  0.00  0.00    +0.000 C 
ATOM     16  C   UNL     1      -1.767  11.820  19.391  0.00  0.00    +0.000 C 
ATOM     17  C   UNL     1      -1.067  10.468  19.196  0.00  0.00    +0.000 C 
ATOM     18  C   UNL     1       0.125  10.306  20.167  0.00  0.00    +0.000 C 
ATOM     19  C   UNL     1       1.143  11.483  20.150  0.00  0.00    +0.000 C 
ENDROOT
BRANCH   1  20
ATOM     20  C   UNL     1       2.022   8.619  19.092  0.00  0.00    +0.000 C 
ATOM     21  C   UNL     1       1.655   8.906  17.626  0.00  0.00    +0.000 C 
BRANCH  20  22
ATOM     22  C   UNL     1       2.432   7.146  19.246  0.00  0.00    +0.000 C 
BRANCH  22  23
ATOM     23  C   UNL     1       2.248   6.066  18.161  0.00  0.00    +0.000 C 
BRANCH  23  24
ATOM     24  C   UNL     1       2.488   4.619  18.719  0.00  0.00    +0.000 C 
BRANCH  24  25
ATOM     25  C   UNL     1       1.240   3.889  19.364  0.00  0.00    +0.000 C 
ATOM     26  C   UNL     1       0.907   2.516  18.776  0.00  0.00    +0.000 C 
ATOM     27  C   UNL     1       1.334   3.664  20.881  0.00  0.00    +0.000 C 
ENDBRANCH  24  25
BRANCH  24  29
ATOM     28  C   UNL     1       4.878   3.794  19.125  0.00  0.00    +0.000 C 
ATOM     29  C   UNL     1       3.729   4.624  19.667  0.00  0.00    +0.000 C 
ENDBRANCH  24  29
ENDBRANCH  23  24
ENDBRANCH  22  23
ENDBRANCH  20  22
ENDBRANCH   1  20
BRANCH  10  30
ATOM     30  O   UNL     1      -5.974  16.096  22.552  0.00  0.00    +0.000 OA
ATOM     31  H   UNL     1      -5.322  16.741  22.875  0.00  0.00    +0.000 HD
ENDBRANCH  10  30
TORSDOF 7
ENDMDL
MODEL 2
REMARK VINA RESULT:      -7.4      0.675      1.148
REMARK  Name = 
REMARK  13 active torsions:
REMARK  status: ('A' for Active; 'I' for Inactive)
REMARK    1  A    between atoms: C_1  and  C_2
REMARK    2  A    between atoms: C_2  and  C_3
REMARK    3  A    between atoms: C_3  and  C_4
REMARK    4  A    between atoms: C_3  and  C_28
REMARK    5  A    between atoms: C_4  and  C_5
REMARK    6  A    between atoms: C_5  and  C_6
REMARK    7  A    between atoms: C_6  and  C_7
REMARK    8  A    between atoms: C_6  and  C_8
REMARK    9  A    between atoms: C_17  and  O_18
REMARK   10  A    between atoms: C_21  and  C_22
REMARK   11  A    between atoms: C_26  and  C_27
REMARK   12  A    between atoms: C_28  and  C_29
REMARK   13  A    between atoms: C_28  and  C_30
REMARK                            x       y       z     vdW  Elec       q    Type
REMARK                         _______ _______ _______ _____ _____    ______ ____
ROOT
ATOM      1  C   UNL     1       0.969   8.762  19.970  0.00  0.00    +0.000 C 
ATOM      2  C   UNL     1       1.367   8.447  21.451  0.00  0.00    +0.000 C 
ATOM      3  C   UNL     1       0.641   9.459  22.356  0.00  0.00    +0.000 C 
ATOM      4  C   UNL     1      -0.431  10.052  21.455  0.00  0.00    +0.000 C 
ATOM      5  C   UNL     1      -1.083  11.389  21.854  0.00  0.00    +0.000 C 
ATOM      6  C   UNL     1      -1.725  11.319  23.244  0.00  0.00    +0.000 C 
ATOM      7  C   UNL     1      -2.587  12.496  23.533  0.00  0.00    +0.000 C 
ATOM      8  C   UNL     1      -3.041  13.384  22.606  0.00  0.00    +0.000 C 
ATOM      9  C   UNL     1      -3.891  14.549  23.039  0.00  0.00    +0.000 C 
ATOM     10  C   UNL     1      -5.190  14.631  22.233  0.00  0.00    +0.000 C 
ATOM     11  C   UNL     1      -4.918  14.619  20.732  0.00  0.00    +0.000 C 
ATOM     12  C   UNL     1      -4.087  13.401  20.322  0.00  0.00    +0.000 C 
ATOM     13  C   UNL     1      -2.748  13.246  21.104  0.00  0.00    +0.000 C 
ATOM     14  C   UNL     1      -1.779  14.373  20.685  0.00  0.00    +0.000 C 
ATOM     15  C   UNL     1      -2.152  11.813  20.794  0.00  0.00    +0.000 C 
ATOM     16  C   UNL     1      -1.684  11.620  19.324  0.00  0.00    +0.000 C 
ATOM     17  C   UNL     1      -0.964  10.280  19.114  0.00  0.00    +0.000 C 
ATOM     18  C   UNL     1       0.249  10.138  20.061  0.00  0.00    +0.000 C 
ATOM     19  C   UNL     1       1.246  11.332  20.025  0.00  0.00    +0.000 C 
ENDROOT
BRANCH   1  20
ATOM     20  C   UNL     1       2.154   8.485  18.946  0.00  0.00    +0.000 C 
ATOM     21  C   UNL     1       1.999   9.275  17.636  0.00  0.00    +0.000 C 
BRANCH  20  22
ATOM     22  C   UNL     1       2.197   6.979  18.644  0.00  0.00    +0.000 C 
BRANCH  22  23
ATOM     23  C   UNL     1       3.211   5.991  19.254  0.00  0.00    +0.000 C 
BRANCH  23  24
ATOM     24  C   UNL     1       2.589   4.568  19.482  0.00  0.00    +0.000 C 
BRANCH  24  25
ATOM     25  C   UNL     1       1.836   3.916  18.252  0.00  0.00    +0.000 C 
ATOM     26  C   UNL     1       2.735   3.435  17.112  0.00  0.00    +0.000 C 
ATOM     27  C   UNL     1       0.950   2.709  18.601  0.00  0.00    +0.000 C 
ENDBRANCH  24  25
BRANCH  24  29
ATOM     28  C   UNL     1       2.112   3.498  21.758  0.00  0.00    +0.000 C 
ATOM     29  C   UNL     1       1.714   4.583  20.776  0.00  0.00    +0.000 C 
ENDBRANCH  24  29
ENDBRANCH  23  24
ENDBRANCH  22  23
ENDBRANCH  20  22
ENDBRANCH   1  20
BRANCH  10  30
ATOM     30  O   UNL     1      -5.900  15.819  22.574  0.00  0.00    +0.000 OA
ATOM     31  H   UNL     1      -6.114  16.286  21.747  0.00  0.00    +0.000 HD
ENDBRANCH  10  30
TORSDOF 7
ENDMDL
MODEL 3
REMARK VINA RESULT:      -7.3      1.175      1.784
REMARK  Name = 
REMARK  13 active torsions:
REMARK  status: ('A' for Active; 'I' for Inactive)
REMARK    1  A    between atoms: C_1  and  C_2
REMARK    2  A    between atoms: C_2  and  C_3
REMARK    3  A    between atoms: C_3  and  C_4
REMARK    4  A    between atoms: C_3  and  C_28
REMARK    5  A    between atoms: C_4  and  C_5
REMARK    6  A    between atoms: C_5  and  C_6
REMARK    7  A    between atoms: C_6  and  C_7
REMARK    8  A    between atoms: C_6  and  C_8
REMARK    9  A    between atoms: C_17  and  O_18
REMARK   10  A    between atoms: C_21  and  C_22
REMARK   11  A    between atoms: C_26  and  C_27
REMARK   12  A    between atoms: C_28  and  C_29
REMARK   13  A    between atoms: C_28  and  C_30
REMARK                            x       y       z     vdW  Elec       q    Type
REMARK                         _______ _______ _______ _____ _____    ______ ____
ROOT
ATOM      1  C   UNL     1       0.751   8.993  20.126  0.00  0.00    +0.000 C 
ATOM      2  C   UNL     1       1.076   8.653  21.619  0.00  0.00    +0.000 C 
ATOM      3  C   UNL     1       0.346   9.679  22.503  0.00  0.00    +0.000 C 
ATOM      4  C   UNL     1      -0.669  10.314  21.564  0.00  0.00    +0.000 C 
ATOM      5  C   UNL     1      -1.295  11.667  21.950  0.00  0.00    +0.000 C 
ATOM      6  C   UNL     1      -1.996  11.606  23.311  0.00  0.00    +0.000 C 
ATOM      7  C   UNL     1      -2.832  12.807  23.575  0.00  0.00    +0.000 C 
ATOM      8  C   UNL     1      -3.219  13.717  22.640  0.00  0.00    +0.000 C 
ATOM      9  C   UNL     1      -4.049  14.904  23.049  0.00  0.00    +0.000 C 
ATOM     10  C   UNL     1      -5.310  15.035  22.191  0.00  0.00    +0.000 C 
ATOM     11  C   UNL     1      -4.976  15.027  20.702  0.00  0.00    +0.000 C 
ATOM     12  C   UNL     1      -4.168  13.787  20.315  0.00  0.00    +0.000 C 
ATOM     13  C   UNL     1      -2.868  13.583  21.150  0.00  0.00    +0.000 C 
ATOM     14  C   UNL     1      -1.848  14.682  20.782  0.00  0.00    +0.000 C 
ATOM     15  C   UNL     1      -2.305  12.134  20.851  0.00  0.00    +0.000 C 
ATOM     16  C   UNL     1      -1.781  11.939  19.400  0.00  0.00    +0.000 C 
ATOM     17  C   UNL     1      -1.096  10.580  19.206  0.00  0.00    +0.000 C 
ATOM     18  C   UNL     1       0.072  10.390  20.202  0.00  0.00    +0.000 C 
ATOM     19  C   UNL     1       1.106  11.553  20.219  0.00  0.00    +0.000 C 
ENDROOT
BRANCH   1  20
ATOM     20  C   UNL     1       1.969   8.687  19.150  0.00  0.00    +0.000 C 
ATOM     21  C   UNL     1       1.604   8.893  17.669  0.00  0.00    +0.000 C 
BRANCH  20  22
ATOM     22  C   UNL     1       2.426   7.238  19.377  0.00  0.00    +0.000 C 
BRANCH  22  23
ATOM     23  C   UNL     1       2.490   6.157  18.279  0.00  0.00    +0.000 C 
BRANCH  23  24
ATOM     24  C   UNL     1       3.964   5.717  17.966  0.00  0.00    +0.000 C 
BRANCH  24  25
ATOM     25  C   UNL     1       4.802   5.130  19.172  0.00  0.00    +0.000 C 
ATOM     26  C   UNL     1       4.646   3.626  19.409  0.00  0.00    +0.000 C 
ATOM     27  C   UNL     1       6.318   5.367  19.084  0.00  0.00    +0.000 C 
ENDBRANCH  24  25
BRANCH  24  29
ATOM     28  C   UNL     1       5.127   6.501  15.824  0.00  0.00    +0.000 C 
ATOM     29  C   UNL     1       4.709   6.878  17.232  0.00  0.00    +0.000 C 
ENDBRANCH  24  29
ENDBRANCH  23  24
ENDBRANCH  22  23
ENDBRANCH  20  22
ENDBRANCH   1  20
BRANCH  10  30
ATOM     30  O   UNL     1      -5.997  16.242  22.513  0.00  0.00    +0.000 OA
ATOM     31  H   UNL     1      -6.486  16.527  21.722  0.00  0.00    +0.000 HD
ENDBRANCH  10  30
TORSDOF 7
ENDMDL
MODEL 4
REMARK VINA RESULT:      -7.3      3.878      9.363
REMARK  Name = 
REMARK  13 active torsions:
REMARK  status: ('A' for Active; 'I' for Inactive)
REMARK    1  A    between atoms: C_1  and  C_2
REMARK    2  A    between atoms: C_2  and  C_3
REMARK    3  A    between atoms: C_3  and  C_4
REMARK    4  A    between atoms: C_3  and  C_28
REMARK    5  A    between atoms: C_4  and  C_5
REMARK    6  A    between atoms: C_5  and  C_6
REMARK    7  A    between atoms: C_6  and  C_7
REMARK    8  A    between atoms: C_6  and  C_8
REMARK    9  A    between atoms: C_17  and  O_18
REMARK   10  A    between atoms: C_21  and  C_22
REMARK   11  A    between atoms: C_26  and  C_27
REMARK   12  A    between atoms: C_28  and  C_29
REMARK   13  A    between atoms: C_28  and  C_30
REMARK                            x       y       z     vdW  Elec       q    Type
REMARK                         _______ _______ _______ _____ _____    ______ ____
ROOT
ATOM      1  C   UNL     1       1.469  10.573  19.405  0.00  0.00    +0.000 C 
ATOM      2  C   UNL     1       0.735  10.385  20.775  0.00  0.00    +0.000 C 
ATOM      3  C   UNL     1       0.671   8.875  21.069  0.00  0.00    +0.000 C 
ATOM      4  C   UNL     1       1.682   8.272  20.106  0.00  0.00    +0.000 C 
ATOM      5  C   UNL     1       1.607   6.766  19.794  0.00  0.00    +0.000 C 
ATOM      6  C   UNL     1       1.708   5.913  21.063  0.00  0.00    +0.000 C 
ATOM      7  C   UNL     1       1.911   4.470  20.766  0.00  0.00    +0.000 C 
ATOM      8  C   UNL     1       2.288   3.962  19.560  0.00  0.00    +0.000 C 
ATOM      9  C   UNL     1       2.436   2.474  19.390  0.00  0.00    +0.000 C 
ATOM     10  C   UNL     1       3.801   2.105  18.803  0.00  0.00    +0.000 C 
ATOM     11  C   UNL     1       4.088   2.883  17.522  0.00  0.00    +0.000 C 
ATOM     12  C   UNL     1       3.969   4.392  17.743  0.00  0.00    +0.000 C 
ATOM     13  C   UNL     1       2.604   4.846  18.344  0.00  0.00    +0.000 C 
ATOM     14  C   UNL     1       1.493   4.650  17.290  0.00  0.00    +0.000 C 
ATOM     15  C   UNL     1       2.734   6.360  18.788  0.00  0.00    +0.000 C 
ATOM     16  C   UNL     1       2.907   7.359  17.610  0.00  0.00    +0.000 C 
ATOM     17  C   UNL     1       2.861   8.821  18.075  0.00  0.00    +0.000 C 
ATOM     18  C   UNL     1       1.543   9.133  18.821  0.00  0.00    +0.000 C 
ATOM     19  C   UNL     1       0.250   8.739  18.050  0.00  0.00    +0.000 C 
ENDROOT
BRANCH   1  20
ATOM     20  C   UNL     1       0.904  11.804  18.572  0.00  0.00    +0.000 C 
ATOM     21  C   UNL     1       2.008  12.791  18.155  0.00  0.00    +0.000 C 
BRANCH  20  22
ATOM     22  C   UNL     1      -0.148  12.530  19.425  0.00  0.00    +0.000 C 
BRANCH  22  23
ATOM     23  C   UNL     1      -1.577  12.868  18.955  0.00  0.00    +0.000 C 
BRANCH  23  24
ATOM     24  C   UNL     1      -2.526  11.619  18.998  0.00  0.00    +0.000 C 
BRANCH  24  25
ATOM     25  C   UNL     1      -2.444  10.620  17.773  0.00  0.00    +0.000 C 
ATOM     26  C   UNL     1      -3.541   9.556  17.718  0.00  0.00    +0.000 C 
ATOM     27  C   UNL     1      -2.464  11.289  16.389  0.00  0.00    +0.000 C 
ENDBRANCH  24  25
BRANCH  24  29
ATOM     28  C   UNL     1      -4.052  13.182  20.333  0.00  0.00    +0.000 C 
ATOM     29  C   UNL     1      -3.988  12.085  19.288  0.00  0.00    +0.000 C 
ENDBRANCH  24  29
ENDBRANCH  23  24
ENDBRANCH  22  23
ENDBRANCH  20  22
ENDBRANCH   1  20
BRANCH  10  30
ATOM     30  O   UNL     1       3.852   0.708  18.527  0.00  0.00    +0.000 OA
ATOM     31  H   UNL     1       3.306   0.252  19.191  0.00  0.00    +0.000 HD
ENDBRANCH  10  30
TORSDOF 7
ENDMDL
MODEL 5
REMARK VINA RESULT:      -7.2      1.174      2.060
REMARK  Name = 
REMARK  13 active torsions:
REMARK  status: ('A' for Active; 'I' for Inactive)
REMARK    1  A    between atoms: C_1  and  C_2
REMARK    2  A    between atoms: C_2  and  C_3
REMARK    3  A    between atoms: C_3  and  C_4
REMARK    4  A    between atoms: C_3  and  C_28
REMARK    5  A    between atoms: C_4  and  C_5
REMARK    6  A    between atoms: C_5  and  C_6
REMARK    7  A    between atoms: C_6  and  C_7
REMARK    8  A    between atoms: C_6  and  C_8
REMARK    9  A    between atoms: C_17  and  O_18
REMARK   10  A    between atoms: C_21  and  C_22
REMARK   11  A    between atoms: C_26  and  C_27
REMARK   12  A    between atoms: C_28  and  C_29
REMARK   13  A    between atoms: C_28  and  C_30
REMARK                            x       y       z     vdW  Elec       q    Type
REMARK                         _______ _______ _______ _____ _____    ______ ____
ROOT
ATOM      1  C   UNL     1       0.838   8.878  20.127  0.00  0.00    +0.000 C 
ATOM      2  C   UNL     1       1.206   8.592  21.621  0.00  0.00    +0.000 C 
ATOM      3  C   UNL     1       0.484   9.638  22.490  0.00  0.00    +0.000 C 
ATOM      4  C   UNL     1      -0.563  10.229  21.557  0.00  0.00    +0.000 C 
ATOM      5  C   UNL     1      -1.197  11.586  21.914  0.00  0.00    +0.000 C 
ATOM      6  C   UNL     1      -1.863  11.561  23.293  0.00  0.00    +0.000 C 
ATOM      7  C   UNL     1      -2.709  12.759  23.540  0.00  0.00    +0.000 C 
ATOM      8  C   UNL     1      -3.131  13.633  22.585  0.00  0.00    +0.000 C 
ATOM      9  C   UNL     1      -3.967  14.822  22.976  0.00  0.00    +0.000 C 
ATOM     10  C   UNL     1      -5.250  14.908  22.147  0.00  0.00    +0.000 C 
ATOM     11  C   UNL     1      -4.954  14.854  20.650  0.00  0.00    +0.000 C 
ATOM     12  C   UNL     1      -4.139  13.613  20.284  0.00  0.00    +0.000 C 
ATOM     13  C   UNL     1      -2.816  13.453  21.092  0.00  0.00    +0.000 C 
ATOM     14  C   UNL     1      -1.820  14.553  20.662  0.00  0.00    +0.000 C 
ATOM     15  C   UNL     1      -2.241  12.003  20.826  0.00  0.00    +0.000 C 
ATOM     16  C   UNL     1      -1.752  11.766  19.369  0.00  0.00    +0.000 C 
ATOM     17  C   UNL     1      -1.053  10.410  19.203  0.00  0.00    +0.000 C 
ATOM     18  C   UNL     1       0.142  10.268  20.174  0.00  0.00    +0.000 C 
ATOM     19  C   UNL     1       1.161  11.444  20.126  0.00  0.00    +0.000 C 
ENDROOT
BRANCH   1  20
ATOM     20  C   UNL     1       2.035   8.556  19.130  0.00  0.00    +0.000 C 
ATOM     21  C   UNL     1       1.647   8.765  17.656  0.00  0.00    +0.000 C 
BRANCH  20  22
ATOM     22  C   UNL     1       2.477   7.101  19.351  0.00  0.00    +0.000 C 
BRANCH  22  23
ATOM     23  C   UNL     1       2.435   5.999  18.274  0.00  0.00    +0.000 C 
BRANCH  23  24
ATOM     24  C   UNL     1       3.852   5.384  17.999  0.00  0.00    +0.000 C 
BRANCH  24  25
ATOM     25  C   UNL     1       4.975   6.381  17.500  0.00  0.00    +0.000 C 
ATOM     26  C   UNL     1       6.386   6.093  18.017  0.00  0.00    +0.000 C 
ATOM     27  C   UNL     1       5.120   6.483  15.974  0.00  0.00    +0.000 C 
ENDBRANCH  24  25
BRANCH  24  29
ATOM     28  C   UNL     1       3.784   2.830  17.837  0.00  0.00    +0.000 C 
ATOM     29  C   UNL     1       3.709   4.137  17.071  0.00  0.00    +0.000 C 
ENDBRANCH  24  29
ENDBRANCH  23  24
ENDBRANCH  22  23
ENDBRANCH  20  22
ENDBRANCH   1  20
BRANCH  10  30
ATOM     30  O   UNL     1      -5.945  16.116  22.447  0.00  0.00    +0.000 OA
ATOM     31  H   UNL     1      -5.740  16.760  21.747  0.00  0.00    +0.000 HD
ENDBRANCH  10  30
TORSDOF 7
ENDMDL
MODEL 6
REMARK VINA RESULT:      -7.2      4.015      9.330
REMARK  Name = 
REMARK  13 active torsions:
REMARK  status: ('A' for Active; 'I' for Inactive)
REMARK    1  A    between atoms: C_1  and  C_2
REMARK    2  A    between atoms: C_2  and  C_3
REMARK    3  A    between atoms: C_3  and  C_4
REMARK    4  A    between atoms: C_3  and  C_28
REMARK    5  A    between atoms: C_4  and  C_5
REMARK    6  A    between atoms: C_5  and  C_6
REMARK    7  A    between atoms: C_6  and  C_7
REMARK    8  A    between atoms: C_6  and  C_8
REMARK    9  A    between atoms: C_17  and  O_18
REMARK   10  A    between atoms: C_21  and  C_22
REMARK   11  A    between atoms: C_26  and  C_27
REMARK   12  A    between atoms: C_28  and  C_29
REMARK   13  A    between atoms: C_28  and  C_30
REMARK                            x       y       z     vdW  Elec       q    Type
REMARK                         _______ _______ _______ _____ _____    ______ ____
ROOT
ATOM      1  C   UNL     1       1.370  10.604  19.415  0.00  0.00    +0.000 C 
ATOM      2  C   UNL     1       0.690  10.412  20.812  0.00  0.00    +0.000 C 
ATOM      3  C   UNL     1       0.661   8.904  21.116  0.00  0.00    +0.000 C 
ATOM      4  C   UNL     1       1.647   8.311  20.121  0.00  0.00    +0.000 C 
ATOM      5  C   UNL     1       1.586   6.802  19.820  0.00  0.00    +0.000 C 
ATOM      6  C   UNL     1       1.747   5.959  21.090  0.00  0.00    +0.000 C 
ATOM      7  C   UNL     1       1.963   4.518  20.793  0.00  0.00    +0.000 C 
ATOM      8  C   UNL     1       2.305   4.008  19.578  0.00  0.00    +0.000 C 
ATOM      9  C   UNL     1       2.471   2.521  19.410  0.00  0.00    +0.000 C 
ATOM     10  C   UNL     1       3.820   2.172  18.777  0.00  0.00    +0.000 C 
ATOM     11  C   UNL     1       4.047   2.946  17.481  0.00  0.00    +0.000 C 
ATOM     12  C   UNL     1       3.911   4.454  17.698  0.00  0.00    +0.000 C 
ATOM     13  C   UNL     1       2.562   4.889  18.346  0.00  0.00    +0.000 C 
ATOM     14  C   UNL     1       1.416   4.669  17.334  0.00  0.00    +0.000 C 
ATOM     15  C   UNL     1       2.682   6.408  18.777  0.00  0.00    +0.000 C 
ATOM     16  C   UNL     1       2.796   7.403  17.587  0.00  0.00    +0.000 C 
ATOM     17  C   UNL     1       2.742   8.866  18.045  0.00  0.00    +0.000 C 
ATOM     18  C   UNL     1       1.447   9.162  18.837  0.00  0.00    +0.000 C 
ATOM     19  C   UNL     1       0.134   8.741  18.116  0.00  0.00    +0.000 C 
ENDROOT
BRANCH   1  20
ATOM     20  C   UNL     1       0.755  11.820  18.596  0.00  0.00    +0.000 C 
ATOM     21  C   UNL     1       1.649  13.072  18.638  0.00  0.00    +0.000 C 
BRANCH  20  22
ATOM     22  C   UNL     1      -0.629  12.149  19.176  0.00  0.00    +0.000 C 
BRANCH  22  23
ATOM     23  C   UNL     1      -1.846  11.203  19.130  0.00  0.00    +0.000 C 
BRANCH  23  24
ATOM     24  C   UNL     1      -2.789  11.509  17.913  0.00  0.00    +0.000 C 
BRANCH  24  25
ATOM     25  C   UNL     1      -4.294  11.864  18.251  0.00  0.00    +0.000 C 
ATOM     26  C   UNL     1      -5.278  10.696  18.169  0.00  0.00    +0.000 C 
ATOM     27  C   UNL     1      -4.518  12.480  19.641  0.00  0.00    +0.000 C 
ENDBRANCH  24  25
BRANCH  24  29
ATOM     28  C   UNL     1      -2.927  10.842  15.445  0.00  0.00    +0.000 C 
ATOM     29  C   UNL     1      -2.670  10.361  16.861  0.00  0.00    +0.000 C 
ENDBRANCH  24  29
ENDBRANCH  23  24
ENDBRANCH  22  23
ENDBRANCH  20  22
ENDBRANCH   1  20
BRANCH  10  30
ATOM     30  O   UNL     1       3.884   0.773  18.507  0.00  0.00    +0.000 OA
ATOM     31  H   UNL     1       2.973   0.435  18.468  0.00  0.00    +0.000 HD
ENDBRANCH  10  30
TORSDOF 7
ENDMDL
MODEL 7
REMARK VINA RESULT:      -7.1      3.930      9.153
REMARK  Name = 
REMARK  13 active torsions:
REMARK  status: ('A' for Active; 'I' for Inactive)
REMARK    1  A    between atoms: C_1  and  C_2
REMARK    2  A    between atoms: C_2  and  C_3
REMARK    3  A    between atoms: C_3  and  C_4
REMARK    4  A    between atoms: C_3  and  C_28
REMARK    5  A    between atoms: C_4  and  C_5
REMARK    6  A    between atoms: C_5  and  C_6
REMARK    7  A    between atoms: C_6  and  C_7
REMARK    8  A    between atoms: C_6  and  C_8
REMARK    9  A    between atoms: C_17  and  O_18
REMARK   10  A    between atoms: C_21  and  C_22
REMARK   11  A    between atoms: C_26  and  C_27
REMARK   12  A    between atoms: C_28  and  C_29
REMARK   13  A    between atoms: C_28  and  C_30
REMARK                            x       y       z     vdW  Elec       q    Type
REMARK                         _______ _______ _______ _____ _____    ______ ____
ROOT
ATOM      1  C   UNL     1       0.193  11.503  19.412  0.00  0.00    +0.000 C 
ATOM      2  C   UNL     1      -0.403  11.224  20.832  0.00  0.00    +0.000 C 
ATOM      3  C   UNL     1      -0.100   9.758  21.188  0.00  0.00    +0.000 C 
ATOM      4  C   UNL     1       0.971   9.351  20.186  0.00  0.00    +0.000 C 
ATOM      5  C   UNL     1       1.229   7.854  19.939  0.00  0.00    +0.000 C 
ATOM      6  C   UNL     1       1.592   7.115  21.231  0.00  0.00    +0.000 C 
ATOM      7  C   UNL     1       2.107   5.743  20.977  0.00  0.00    +0.000 C 
ATOM      8  C   UNL     1       2.527   5.272  19.770  0.00  0.00    +0.000 C 
ATOM      9  C   UNL     1       3.006   3.850  19.648  0.00  0.00    +0.000 C 
ATOM     10  C   UNL     1       4.385   3.773  18.990  0.00  0.00    +0.000 C 
ATOM     11  C   UNL     1       4.415   4.527  17.664  0.00  0.00    +0.000 C 
ATOM     12  C   UNL     1       3.962   5.978  17.833  0.00  0.00    +0.000 C 
ATOM     13  C   UNL     1       2.564   6.139  18.503  0.00  0.00    +0.000 C 
ATOM     14  C   UNL     1       1.473   5.639  17.531  0.00  0.00    +0.000 C 
ATOM     15  C   UNL     1       2.363   7.664  18.879  0.00  0.00    +0.000 C 
ATOM     16  C   UNL     1       2.238   8.613  17.654  0.00  0.00    +0.000 C 
ATOM     17  C   UNL     1       1.880  10.048  18.064  0.00  0.00    +0.000 C 
ATOM     18  C   UNL     1       0.567  10.090  18.881  0.00  0.00    +0.000 C 
ATOM     19  C   UNL     1      -0.639   9.370  18.210  0.00  0.00    +0.000 C 
ENDROOT
BRANCH   1  20
ATOM     20  C   UNL     1      -0.685  12.527  18.570  0.00  0.00    +0.000 C 
ATOM     21  C   UNL     1       0.031  13.869  18.340  0.00  0.00    +0.000 C 
BRANCH  20  22
ATOM     22  C   UNL     1      -2.008  12.763  19.314  0.00  0.00    +0.000 C 
BRANCH  22  23
ATOM     23  C   UNL     1      -3.191  11.774  19.336  0.00  0.00    +0.000 C 
BRANCH  23  24
ATOM     24  C   UNL     1      -4.039  11.835  18.018  0.00  0.00    +0.000 C 
BRANCH  24  25
ATOM     25  C   UNL     1      -5.579  12.166  18.177  0.00  0.00    +0.000 C 
ATOM     26  C   UNL     1      -6.188  13.013  17.058  0.00  0.00    +0.000 C 
ATOM     27  C   UNL     1      -6.496  10.939  18.297  0.00  0.00    +0.000 C 
ENDBRANCH  24  25
BRANCH  24  29
ATOM     28  C   UNL     1      -3.547  10.839  15.711  0.00  0.00    +0.000 C 
ATOM     29  C   UNL     1      -3.793  10.542  17.178  0.00  0.00    +0.000 C 
ENDBRANCH  24  29
ENDBRANCH  23  24
ENDBRANCH  22  23
ENDBRANCH  20  22
ENDBRANCH   1  20
BRANCH  10  30
ATOM     30  O   UNL     1       4.743   2.411  18.766  0.00  0.00    +0.000 OA
ATOM     31  H   UNL     1       5.700   2.379  18.593  0.00  0.00    +0.000 HD
ENDBRANCH  10  30
TORSDOF 7
ENDMDL
MODEL 8
REMARK VINA RESULT:      -7.1      1.127      1.461
REMARK  Name = 
REMARK  13 active torsions:
REMARK  status: ('A' for Active; 'I' for Inactive)
REMARK    1  A    between atoms: C_1  and  C_2
REMARK    2  A    between atoms: C_2  and  C_3
REMARK    3  A    between atoms: C_3  and  C_4
REMARK    4  A    between atoms: C_3  and  C_28
REMARK    5  A    between atoms: C_4  and  C_5
REMARK    6  A    between atoms: C_5  and  C_6
REMARK    7  A    between atoms: C_6  and  C_7
REMARK    8  A    between atoms: C_6  and  C_8
REMARK    9  A    between atoms: C_17  and  O_18
REMARK   10  A    between atoms: C_21  and  C_22
REMARK   11  A    between atoms: C_26  and  C_27
REMARK   12  A    between atoms: C_28  and  C_29
REMARK   13  A    between atoms: C_28  and  C_30
REMARK                            x       y       z     vdW  Elec       q    Type
REMARK                         _______ _______ _______ _____ _____    ______ ____
ROOT
ATOM      1  C   UNL     1       0.976   8.710  20.017  0.00  0.00    +0.000 C 
ATOM      2  C   UNL     1       1.366   8.419  21.505  0.00  0.00    +0.000 C 
ATOM      3  C   UNL     1       0.651   9.457  22.388  0.00  0.00    +0.000 C 
ATOM      4  C   UNL     1      -0.412  10.047  21.473  0.00  0.00    +0.000 C 
ATOM      5  C   UNL     1      -1.048  11.399  21.845  0.00  0.00    +0.000 C 
ATOM      6  C   UNL     1      -1.695  11.364  23.233  0.00  0.00    +0.000 C 
ATOM      7  C   UNL     1      -2.543  12.557  23.497  0.00  0.00    +0.000 C 
ATOM      8  C   UNL     1      -2.983  13.432  22.552  0.00  0.00    +0.000 C 
ATOM      9  C   UNL     1      -3.820  14.615  22.960  0.00  0.00    +0.000 C 
ATOM     10  C   UNL     1      -5.115  14.698  22.150  0.00  0.00    +0.000 C 
ATOM     11  C   UNL     1      -4.840  14.653  20.649  0.00  0.00    +0.000 C 
ATOM     12  C   UNL     1      -4.023  13.417  20.265  0.00  0.00    +0.000 C 
ATOM     13  C   UNL     1      -2.688  13.261  21.054  0.00  0.00    +0.000 C 
ATOM     14  C   UNL     1      -1.704  14.368  20.615  0.00  0.00    +0.000 C 
ATOM     15  C   UNL     1      -2.109  11.815  20.773  0.00  0.00    +0.000 C 
ATOM     16  C   UNL     1      -1.639  11.587  19.309  0.00  0.00    +0.000 C 
ATOM     17  C   UNL     1      -0.936  10.236  19.126  0.00  0.00    +0.000 C 
ATOM     18  C   UNL     1       0.273  10.096  20.080  0.00  0.00    +0.000 C 
ATOM     19  C   UNL     1       1.285  11.278  20.023  0.00  0.00    +0.000 C 
ENDROOT
BRANCH   1  20
ATOM     20  C   UNL     1       2.160   8.399  19.002  0.00  0.00    +0.000 C 
ATOM     21  C   UNL     1       1.798   8.747  17.548  0.00  0.00    +0.000 C 
BRANCH  20  22
ATOM     22  C   UNL     1       2.515   6.908  19.108  0.00  0.00    +0.000 C 
BRANCH  22  23
ATOM     23  C   UNL     1       3.871   6.298  18.698  0.00  0.00    +0.000 C 
BRANCH  23  24
ATOM     24  C   UNL     1       3.762   5.436  17.391  0.00  0.00    +0.000 C 
BRANCH  24  25
ATOM     25  C   UNL     1       3.427   3.901  17.577  0.00  0.00    +0.000 C 
ATOM     26  C   UNL     1       4.037   3.241  18.815  0.00  0.00    +0.000 C 
ATOM     27  C   UNL     1       1.929   3.568  17.641  0.00  0.00    +0.000 C 
ENDBRANCH  24  25
BRANCH  24  29
ATOM     28  C   UNL     1       5.298   4.510  15.564  0.00  0.00    +0.000 C 
ATOM     29  C   UNL     1       5.030   5.666  16.508  0.00  0.00    +0.000 C 
ENDBRANCH  24  29
ENDBRANCH  23  24
ENDBRANCH  22  23
ENDBRANCH  20  22
ENDBRANCH   1  20
BRANCH  10  30
ATOM     30  O   UNL     1      -5.812  15.901  22.465  0.00  0.00    +0.000 OA
ATOM     31  H   UNL     1      -6.747  15.774  22.230  0.00  0.00    +0.000 HD
ENDBRANCH  10  30
TORSDOF 7
ENDMDL
MODEL 9
REMARK VINA RESULT:      -7.1      3.684      9.349
REMARK  Name = 
REMARK  13 active torsions:
REMARK  status: ('A' for Active; 'I' for Inactive)
REMARK    1  A    between atoms: C_1  and  C_2
REMARK    2  A    between atoms: C_2  and  C_3
REMARK    3  A    between atoms: C_3  and  C_4
REMARK    4  A    between atoms: C_3  and  C_28
REMARK    5  A    between atoms: C_4  and  C_5
REMARK    6  A    between atoms: C_5  and  C_6
REMARK    7  A    between atoms: C_6  and  C_7
REMARK    8  A    between atoms: C_6  and  C_8
REMARK    9  A    between atoms: C_17  and  O_18
REMARK   10  A    between atoms: C_21  and  C_22
REMARK   11  A    between atoms: C_26  and  C_27
REMARK   12  A    between atoms: C_28  and  C_29
REMARK   13  A    between atoms: C_28  and  C_30
REMARK                            x       y       z     vdW  Elec       q    Type
REMARK                         _______ _______ _______ _____ _____    ______ ____
ROOT
ATOM      1  C   UNL     1       0.995  11.131  19.355  0.00  0.00    +0.000 C 
ATOM      2  C   UNL     1       0.316  10.921  20.750  0.00  0.00    +0.000 C 
ATOM      3  C   UNL     1       0.371   9.419  21.077  0.00  0.00    +0.000 C 
ATOM      4  C   UNL     1       1.397   8.868  20.097  0.00  0.00    +0.000 C 
ATOM      5  C   UNL     1       1.424   7.354  19.820  0.00  0.00    +0.000 C 
ATOM      6  C   UNL     1       1.624   6.541  21.103  0.00  0.00    +0.000 C 
ATOM      7  C   UNL     1       1.925   5.110  20.829  0.00  0.00    +0.000 C 
ATOM      8  C   UNL     1       2.304   4.603  19.624  0.00  0.00    +0.000 C 
ATOM      9  C   UNL     1       2.557   3.126  19.480  0.00  0.00    +0.000 C 
ATOM     10  C   UNL     1       3.928   2.845  18.861  0.00  0.00    +0.000 C 
ATOM     11  C   UNL     1       4.120   3.612  17.556  0.00  0.00    +0.000 C 
ATOM     12  C   UNL     1       3.896   5.113  17.749  0.00  0.00    +0.000 C 
ATOM     13  C   UNL     1       2.519   5.480  18.381  0.00  0.00    +0.000 C 
ATOM     14  C   UNL     1       1.396   5.178  17.365  0.00  0.00    +0.000 C 
ATOM     15  C   UNL     1       2.549   7.009  18.789  0.00  0.00    +0.000 C 
ATOM     16  C   UNL     1       2.615   7.990  17.585  0.00  0.00    +0.000 C 
ATOM     17  C   UNL     1       2.474   9.455  18.021  0.00  0.00    +0.000 C 
ATOM     18  C   UNL     1       1.158   9.688  18.799  0.00  0.00    +0.000 C 
ATOM     19  C   UNL     1      -0.124   9.181  18.076  0.00  0.00    +0.000 C 
ENDROOT
BRANCH   1  20
ATOM     20  C   UNL     1       0.317  12.298  18.514  0.00  0.00    +0.000 C 
ATOM     21  C   UNL     1       1.154  13.589  18.514  0.00  0.00    +0.000 C 
BRANCH  20  22
ATOM     22  C   UNL     1      -1.075  12.579  19.101  0.00  0.00    +0.000 C 
BRANCH  22  23
ATOM     23  C   UNL     1      -2.385  11.941  18.598  0.00  0.00    +0.000 C 
BRANCH  23  24
ATOM     24  C   UNL     1      -3.559  12.108  19.626  0.00  0.00    +0.000 C 
BRANCH  24  25
ATOM     25  C   UNL     1      -5.002  12.353  19.023  0.00  0.00    +0.000 C 
ATOM     26  C   UNL     1      -5.208  11.857  17.591  0.00  0.00    +0.000 C 
ATOM     27  C   UNL     1      -6.154  11.737  19.831  0.00  0.00    +0.000 C 
ENDBRANCH  24  25
BRANCH  24  29
ATOM     28  C   UNL     1      -3.157  12.621  22.101  0.00  0.00    +0.000 C 
ATOM     29  C   UNL     1      -3.169  13.181  20.692  0.00  0.00    +0.000 C 
ENDBRANCH  24  29
ENDBRANCH  23  24
ENDBRANCH  22  23
ENDBRANCH  20  22
ENDBRANCH   1  20
BRANCH  10  30
ATOM     30  O   UNL     1       4.074   1.449  18.613  0.00  0.00    +0.000 OA
ATOM     31  H   UNL     1       3.249   1.130  18.207  0.00  0.00    +0.000 HD
ENDBRANCH  10  30
TORSDOF 7
ENDMDL
