MODEL 1
REMARK VINA RESULT:      -8.6      0.000      0.000
REMARK  Name = 
REMARK  5 active torsions:
REMARK  status: ('A' for Active; 'I' for Inactive)
REMARK    1  A    between atoms: C_1  and  C_2
REMARK    2  A    between atoms: C_5  and  N_6
REMARK    3  A    between atoms: C_7  and  C_9
REMARK    4  A    between atoms: C_20  and  C_21
REMARK    5  A    between atoms: C_21  and  O_23
REMARK                            x       y       z     vdW  Elec       q    Type
REMARK                         _______ _______ _______ _____ _____    ______ ____
ROOT
ATOM      1  N   UNL     1       2.164   7.986  19.618  0.00  0.00    +0.000 N 
ATOM      2  C   UNL     1       2.410   6.626  19.718  0.00  0.00    +0.000 C 
ATOM      3  O   UNL     1       1.721   5.819  20.332  0.00  0.00    +0.000 OA
ATOM      4  H   UNL     1       2.712   8.546  18.964  0.00  0.00    +0.000 HD
ENDROOT
BRANCH   2   5
ATOM      5  C   UNL     1       3.627   6.090  19.041  0.00  0.00    +0.000 A 
ATOM      6  C   UNL     1       4.495   5.144  19.631  0.00  0.00    +0.000 A 
ATOM      7  C   UNL     1       5.633   4.696  18.942  0.00  0.00    +0.000 A 
ATOM      8  C   UNL     1       5.863   5.199  17.673  0.00  0.00    +0.000 A 
ATOM      9  C   UNL     1       5.019   6.098  17.090  0.00  0.00    +0.000 A 
ATOM     10  C   UNL     1       3.903   6.582  17.749  0.00  0.00    +0.000 A 
ATOM     11  C   UNL     1       5.506   6.377  15.757  0.00  0.00    +0.000 C 
ATOM     12  O   UNL     1       4.975   7.080  14.924  0.00  0.00    +0.000 OA
ATOM     13  O   UNL     1       6.656   5.661  15.627  0.00  0.00    +0.000 OA
ATOM     14  C   UNL     1       6.940   4.937  16.743  0.00  0.00    +0.000 C 
ATOM     15  O   UNL     1       7.900   4.220  16.936  0.00  0.00    +0.000 OA
ENDBRANCH   2   5
BRANCH   1  20
ATOM     16  C   UNL     1      -1.304  11.265  22.844  0.00  0.00    +0.000 C 
ATOM     17  C   UNL     1      -0.443  10.373  21.998  0.00  0.00    +0.000 A 
ATOM     18  C   UNL     1       0.332   9.372  22.579  0.00  0.00    +0.000 A 
ATOM     19  C   UNL     1       1.167   8.573  21.794  0.00  0.00    +0.000 A 
ATOM     20  C   UNL     1       1.238   8.735  20.405  0.00  0.00    +0.000 A 
ATOM     21  C   UNL     1       0.418   9.718  19.811  0.00  0.00    +0.000 A 
ATOM     22  C   UNL     1      -0.384  10.554  20.614  0.00  0.00    +0.000 A 
BRANCH  21  23
ATOM     23  C   UNL     1       0.390   9.878  18.332  0.00  0.00    +0.000 C 
ATOM     24  O   UNL     1      -0.650   9.869  17.688  0.00  0.00    +0.000 OA
BRANCH  23  25
ATOM     25  O   UNL     1       1.596  10.105  17.764  0.00  0.00    +0.000 OA
ATOM     26  H   UNL     1       2.090  10.875  18.105  0.00  0.00    +0.000 HD
ENDBRANCH  23  25
ENDBRANCH  21  23
ENDBRANCH   1  20
TORSDOF 4
ENDMDL
MODEL 2
REMARK VINA RESULT:      -8.3      2.386      7.918
REMARK  Name = 
REMARK  5 active torsions:
REMARK  status: ('A' for Active; 'I' for Inactive)
REMARK    1  A    between atoms: C_1  and  C_2
REMARK    2  A    between atoms: C_5  and  N_6
REMARK    3  A    between atoms: C_7  and  C_9
REMARK    4  A    between atoms: C_20  and  C_21
REMARK    5  A    between atoms: C_21  and  O_23
REMARK                            x       y       z     vdW  Elec       q    Type
REMARK                         _______ _______ _______ _____ _____    ______ ____
ROOT
ATOM      1  N   UNL     1       2.673   6.776  18.473  0.00  0.00    +0.000 N 
ATOM      2  C   UNL     1       2.169   8.053  18.293  0.00  0.00    +0.000 C 
ATOM      3  O   UNL     1       2.256   8.718  17.266  0.00  0.00    +0.000 OA
ATOM      4  H   UNL     1       2.419   6.252  19.312  0.00  0.00    +0.000 HD
ENDROOT
BRANCH   2   5
ATOM      5  C   UNL     1       1.475   8.695  19.449  0.00  0.00    +0.000 A 
ATOM      6  C   UNL     1       1.534   8.195  20.769  0.00  0.00    +0.000 A 
ATOM      7  C   UNL     1       0.840   8.841  21.805  0.00  0.00    +0.000 A 
ATOM      8  C   UNL     1       0.117   9.979  21.491  0.00  0.00    +0.000 A 
ATOM      9  C   UNL     1       0.072  10.477  20.222  0.00  0.00    +0.000 A 
ATOM     10  C   UNL     1       0.721   9.853  19.172  0.00  0.00    +0.000 A 
ATOM     11  C   UNL     1      -0.711  11.693  20.241  0.00  0.00    +0.000 C 
ATOM     12  O   UNL     1      -0.912  12.440  19.309  0.00  0.00    +0.000 OA
ATOM     13  O   UNL     1      -1.142  11.833  21.525  0.00  0.00    +0.000 OA
ATOM     14  C   UNL     1      -0.692  10.834  22.332  0.00  0.00    +0.000 C 
ATOM     15  O   UNL     1      -0.921  10.676  23.513  0.00  0.00    +0.000 OA
ENDBRANCH   2   5
BRANCH   1  20
ATOM     16  C   UNL     1       6.611   4.004  15.311  0.00  0.00    +0.000 C 
ATOM     17  C   UNL     1       5.555   4.736  16.087  0.00  0.00    +0.000 A 
ATOM     18  C   UNL     1       5.632   6.114  16.270  0.00  0.00    +0.000 A 
ATOM     19  C   UNL     1       4.672   6.785  17.032  0.00  0.00    +0.000 A 
ATOM     20  C   UNL     1       3.596   6.106  17.615  0.00  0.00    +0.000 A 
ATOM     21  C   UNL     1       3.492   4.715  17.390  0.00  0.00    +0.000 A 
ATOM     22  C   UNL     1       4.491   4.037  16.664  0.00  0.00    +0.000 A 
BRANCH  21  23
ATOM     23  C   UNL     1       2.325   3.956  17.915  0.00  0.00    +0.000 C 
ATOM     24  O   UNL     1       2.419   3.160  18.838  0.00  0.00    +0.000 OA
BRANCH  23  25
ATOM     25  O   UNL     1       1.142   4.268  17.340  0.00  0.00    +0.000 OA
ATOM     26  H   UNL     1       1.152   5.027  16.726  0.00  0.00    +0.000 HD
ENDBRANCH  23  25
ENDBRANCH  21  23
ENDBRANCH   1  20
TORSDOF 4
ENDMDL
MODEL 3
REMARK VINA RESULT:      -8.2      1.161      1.312
REMARK  Name = 
REMARK  5 active torsions:
REMARK  status: ('A' for Active; 'I' for Inactive)
REMARK    1  A    between atoms: C_1  and  C_2
REMARK    2  A    between atoms: C_5  and  N_6
REMARK    3  A    between atoms: C_7  and  C_9
REMARK    4  A    between atoms: C_20  and  C_21
REMARK    5  A    between atoms: C_21  and  O_23
REMARK                            x       y       z     vdW  Elec       q    Type
REMARK                         _______ _______ _______ _____ _____    ______ ____
ROOT
ATOM      1  N   UNL     1       2.159   7.962  19.078  0.00  0.00    +0.000 N 
ATOM      2  C   UNL     1       2.444   6.607  19.071  0.00  0.00    +0.000 C 
ATOM      3  O   UNL     1       1.865   5.752  19.732  0.00  0.00    +0.000 OA
ATOM      4  H   UNL     1       2.597   8.570  18.383  0.00  0.00    +0.000 HD
ENDROOT
BRANCH   2   5
ATOM      5  C   UNL     1       3.562   6.138  18.201  0.00  0.00    +0.000 A 
ATOM      6  C   UNL     1       3.533   4.923  17.480  0.00  0.00    +0.000 A 
ATOM      7  C   UNL     1       4.631   4.536  16.695  0.00  0.00    +0.000 A 
ATOM      8  C   UNL     1       5.724   5.384  16.644  0.00  0.00    +0.000 A 
ATOM      9  C   UNL     1       5.750   6.568  17.323  0.00  0.00    +0.000 A 
ATOM     10  C   UNL     1       4.698   6.969  18.127  0.00  0.00    +0.000 A 
ATOM     11  C   UNL     1       6.995   7.237  17.015  0.00  0.00    +0.000 C 
ATOM     12  O   UNL     1       7.337   8.338  17.388  0.00  0.00    +0.000 OA
ATOM     13  O   UNL     1       7.679   6.388  16.201  0.00  0.00    +0.000 OA
ATOM     14  C   UNL     1       6.981   5.249  15.941  0.00  0.00    +0.000 C 
ATOM     15  O   UNL     1       7.332   4.302  15.268  0.00  0.00    +0.000 OA
ENDBRANCH   2   5
BRANCH   1  20
ATOM     16  C   UNL     1      -0.872  10.973  22.943  0.00  0.00    +0.000 C 
ATOM     17  C   UNL     1      -0.126  10.152  21.933  0.00  0.00    +0.000 A 
ATOM     18  C   UNL     1       0.696   9.101  22.335  0.00  0.00    +0.000 A 
ATOM     19  C   UNL     1       1.425   8.369  21.396  0.00  0.00    +0.000 A 
ATOM     20  C   UNL     1       1.339   8.646  20.026  0.00  0.00    +0.000 A 
ATOM     21  C   UNL     1       0.470   9.681  19.614  0.00  0.00    +0.000 A 
ATOM     22  C   UNL     1      -0.222  10.449  20.571  0.00  0.00    +0.000 A 
BRANCH  21  23
ATOM     23  C   UNL     1       0.276   9.965  18.167  0.00  0.00    +0.000 C 
ATOM     24  O   UNL     1      -0.830  10.006  17.647  0.00  0.00    +0.000 OA
BRANCH  23  25
ATOM     25  O   UNL     1       1.411  10.243  17.487  0.00  0.00    +0.000 OA
ATOM     26  H   UNL     1       2.241  10.171  17.995  0.00  0.00    +0.000 HD
ENDBRANCH  23  25
ENDBRANCH  21  23
ENDBRANCH   1  20
TORSDOF 4
ENDMDL
MODEL 4
REMARK VINA RESULT:      -8.0      1.176      2.097
REMARK  Name = 
REMARK  5 active torsions:
REMARK  status: ('A' for Active; 'I' for Inactive)
REMARK    1  A    between atoms: C_1  and  C_2
REMARK    2  A    between atoms: C_5  and  N_6
REMARK    3  A    between atoms: C_7  and  C_9
REMARK    4  A    between atoms: C_20  and  C_21
REMARK    5  A    between atoms: C_21  and  O_23
REMARK                            x       y       z     vdW  Elec       q    Type
REMARK                         _______ _______ _______ _____ _____    ______ ____
ROOT
ATOM      1  N   UNL     1       2.148   7.957  19.302  0.00  0.00    +0.000 N 
ATOM      2  C   UNL     1       2.512   6.633  19.478  0.00  0.00    +0.000 C 
ATOM      3  O   UNL     1       1.960   5.833  20.225  0.00  0.00    +0.000 OA
ATOM      4  H   UNL     1       2.576   8.499  18.549  0.00  0.00    +0.000 HD
ENDROOT
BRANCH   2   5
ATOM      5  C   UNL     1       3.691   6.130  18.713  0.00  0.00    +0.000 A 
ATOM      6  C   UNL     1       3.674   5.896  17.320  0.00  0.00    +0.000 A 
ATOM      7  C   UNL     1       4.817   5.404  16.668  0.00  0.00    +0.000 A 
ATOM      8  C   UNL     1       5.950   5.174  17.428  0.00  0.00    +0.000 A 
ATOM      9  C   UNL     1       5.978   5.417  18.771  0.00  0.00    +0.000 A 
ATOM     10  C   UNL     1       4.864   5.876  19.451  0.00  0.00    +0.000 A 
ATOM     11  C   UNL     1       7.312   5.132  19.253  0.00  0.00    +0.000 C 
ATOM     12  O   UNL     1       7.724   5.294  20.382  0.00  0.00    +0.000 OA
ATOM     13  O   UNL     1       8.006   4.680  18.174  0.00  0.00    +0.000 OA
ATOM     14  C   UNL     1       7.249   4.668  17.043  0.00  0.00    +0.000 C 
ATOM     15  O   UNL     1       7.580   4.303  15.934  0.00  0.00    +0.000 OA
ENDBRANCH   2   5
BRANCH   1  20
ATOM     16  C   UNL     1      -1.172  11.072  22.833  0.00  0.00    +0.000 C 
ATOM     17  C   UNL     1      -0.354  10.245  21.885  0.00  0.00    +0.000 A 
ATOM     18  C   UNL     1      -0.097   8.902  22.151  0.00  0.00    +0.000 A 
ATOM     19  C   UNL     1       0.703   8.147  21.290  0.00  0.00    +0.000 A 
ATOM     20  C   UNL     1       1.252   8.701  20.127  0.00  0.00    +0.000 A 
ATOM     21  C   UNL     1       0.952  10.050  19.833  0.00  0.00    +0.000 A 
ATOM     22  C   UNL     1       0.187  10.820  20.732  0.00  0.00    +0.000 A 
BRANCH  21  23
ATOM     23  C   UNL     1       1.439  10.668  18.570  0.00  0.00    +0.000 C 
ATOM     24  O   UNL     1       1.982  11.763  18.540  0.00  0.00    +0.000 OA
BRANCH  23  25
ATOM     25  O   UNL     1       1.297   9.894  17.470  0.00  0.00    +0.000 OA
ATOM     26  H   UNL     1       2.122   9.531  17.095  0.00  0.00    +0.000 HD
ENDBRANCH  23  25
ENDBRANCH  21  23
ENDBRANCH   1  20
TORSDOF 4
ENDMDL
MODEL 5
REMARK VINA RESULT:      -7.9      2.557      4.206
REMARK  Name = 
REMARK  5 active torsions:
REMARK  status: ('A' for Active; 'I' for Inactive)
REMARK    1  A    between atoms: C_1  and  C_2
REMARK    2  A    between atoms: C_5  and  N_6
REMARK    3  A    between atoms: C_7  and  C_9
REMARK    4  A    between atoms: C_20  and  C_21
REMARK    5  A    between atoms: C_21  and  O_23
REMARK                            x       y       z     vdW  Elec       q    Type
REMARK                         _______ _______ _______ _____ _____    ______ ____
ROOT
ATOM      1  N   UNL     1       1.111   8.386  20.149  0.00  0.00    +0.000 N 
ATOM      2  C   UNL     1       1.990   8.069  19.127  0.00  0.00    +0.000 C 
ATOM      3  O   UNL     1       2.441   8.856  18.302  0.00  0.00    +0.000 OA
ATOM      4  H   UNL     1       0.912   7.692  20.871  0.00  0.00    +0.000 HD
ENDROOT
BRANCH   2   5
ATOM      5  C   UNL     1       2.418   6.645  18.997  0.00  0.00    +0.000 A 
ATOM      6  C   UNL     1       3.019   6.114  17.834  0.00  0.00    +0.000 A 
ATOM      7  C   UNL     1       3.380   4.758  17.775  0.00  0.00    +0.000 A 
ATOM      8  C   UNL     1       3.140   3.974  18.890  0.00  0.00    +0.000 A 
ATOM      9  C   UNL     1       2.577   4.485  20.023  0.00  0.00    +0.000 A 
ATOM     10  C   UNL     1       2.185   5.809  20.107  0.00  0.00    +0.000 A 
ATOM     11  C   UNL     1       2.516   3.431  21.012  0.00  0.00    +0.000 C 
ATOM     12  O   UNL     1       2.135   3.534  22.158  0.00  0.00    +0.000 OA
ATOM     13  O   UNL     1       3.004   2.319  20.397  0.00  0.00    +0.000 OA
ATOM     14  C   UNL     1       3.389   2.567  19.115  0.00  0.00    +0.000 C 
ATOM     15  O   UNL     1       3.843   1.778  18.313  0.00  0.00    +0.000 OA
ENDBRANCH   2   5
BRANCH   1  20
ATOM     16  C   UNL     1      -2.185  13.078  20.698  0.00  0.00    +0.000 C 
ATOM     17  C   UNL     1      -1.281  11.890  20.550  0.00  0.00    +0.000 A 
ATOM     18  C   UNL     1      -0.995  11.366  19.292  0.00  0.00    +0.000 A 
ATOM     19  C   UNL     1      -0.190  10.232  19.161  0.00  0.00    +0.000 A 
ATOM     20  C   UNL     1       0.371   9.600  20.277  0.00  0.00    +0.000 A 
ATOM     21  C   UNL     1       0.119  10.160  21.549  0.00  0.00    +0.000 A 
ATOM     22  C   UNL     1      -0.735  11.273  21.678  0.00  0.00    +0.000 A 
BRANCH  21  23
ATOM     23  C   UNL     1       0.757   9.581  22.763  0.00  0.00    +0.000 C 
ATOM     24  O   UNL     1       1.956   9.352  22.830  0.00  0.00    +0.000 OA
BRANCH  23  25
ATOM     25  O   UNL     1      -0.080   9.394  23.808  0.00  0.00    +0.000 OA
ATOM     26  H   UNL     1      -0.998   9.152  23.581  0.00  0.00    +0.000 HD
ENDBRANCH  23  25
ENDBRANCH  21  23
ENDBRANCH   1  20
TORSDOF 4
ENDMDL
MODEL 6
REMARK VINA RESULT:      -7.8      2.183      3.115
REMARK  Name = 
REMARK  5 active torsions:
REMARK  status: ('A' for Active; 'I' for Inactive)
REMARK    1  A    between atoms: C_1  and  C_2
REMARK    2  A    between atoms: C_5  and  N_6
REMARK    3  A    between atoms: C_7  and  C_9
REMARK    4  A    between atoms: C_20  and  C_21
REMARK    5  A    between atoms: C_21  and  O_23
REMARK                            x       y       z     vdW  Elec       q    Type
REMARK                         _______ _______ _______ _____ _____    ______ ____
ROOT
ATOM      1  N   UNL     1       0.732   9.253  19.396  0.00  0.00    +0.000 N 
ATOM      2  C   UNL     1       1.672   9.036  18.402  0.00  0.00    +0.000 C 
ATOM      3  O   UNL     1       1.857   9.753  17.425  0.00  0.00    +0.000 OA
ATOM      4  H   UNL     1       0.757   8.681  20.241  0.00  0.00    +0.000 HD
ENDROOT
BRANCH   2   5
ATOM      5  C   UNL     1       2.525   7.816  18.509  0.00  0.00    +0.000 A 
ATOM      6  C   UNL     1       2.436   6.892  19.574  0.00  0.00    +0.000 A 
ATOM      7  C   UNL     1       3.284   5.774  19.619  0.00  0.00    +0.000 A 
ATOM      8  C   UNL     1       4.190   5.605  18.586  0.00  0.00    +0.000 A 
ATOM      9  C   UNL     1       4.268   6.483  17.544  0.00  0.00    +0.000 A 
ATOM     10  C   UNL     1       3.467   7.609  17.481  0.00  0.00    +0.000 A 
ATOM     11  C   UNL     1       5.263   5.995  16.615  0.00  0.00    +0.000 C 
ATOM     12  O   UNL     1       5.556   6.482  15.545  0.00  0.00    +0.000 OA
ATOM     13  O   UNL     1       5.771   4.865  17.179  0.00  0.00    +0.000 OA
ATOM     14  C   UNL     1       5.181   4.574  18.370  0.00  0.00    +0.000 C 
ATOM     15  O   UNL     1       5.431   3.648  19.113  0.00  0.00    +0.000 OA
ENDBRANCH   2   5
BRANCH   1  20
ATOM     16  C   UNL     1      -3.844  12.753  19.381  0.00  0.00    +0.000 C 
ATOM     17  C   UNL     1      -2.624  11.879  19.354  0.00  0.00    +0.000 A 
ATOM     18  C   UNL     1      -2.434  10.954  18.331  0.00  0.00    +0.000 A 
ATOM     19  C   UNL     1      -1.320  10.110  18.333  0.00  0.00    +0.000 A 
ATOM     20  C   UNL     1      -0.352  10.180  19.342  0.00  0.00    +0.000 A 
ATOM     21  C   UNL     1      -0.521  11.151  20.354  0.00  0.00    +0.000 A 
ATOM     22  C   UNL     1      -1.673  11.963  20.374  0.00  0.00    +0.000 A 
BRANCH  21  23
ATOM     23  C   UNL     1       0.517  11.327  21.405  0.00  0.00    +0.000 C 
ATOM     24  O   UNL     1       0.773  10.459  22.229  0.00  0.00    +0.000 OA
BRANCH  23  25
ATOM     25  O   UNL     1       1.204  12.489  21.335  0.00  0.00    +0.000 OA
ATOM     26  H   UNL     1       0.665  13.303  21.345  0.00  0.00    +0.000 HD
ENDBRANCH  23  25
ENDBRANCH  21  23
ENDBRANCH   1  20
TORSDOF 4
ENDMDL
MODEL 7
REMARK VINA RESULT:      -7.8      2.402      8.015
REMARK  Name = 
REMARK  5 active torsions:
REMARK  status: ('A' for Active; 'I' for Inactive)
REMARK    1  A    between atoms: C_1  and  C_2
REMARK    2  A    between atoms: C_5  and  N_6
REMARK    3  A    between atoms: C_7  and  C_9
REMARK    4  A    between atoms: C_20  and  C_21
REMARK    5  A    between atoms: C_21  and  O_23
REMARK                            x       y       z     vdW  Elec       q    Type
REMARK                         _______ _______ _______ _____ _____    ______ ____
ROOT
ATOM      1  N   UNL     1       2.198   7.410  18.570  0.00  0.00    +0.000 N 
ATOM      2  C   UNL     1       1.775   8.673  18.189  0.00  0.00    +0.000 C 
ATOM      3  O   UNL     1       2.063   9.236  17.138  0.00  0.00    +0.000 OA
ATOM      4  H   UNL     1       1.784   6.971  19.394  0.00  0.00    +0.000 HD
ENDROOT
BRANCH   2   5
ATOM      5  C   UNL     1       0.908   9.430  19.139  0.00  0.00    +0.000 A 
ATOM      6  C   UNL     1      -0.150  10.271  18.728  0.00  0.00    +0.000 A 
ATOM      7  C   UNL     1      -0.913  10.969  19.678  0.00  0.00    +0.000 A 
ATOM      8  C   UNL     1      -0.603  10.793  21.016  0.00  0.00    +0.000 A 
ATOM      9  C   UNL     1       0.405   9.967  21.420  0.00  0.00    +0.000 A 
ATOM     10  C   UNL     1       1.195   9.286  20.511  0.00  0.00    +0.000 A 
ATOM     11  C   UNL     1       0.432   9.961  22.866  0.00  0.00    +0.000 C 
ATOM     12  O   UNL     1       1.154   9.292  23.574  0.00  0.00    +0.000 OA
ATOM     13  O   UNL     1      -0.538  10.831  23.257  0.00  0.00    +0.000 OA
ATOM     14  C   UNL     1      -1.196  11.378  22.199  0.00  0.00    +0.000 C 
ATOM     15  O   UNL     1      -2.092  12.196  22.226  0.00  0.00    +0.000 OA
ENDBRANCH   2   5
BRANCH   1  20
ATOM     16  C   UNL     1       6.537   4.285  16.428  0.00  0.00    +0.000 C 
ATOM     17  C   UNL     1       5.387   5.106  16.933  0.00  0.00    +0.000 A 
ATOM     18  C   UNL     1       5.490   6.491  17.031  0.00  0.00    +0.000 A 
ATOM     19  C   UNL     1       4.434   7.248  17.545  0.00  0.00    +0.000 A 
ATOM     20  C   UNL     1       3.236   6.648  17.955  0.00  0.00    +0.000 A 
ATOM     21  C   UNL     1       3.115   5.249  17.810  0.00  0.00    +0.000 A 
ATOM     22  C   UNL     1       4.203   4.486  17.340  0.00  0.00    +0.000 A 
BRANCH  21  23
ATOM     23  C   UNL     1       1.836   4.568  18.151  0.00  0.00    +0.000 C 
ATOM     24  O   UNL     1       1.126   4.042  17.306  0.00  0.00    +0.000 OA
BRANCH  23  25
ATOM     25  O   UNL     1       1.557   4.516  19.472  0.00  0.00    +0.000 OA
ATOM     26  H   UNL     1       0.832   5.093  19.778  0.00  0.00    +0.000 HD
ENDBRANCH  23  25
ENDBRANCH  21  23
ENDBRANCH   1  20
TORSDOF 4
ENDMDL
MODEL 8
REMARK VINA RESULT:      -7.7      2.329      8.141
REMARK  Name = 
REMARK  5 active torsions:
REMARK  status: ('A' for Active; 'I' for Inactive)
REMARK    1  A    between atoms: C_1  and  C_2
REMARK    2  A    between atoms: C_5  and  N_6
REMARK    3  A    between atoms: C_7  and  C_9
REMARK    4  A    between atoms: C_20  and  C_21
REMARK    5  A    between atoms: C_21  and  O_23
REMARK                            x       y       z     vdW  Elec       q    Type
REMARK                         _______ _______ _______ _____ _____    ______ ____
ROOT
ATOM      1  N   UNL     1       2.050   7.658  18.895  0.00  0.00    +0.000 N 
ATOM      2  C   UNL     1       1.678   8.898  18.405  0.00  0.00    +0.000 C 
ATOM      3  O   UNL     1       2.065   9.397  17.354  0.00  0.00    +0.000 OA
ATOM      4  H   UNL     1       1.559   7.270  19.702  0.00  0.00    +0.000 HD
ENDROOT
BRANCH   2   5
ATOM      5  C   UNL     1       0.739   9.716  19.228  0.00  0.00    +0.000 A 
ATOM      6  C   UNL     1      -0.200  10.617  18.677  0.00  0.00    +0.000 A 
ATOM      7  C   UNL     1      -1.040  11.368  19.514  0.00  0.00    +0.000 A 
ATOM      8  C   UNL     1      -0.926  11.186  20.881  0.00  0.00    +0.000 A 
ATOM      9  C   UNL     1      -0.035  10.303  21.419  0.00  0.00    +0.000 A 
ATOM     10  C   UNL     1       0.827   9.566  20.626  0.00  0.00    +0.000 A 
ATOM     11  C   UNL     1      -0.205  10.308  22.855  0.00  0.00    +0.000 C 
ATOM     12  O   UNL     1       0.371   9.603  23.655  0.00  0.00    +0.000 OA
ATOM     13  O   UNL     1      -1.164  11.240  23.110  0.00  0.00    +0.000 OA
ATOM     14  C   UNL     1      -1.637  11.817  21.972  0.00  0.00    +0.000 C 
ATOM     15  O   UNL     1      -2.476  12.688  21.877  0.00  0.00    +0.000 OA
ENDBRANCH   2   5
BRANCH   1  20
ATOM     16  C   UNL     1       6.625   4.571  17.243  0.00  0.00    +0.000 C 
ATOM     17  C   UNL     1       5.403   5.350  17.632  0.00  0.00    +0.000 A 
ATOM     18  C   UNL     1       5.127   6.582  17.044  0.00  0.00    +0.000 A 
ATOM     19  C   UNL     1       4.013   7.326  17.441  0.00  0.00    +0.000 A 
ATOM     20  C   UNL     1       3.130   6.854  18.420  0.00  0.00    +0.000 A 
ATOM     21  C   UNL     1       3.385   5.584  18.983  0.00  0.00    +0.000 A 
ATOM     22  C   UNL     1       4.538   4.862  18.615  0.00  0.00    +0.000 A 
BRANCH  21  23
ATOM     23  C   UNL     1       2.436   4.996  19.967  0.00  0.00    +0.000 C 
ATOM     24  O   UNL     1       1.805   3.972  19.741  0.00  0.00    +0.000 OA
BRANCH  23  25
ATOM     25  O   UNL     1       2.379   5.640  21.154  0.00  0.00    +0.000 OA
ATOM     26  H   UNL     1       2.571   5.098  21.943  0.00  0.00    +0.000 HD
ENDBRANCH  23  25
ENDBRANCH  21  23
ENDBRANCH   1  20
TORSDOF 4
ENDMDL
MODEL 9
REMARK VINA RESULT:      -7.6      1.091      2.114
REMARK  Name = 
REMARK  5 active torsions:
REMARK  status: ('A' for Active; 'I' for Inactive)
REMARK    1  A    between atoms: C_1  and  C_2
REMARK    2  A    between atoms: C_5  and  N_6
REMARK    3  A    between atoms: C_7  and  C_9
REMARK    4  A    between atoms: C_20  and  C_21
REMARK    5  A    between atoms: C_21  and  O_23
REMARK                            x       y       z     vdW  Elec       q    Type
REMARK                         _______ _______ _______ _____ _____    ______ ____
ROOT
ATOM      1  N   UNL     1       2.268   7.855  18.897  0.00  0.00    +0.000 N 
ATOM      2  C   UNL     1       3.050   6.729  19.091  0.00  0.00    +0.000 C 
ATOM      3  O   UNL     1       2.986   5.972  20.054  0.00  0.00    +0.000 OA
ATOM      4  H   UNL     1       2.295   8.334  17.996  0.00  0.00    +0.000 HD
ENDROOT
BRANCH   2   5
ATOM      5  C   UNL     1       4.075   6.410  18.055  0.00  0.00    +0.000 A 
ATOM      6  C   UNL     1       3.960   6.791  16.699  0.00  0.00    +0.000 A 
ATOM      7  C   UNL     1       4.956   6.440  15.774  0.00  0.00    +0.000 A 
ATOM      8  C   UNL     1       6.049   5.727  16.237  0.00  0.00    +0.000 A 
ATOM      9  C   UNL     1       6.176   5.373  17.549  0.00  0.00    +0.000 A 
ATOM     10  C   UNL     1       5.202   5.678  18.482  0.00  0.00    +0.000 A 
ATOM     11  C   UNL     1       7.443   4.696  17.713  0.00  0.00    +0.000 C 
ATOM     12  O   UNL     1       7.922   4.296  18.753  0.00  0.00    +0.000 OA
ATOM     13  O   UNL     1       7.993   4.634  16.470  0.00  0.00    +0.000 OA
ATOM     14  C   UNL     1       7.206   5.225  15.529  0.00  0.00    +0.000 C 
ATOM     15  O   UNL     1       7.416   5.313  14.338  0.00  0.00    +0.000 OA
ENDBRANCH   2   5
BRANCH   1  20
ATOM     16  C   UNL     1      -0.751  10.580  22.978  0.00  0.00    +0.000 C 
ATOM     17  C   UNL     1      -0.013   9.845  21.898  0.00  0.00    +0.000 A 
ATOM     18  C   UNL     1       0.529   8.584  22.137  0.00  0.00    +0.000 A 
ATOM     19  C   UNL     1       1.256   7.923  21.144  0.00  0.00    +0.000 A 
ATOM     20  C   UNL     1       1.444   8.488  19.877  0.00  0.00    +0.000 A 
ATOM     21  C   UNL     1       0.854   9.745  19.619  0.00  0.00    +0.000 A 
ATOM     22  C   UNL     1       0.167  10.430  20.642  0.00  0.00    +0.000 A 
BRANCH  21  23
ATOM     23  C   UNL     1       0.951  10.355  18.266  0.00  0.00    +0.000 C 
ATOM     24  O   UNL     1       1.978  10.328  17.603  0.00  0.00    +0.000 OA
BRANCH  23  25
ATOM     25  O   UNL     1      -0.204  10.879  17.797  0.00  0.00    +0.000 OA
ATOM     26  H   UNL     1      -0.611  10.409  17.044  0.00  0.00    +0.000 HD
ENDBRANCH  23  25
ENDBRANCH  21  23
ENDBRANCH   1  20
TORSDOF 4
ENDMDL
