MODEL 1
REMARK VINA RESULT:      -8.4      0.000      0.000
REMARK  Name = 
REMARK  8 active torsions:
REMARK  status: ('A' for Active; 'I' for Inactive)
REMARK    1  A    between atoms: C_1  and  C_2
REMARK    2  A    between atoms: N_7  and  C_8
REMARK    3  A    between atoms: C_11  and  C_12
REMARK    4  A    between atoms: C_12  and  N_13
REMARK    5  A    between atoms: N_13  and  C_14
REMARK    6  A    between atoms: N_13  and  S_18
REMARK    7  A    between atoms: S_18  and  C_21
REMARK    8  A    between atoms: C_26  and  C_27
REMARK                            x       y       z     vdW  Elec       q    Type
REMARK                         _______ _______ _______ _____ _____    ______ ____
ROOT
ATOM      1  C   UNL     1       1.294   9.325  19.514  0.00  0.00    +0.000 A 
ATOM      2  C   UNL     1       1.801   9.315  18.204  0.00  0.00    +0.000 A 
ATOM      3  C   UNL     1       2.437   8.194  17.659  0.00  0.00    +0.000 A 
ATOM      4  C   UNL     1       2.608   7.044  18.429  0.00  0.00    +0.000 A 
ATOM      5  C   UNL     1       2.160   7.062  19.746  0.00  0.00    +0.000 A 
ATOM      6  F   UNL     1       2.333   5.987  20.528  0.00  0.00    +0.000 F 
ATOM      7  C   UNL     1       1.512   8.174  20.280  0.00  0.00    +0.000 A 
ENDROOT
BRANCH   1  14
ATOM      8  C   UNL     1      -2.051  13.474  22.958  0.00  0.00    +0.000 C 
ATOM      9  C   UNL     1      -2.195  13.082  21.512  0.00  0.00    +0.000 C 
ATOM     10  O   UNL     1      -2.870  13.771  20.748  0.00  0.00    +0.000 OA
ATOM     11  N   UNL     1      -1.501  11.965  21.091  0.00  0.00    +0.000 N 
ATOM     12  C   UNL     1      -1.493  11.616  19.665  0.00  0.00    +0.000 C 
ATOM     13  C   UNL     1      -0.055  11.402  19.150  0.00  0.00    +0.000 C 
ATOM     14  N   UNL     1       0.630  10.423  20.015  0.00  0.00    +0.000 N 
ATOM     15  C   UNL     1       0.657  10.781  21.444  0.00  0.00    +0.000 C 
ATOM     16  C   UNL     1      -0.776  11.019  21.952  0.00  0.00    +0.000 C 
ENDBRANCH   1  14
BRANCH   4  17
ATOM     17  C   UNL     1       3.179   5.789  17.835  0.00  0.00    +0.000 C 
BRANCH  17  18
ATOM     18  N   UNL     1       3.515   4.702  18.809  0.00  0.00    +0.000 NA
BRANCH  18  19
ATOM     19  C   UNL     1       2.636   3.471  18.572  0.00  0.00    +0.000 C 
ATOM     20  C   UNL     1       1.956   2.784  19.790  0.00  0.00    +0.000 C 
ATOM     21  C   UNL     1       0.702   2.576  18.927  0.00  0.00    +0.000 C 
ATOM     22  C   UNL     1       1.196   3.727  18.041  0.00  0.00    +0.000 C 
ENDBRANCH  18  19
BRANCH  18  23
ATOM     23  S   UNL     1       5.221   4.544  18.962  0.00  0.00    +0.000 S 
ATOM     24  O   UNL     1       5.764   5.670  19.683  0.00  0.00    +0.000 OA
ATOM     25  O   UNL     1       5.484   3.196  19.427  0.00  0.00    +0.000 OA
BRANCH  23  26
ATOM     26  C   UNL     1       5.824   4.674  17.275  0.00  0.00    +0.000 A 
ATOM     27  C   UNL     1       5.342   3.751  16.333  0.00  0.00    +0.000 A 
ATOM     28  C   UNL     1       5.863   3.727  15.038  0.00  0.00    +0.000 A 
ATOM     29  C   UNL     1       6.874   4.613  14.684  0.00  0.00    +0.000 A 
ATOM     30  C   UNL     1       7.340   5.549  15.610  0.00  0.00    +0.000 A 
ATOM     31  C   UNL     1       6.822   5.602  16.915  0.00  0.00    +0.000 A 
ATOM     32  C   UNL     1       7.328   6.676  17.836  0.00  0.00    +0.000 C 
ENDBRANCH  23  26
ENDBRANCH  18  23
ENDBRANCH  17  18
ENDBRANCH   4  17
TORSDOF 6
ENDMDL
MODEL 2
REMARK VINA RESULT:      -8.4      4.374      7.777
REMARK  Name = 
REMARK  8 active torsions:
REMARK  status: ('A' for Active; 'I' for Inactive)
REMARK    1  A    between atoms: C_1  and  C_2
REMARK    2  A    between atoms: N_7  and  C_8
REMARK    3  A    between atoms: C_11  and  C_12
REMARK    4  A    between atoms: C_12  and  N_13
REMARK    5  A    between atoms: N_13  and  C_14
REMARK    6  A    between atoms: N_13  and  S_18
REMARK    7  A    between atoms: S_18  and  C_21
REMARK    8  A    between atoms: C_26  and  C_27
REMARK                            x       y       z     vdW  Elec       q    Type
REMARK                         _______ _______ _______ _____ _____    ______ ____
ROOT
ATOM      1  C   UNL     1       8.327   8.796  18.412  0.00  0.00    +0.000 A 
ATOM      2  C   UNL     1       7.538   8.512  17.286  0.00  0.00    +0.000 A 
ATOM      3  C   UNL     1       7.051   7.228  17.021  0.00  0.00    +0.000 A 
ATOM      4  C   UNL     1       7.365   6.171  17.874  0.00  0.00    +0.000 A 
ATOM      5  C   UNL     1       8.192   6.429  18.963  0.00  0.00    +0.000 A 
ATOM      6  F   UNL     1       8.542   5.433  19.790  0.00  0.00    +0.000 F 
ATOM      7  C   UNL     1       8.661   7.713  19.233  0.00  0.00    +0.000 A 
ENDROOT
BRANCH   1  14
ATOM      8  C   UNL     1      10.592  14.719  18.193  0.00  0.00    +0.000 C 
ATOM      9  C   UNL     1      10.959  13.579  19.104  0.00  0.00    +0.000 C 
ATOM     10  O   UNL     1      11.606  13.789  20.129  0.00  0.00    +0.000 OA
ATOM     11  N   UNL     1      10.493  12.325  18.761  0.00  0.00    +0.000 N 
ATOM     12  C   UNL     1      10.702  11.201  19.683  0.00  0.00    +0.000 C 
ATOM     13  C   UNL     1       9.382  10.455  19.962  0.00  0.00    +0.000 C 
ATOM     14  N   UNL     1       8.757  10.077  18.680  0.00  0.00    +0.000 N 
ATOM     15  C   UNL     1       8.512  11.203  17.762  0.00  0.00    +0.000 C 
ATOM     16  C   UNL     1       9.825  11.963  17.502  0.00  0.00    +0.000 C 
ENDBRANCH   1  14
BRANCH   4  17
ATOM     17  C   UNL     1       6.761   4.810  17.681  0.00  0.00    +0.000 C 
BRANCH  17  18
ATOM     18  N   UNL     1       5.337   4.789  17.215  0.00  0.00    +0.000 NA
BRANCH  18  19
ATOM     19  C   UNL     1       5.239   4.216  15.799  0.00  0.00    +0.000 C 
ATOM     20  C   UNL     1       5.233   5.194  14.590  0.00  0.00    +0.000 C 
ATOM     21  C   UNL     1       6.121   4.198  13.827  0.00  0.00    +0.000 C 
ATOM     22  C   UNL     1       6.543   3.628  15.187  0.00  0.00    +0.000 C 
ENDBRANCH  18  19
BRANCH  18  23
ATOM     23  S   UNL     1       4.307   4.213  18.466  0.00  0.00    +0.000 S 
ATOM     24  O   UNL     1       3.432   3.183  17.959  0.00  0.00    +0.000 OA
ATOM     25  O   UNL     1       5.145   3.944  19.619  0.00  0.00    +0.000 OA
BRANCH  23  26
ATOM     26  C   UNL     1       3.267   5.625  18.858  0.00  0.00    +0.000 A 
ATOM     27  C   UNL     1       3.319   6.736  18.003  0.00  0.00    +0.000 A 
ATOM     28  C   UNL     1       2.626   7.905  18.321  0.00  0.00    +0.000 A 
ATOM     29  C   UNL     1       1.890   7.972  19.499  0.00  0.00    +0.000 A 
ATOM     30  C   UNL     1       1.815   6.861  20.342  0.00  0.00    +0.000 A 
ATOM     31  C   UNL     1       2.492   5.669  20.036  0.00  0.00    +0.000 A 
ATOM     32  C   UNL     1       2.315   4.495  20.958  0.00  0.00    +0.000 C 
ENDBRANCH  23  26
ENDBRANCH  18  23
ENDBRANCH  17  18
ENDBRANCH   4  17
TORSDOF 6
ENDMDL
MODEL 3
REMARK VINA RESULT:      -8.4      1.475      4.258
REMARK  Name = 
REMARK  8 active torsions:
REMARK  status: ('A' for Active; 'I' for Inactive)
REMARK    1  A    between atoms: C_1  and  C_2
REMARK    2  A    between atoms: N_7  and  C_8
REMARK    3  A    between atoms: C_11  and  C_12
REMARK    4  A    between atoms: C_12  and  N_13
REMARK    5  A    between atoms: N_13  and  C_14
REMARK    6  A    between atoms: N_13  and  S_18
REMARK    7  A    between atoms: S_18  and  C_21
REMARK    8  A    between atoms: C_26  and  C_27
REMARK                            x       y       z     vdW  Elec       q    Type
REMARK                         _______ _______ _______ _____ _____    ______ ____
ROOT
ATOM      1  C   UNL     1       1.444   8.696  19.402  0.00  0.00    +0.000 A 
ATOM      2  C   UNL     1       1.801   7.659  20.279  0.00  0.00    +0.000 A 
ATOM      3  C   UNL     1       2.787   6.719  19.961  0.00  0.00    +0.000 A 
ATOM      4  C   UNL     1       3.436   6.776  18.728  0.00  0.00    +0.000 A 
ATOM      5  C   UNL     1       3.051   7.765  17.828  0.00  0.00    +0.000 A 
ATOM      6  F   UNL     1       3.630   7.834  16.621  0.00  0.00    +0.000 F 
ATOM      7  C   UNL     1       2.081   8.710  18.155  0.00  0.00    +0.000 A 
ENDROOT
BRANCH   1  14
ATOM      8  C   UNL     1      -1.887  13.988  20.477  0.00  0.00    +0.000 C 
ATOM      9  C   UNL     1      -1.550  12.854  21.407  0.00  0.00    +0.000 C 
ATOM     10  O   UNL     1      -2.151  12.729  22.474  0.00  0.00    +0.000 OA
ATOM     11  N   UNL     1      -0.592  11.955  20.982  0.00  0.00    +0.000 N 
ATOM     12  C   UNL     1      -0.323  10.755  21.784  0.00  0.00    +0.000 C 
ATOM     13  C   UNL     1      -0.386   9.480  20.919  0.00  0.00    +0.000 C 
ATOM     14  N   UNL     1       0.504   9.639  19.753  0.00  0.00    +0.000 N 
ATOM     15  C   UNL     1       0.220  10.823  18.923  0.00  0.00    +0.000 C 
ATOM     16  C   UNL     1       0.258  12.093  19.790  0.00  0.00    +0.000 C 
ENDBRANCH   1  14
BRANCH   4  17
ATOM     17  C   UNL     1       4.578   5.855  18.408  0.00  0.00    +0.000 C 
BRANCH  17  18
ATOM     18  N   UNL     1       4.276   4.755  17.437  0.00  0.00    +0.000 NA
BRANCH  18  19
ATOM     19  C   UNL     1       4.979   5.004  16.100  0.00  0.00    +0.000 C 
ATOM     20  C   UNL     1       6.294   5.834  16.083  0.00  0.00    +0.000 C 
ATOM     21  C   UNL     1       6.848   4.867  15.026  0.00  0.00    +0.000 C 
ATOM     22  C   UNL     1       5.829   3.834  15.525  0.00  0.00    +0.000 C 
ENDBRANCH  18  19
BRANCH  18  23
ATOM     23  S   UNL     1       4.387   3.225  18.214  0.00  0.00    +0.000 S 
ATOM     24  O   UNL     1       4.089   2.166  17.279  0.00  0.00    +0.000 OA
ATOM     25  O   UNL     1       5.639   3.209  18.946  0.00  0.00    +0.000 OA
BRANCH  23  26
ATOM     26  C   UNL     1       3.048   3.246  19.412  0.00  0.00    +0.000 A 
ATOM     27  C   UNL     1       3.346   2.890  20.736  0.00  0.00    +0.000 A 
ATOM     28  C   UNL     1       2.326   2.771  21.682  0.00  0.00    +0.000 A 
ATOM     29  C   UNL     1       1.007   2.996  21.307  0.00  0.00    +0.000 A 
ATOM     30  C   UNL     1       0.707   3.375  19.996  0.00  0.00    +0.000 A 
ATOM     31  C   UNL     1       1.718   3.514  19.030  0.00  0.00    +0.000 A 
ATOM     32  C   UNL     1       1.327   3.985  17.657  0.00  0.00    +0.000 C 
ENDBRANCH  23  26
ENDBRANCH  18  23
ENDBRANCH  17  18
ENDBRANCH   4  17
TORSDOF 6
ENDMDL
MODEL 4
REMARK VINA RESULT:      -8.4      1.523      4.192
REMARK  Name = 
REMARK  8 active torsions:
REMARK  status: ('A' for Active; 'I' for Inactive)
REMARK    1  A    between atoms: C_1  and  C_2
REMARK    2  A    between atoms: N_7  and  C_8
REMARK    3  A    between atoms: C_11  and  C_12
REMARK    4  A    between atoms: C_12  and  N_13
REMARK    5  A    between atoms: N_13  and  C_14
REMARK    6  A    between atoms: N_13  and  S_18
REMARK    7  A    between atoms: S_18  and  C_21
REMARK    8  A    between atoms: C_26  and  C_27
REMARK                            x       y       z     vdW  Elec       q    Type
REMARK                         _______ _______ _______ _____ _____    ______ ____
ROOT
ATOM      1  C   UNL     1       1.497   8.987  18.896  0.00  0.00    +0.000 A 
ATOM      2  C   UNL     1       1.670   8.014  19.895  0.00  0.00    +0.000 A 
ATOM      3  C   UNL     1       2.613   6.988  19.780  0.00  0.00    +0.000 A 
ATOM      4  C   UNL     1       3.405   6.889  18.636  0.00  0.00    +0.000 A 
ATOM      5  C   UNL     1       3.203   7.814  17.616  0.00  0.00    +0.000 A 
ATOM      6  F   UNL     1       3.923   7.735  16.488  0.00  0.00    +0.000 F 
ATOM      7  C   UNL     1       2.275   8.846  17.741  0.00  0.00    +0.000 A 
ENDROOT
BRANCH   1  14
ATOM      8  C   UNL     1      -2.417  13.495  21.045  0.00  0.00    +0.000 C 
ATOM      9  C   UNL     1      -2.664  12.400  20.043  0.00  0.00    +0.000 C 
ATOM     10  O   UNL     1      -3.653  12.442  19.311  0.00  0.00    +0.000 OA
ATOM     11  N   UNL     1      -1.714  11.401  19.956  0.00  0.00    +0.000 N 
ATOM     12  C   UNL     1      -1.832  10.384  18.903  0.00  0.00    +0.000 C 
ATOM     13  C   UNL     1      -0.517  10.247  18.110  0.00  0.00    +0.000 C 
ATOM     14  N   UNL     1       0.596  10.017  19.050  0.00  0.00    +0.000 N 
ATOM     15  C   UNL     1       0.743  11.050  20.090  0.00  0.00    +0.000 C 
ATOM     16  C   UNL     1      -0.576  11.205  20.866  0.00  0.00    +0.000 C 
ENDBRANCH   1  14
BRANCH   4  17
ATOM     17  C   UNL     1       4.505   5.872  18.536  0.00  0.00    +0.000 C 
BRANCH  17  18
ATOM     18  N   UNL     1       4.297   4.785  17.526  0.00  0.00    +0.000 NA
BRANCH  18  19
ATOM     19  C   UNL     1       5.086   5.076  16.247  0.00  0.00    +0.000 C 
ATOM     20  C   UNL     1       6.522   5.662  16.364  0.00  0.00    +0.000 C 
ATOM     21  C   UNL     1       6.947   4.756  15.198  0.00  0.00    +0.000 C 
ATOM     22  C   UNL     1       5.749   3.860  15.538  0.00  0.00    +0.000 C 
ENDBRANCH  18  19
BRANCH  18  23
ATOM     23  S   UNL     1       4.391   3.242  18.281  0.00  0.00    +0.000 S 
ATOM     24  O   UNL     1       4.093   2.200  17.328  0.00  0.00    +0.000 OA
ATOM     25  O   UNL     1       5.636   3.206  19.024  0.00  0.00    +0.000 OA
BRANCH  23  26
ATOM     26  C   UNL     1       3.041   3.255  19.467  0.00  0.00    +0.000 A 
ATOM     27  C   UNL     1       3.327   2.889  20.791  0.00  0.00    +0.000 A 
ATOM     28  C   UNL     1       2.300   2.764  21.727  0.00  0.00    +0.000 A 
ATOM     29  C   UNL     1       0.984   2.991  21.342  0.00  0.00    +0.000 A 
ATOM     30  C   UNL     1       0.695   3.380  20.032  0.00  0.00    +0.000 A 
ATOM     31  C   UNL     1       1.714   3.525  19.075  0.00  0.00    +0.000 A 
ATOM     32  C   UNL     1       1.335   4.006  17.702  0.00  0.00    +0.000 C 
ENDBRANCH  23  26
ENDBRANCH  18  23
ENDBRANCH  17  18
ENDBRANCH   4  17
TORSDOF 6
ENDMDL
MODEL 5
REMARK VINA RESULT:      -8.3      0.974      1.219
REMARK  Name = 
REMARK  8 active torsions:
REMARK  status: ('A' for Active; 'I' for Inactive)
REMARK    1  A    between atoms: C_1  and  C_2
REMARK    2  A    between atoms: N_7  and  C_8
REMARK    3  A    between atoms: C_11  and  C_12
REMARK    4  A    between atoms: C_12  and  N_13
REMARK    5  A    between atoms: N_13  and  C_14
REMARK    6  A    between atoms: N_13  and  S_18
REMARK    7  A    between atoms: S_18  and  C_21
REMARK    8  A    between atoms: C_26  and  C_27
REMARK                            x       y       z     vdW  Elec       q    Type
REMARK                         _______ _______ _______ _____ _____    ______ ____
ROOT
ATOM      1  C   UNL     1       1.360   9.342  19.441  0.00  0.00    +0.000 A 
ATOM      2  C   UNL     1       1.854   9.293  18.127  0.00  0.00    +0.000 A 
ATOM      3  C   UNL     1       2.455   8.145  17.599  0.00  0.00    +0.000 A 
ATOM      4  C   UNL     1       2.604   7.007  18.390  0.00  0.00    +0.000 A 
ATOM      5  C   UNL     1       2.169   7.063  19.711  0.00  0.00    +0.000 A 
ATOM      6  F   UNL     1       2.321   5.999  20.512  0.00  0.00    +0.000 F 
ATOM      7  C   UNL     1       1.555   8.201  20.228  0.00  0.00    +0.000 A 
ENDROOT
BRANCH   1  14
ATOM      8  C   UNL     1      -0.176  15.083  21.664  0.00  0.00    +0.000 C 
ATOM      9  C   UNL     1      -0.521  13.718  22.196  0.00  0.00    +0.000 C 
ATOM     10  O   UNL     1      -1.410  13.588  23.037  0.00  0.00    +0.000 OA
ATOM     11  N   UNL     1       0.162  12.644  21.661  0.00  0.00    +0.000 N 
ATOM     12  C   UNL     1      -0.228  11.280  22.041  0.00  0.00    +0.000 C 
ATOM     13  C   UNL     1      -0.459  10.399  20.797  0.00  0.00    +0.000 C 
ATOM     14  N   UNL     1       0.729  10.467  19.926  0.00  0.00    +0.000 N 
ATOM     15  C   UNL     1       1.109  11.829  19.512  0.00  0.00    +0.000 C 
ATOM     16  C   UNL     1       1.316  12.715  20.752  0.00  0.00    +0.000 C 
ENDBRANCH   1  14
BRANCH   4  17
ATOM     17  C   UNL     1       3.136   5.725  17.817  0.00  0.00    +0.000 C 
BRANCH  17  18
ATOM     18  N   UNL     1       3.495   4.665  18.813  0.00  0.00    +0.000 NA
BRANCH  18  19
ATOM     19  C   UNL     1       2.628   3.419  18.614  0.00  0.00    +0.000 C 
ATOM     20  C   UNL     1       1.893   2.808  19.840  0.00  0.00    +0.000 C 
ATOM     21  C   UNL     1       0.680   2.542  18.935  0.00  0.00    +0.000 C 
ATOM     22  C   UNL     1       1.214   3.637  18.002  0.00  0.00    +0.000 C 
ENDBRANCH  18  19
BRANCH  18  23
ATOM     23  S   UNL     1       5.204   4.530  18.952  0.00  0.00    +0.000 S 
ATOM     24  O   UNL     1       5.739   5.671  19.656  0.00  0.00    +0.000 OA
ATOM     25  O   UNL     1       5.489   3.190  19.427  0.00  0.00    +0.000 OA
BRANCH  23  26
ATOM     26  C   UNL     1       5.790   4.651  17.258  0.00  0.00    +0.000 A 
ATOM     27  C   UNL     1       5.256   3.761  16.314  0.00  0.00    +0.000 A 
ATOM     28  C   UNL     1       5.758   3.726  15.012  0.00  0.00    +0.000 A 
ATOM     29  C   UNL     1       6.802   4.571  14.652  0.00  0.00    +0.000 A 
ATOM     30  C   UNL     1       7.321   5.476  15.581  0.00  0.00    +0.000 A 
ATOM     31  C   UNL     1       6.822   5.539  16.893  0.00  0.00    +0.000 A 
ATOM     32  C   UNL     1       7.387   6.580  17.818  0.00  0.00    +0.000 C 
ENDBRANCH  23  26
ENDBRANCH  18  23
ENDBRANCH  17  18
ENDBRANCH   4  17
TORSDOF 6
ENDMDL
MODEL 6
REMARK VINA RESULT:      -8.2      1.682      4.125
REMARK  Name = 
REMARK  8 active torsions:
REMARK  status: ('A' for Active; 'I' for Inactive)
REMARK    1  A    between atoms: C_1  and  C_2
REMARK    2  A    between atoms: N_7  and  C_8
REMARK    3  A    between atoms: C_11  and  C_12
REMARK    4  A    between atoms: C_12  and  N_13
REMARK    5  A    between atoms: N_13  and  C_14
REMARK    6  A    between atoms: N_13  and  S_18
REMARK    7  A    between atoms: S_18  and  C_21
REMARK    8  A    between atoms: C_26  and  C_27
REMARK                            x       y       z     vdW  Elec       q    Type
REMARK                         _______ _______ _______ _____ _____    ______ ____
ROOT
ATOM      1  C   UNL     1       1.451   9.177  19.114  0.00  0.00    +0.000 A 
ATOM      2  C   UNL     1       2.328   8.897  18.053  0.00  0.00    +0.000 A 
ATOM      3  C   UNL     1       3.085   7.722  18.002  0.00  0.00    +0.000 A 
ATOM      4  C   UNL     1       3.004   6.791  19.038  0.00  0.00    +0.000 A 
ATOM      5  C   UNL     1       2.180   7.084  20.120  0.00  0.00    +0.000 A 
ATOM      6  F   UNL     1       2.098   6.229  21.150  0.00  0.00    +0.000 F 
ATOM      7  C   UNL     1       1.415   8.247  20.160  0.00  0.00    +0.000 A 
ENDROOT
BRANCH   1  14
ATOM      8  C   UNL     1      -0.864  15.059  19.665  0.00  0.00    +0.000 C 
ATOM      9  C   UNL     1      -1.418  13.753  20.168  0.00  0.00    +0.000 C 
ATOM     10  O   UNL     1      -2.587  13.680  20.545  0.00  0.00    +0.000 OA
ATOM     11  N   UNL     1      -0.577  12.658  20.132  0.00  0.00    +0.000 N 
ATOM     12  C   UNL     1      -1.104  11.332  20.478  0.00  0.00    +0.000 C 
ATOM     13  C   UNL     1      -0.772  10.296  19.387  0.00  0.00    +0.000 C 
ATOM     14  N   UNL     1       0.679  10.318  19.122  0.00  0.00    +0.000 N 
ATOM     15  C   UNL     1       1.212  11.637  18.739  0.00  0.00    +0.000 C 
ATOM     16  C   UNL     1       0.859  12.677  19.816  0.00  0.00    +0.000 C 
ENDBRANCH   1  14
BRANCH   4  17
ATOM     17  C   UNL     1       3.712   5.470  18.953  0.00  0.00    +0.000 C 
BRANCH  17  18
ATOM     18  N   UNL     1       3.893   4.915  17.574  0.00  0.00    +0.000 NA
BRANCH  18  19
ATOM     19  C   UNL     1       5.337   5.103  17.100  0.00  0.00    +0.000 C 
ATOM     20  C   UNL     1       5.773   6.489  16.546  0.00  0.00    +0.000 C 
ATOM     21  C   UNL     1       7.117   6.314  17.271  0.00  0.00    +0.000 C 
ATOM     22  C   UNL     1       6.416   5.316  18.201  0.00  0.00    +0.000 C 
ENDBRANCH  18  19
BRANCH  18  23
ATOM     23  S   UNL     1       3.119   3.385  17.439  0.00  0.00    +0.000 S 
ATOM     24  O   UNL     1       1.999   3.470  16.532  0.00  0.00    +0.000 OA
ATOM     25  O   UNL     1       4.158   2.400  17.210  0.00  0.00    +0.000 OA
BRANCH  23  26
ATOM     26  C   UNL     1       2.436   3.096  19.075  0.00  0.00    +0.000 A 
ATOM     27  C   UNL     1       1.092   3.435  19.294  0.00  0.00    +0.000 A 
ATOM     28  C   UNL     1       0.541   3.346  20.574  0.00  0.00    +0.000 A 
ATOM     29  C   UNL     1       1.332   2.931  21.639  0.00  0.00    +0.000 A 
ATOM     30  C   UNL     1       2.664   2.570  21.422  0.00  0.00    +0.000 A 
ATOM     31  C   UNL     1       3.237   2.638  20.141  0.00  0.00    +0.000 A 
ATOM     32  C   UNL     1       4.657   2.174  19.974  0.00  0.00    +0.000 C 
ENDBRANCH  23  26
ENDBRANCH  18  23
ENDBRANCH  17  18
ENDBRANCH   4  17
TORSDOF 6
ENDMDL
MODEL 7
REMARK VINA RESULT:      -8.0      1.233      1.505
REMARK  Name = 
REMARK  8 active torsions:
REMARK  status: ('A' for Active; 'I' for Inactive)
REMARK    1  A    between atoms: C_1  and  C_2
REMARK    2  A    between atoms: N_7  and  C_8
REMARK    3  A    between atoms: C_11  and  C_12
REMARK    4  A    between atoms: C_12  and  N_13
REMARK    5  A    between atoms: N_13  and  C_14
REMARK    6  A    between atoms: N_13  and  S_18
REMARK    7  A    between atoms: S_18  and  C_21
REMARK    8  A    between atoms: C_26  and  C_27
REMARK                            x       y       z     vdW  Elec       q    Type
REMARK                         _______ _______ _______ _____ _____    ______ ____
ROOT
ATOM      1  C   UNL     1       1.230   9.315  20.383  0.00  0.00    +0.000 A 
ATOM      2  C   UNL     1       1.332   8.075  21.037  0.00  0.00    +0.000 A 
ATOM      3  C   UNL     1       1.829   6.934  20.399  0.00  0.00    +0.000 A 
ATOM      4  C   UNL     1       2.219   6.994  19.062  0.00  0.00    +0.000 A 
ATOM      5  C   UNL     1       2.070   8.203  18.388  0.00  0.00    +0.000 A 
ATOM      6  F   UNL     1       2.406   8.293  17.093  0.00  0.00    +0.000 F 
ATOM      7  C   UNL     1       1.591   9.342  19.031  0.00  0.00    +0.000 A 
ENDROOT
BRANCH   1  14
ATOM      8  C   UNL     1      -2.035  13.657  23.660  0.00  0.00    +0.000 C 
ATOM      9  C   UNL     1      -1.340  13.774  22.330  0.00  0.00    +0.000 C 
ATOM     10  O   UNL     1      -1.118  14.881  21.843  0.00  0.00    +0.000 OA
ATOM     11  N   UNL     1      -0.928  12.599  21.731  0.00  0.00    +0.000 N 
ATOM     12  C   UNL     1      -0.124  12.659  20.504  0.00  0.00    +0.000 C 
ATOM     13  C   UNL     1       1.152  11.804  20.630  0.00  0.00    +0.000 C 
ATOM     14  N   UNL     1       0.783  10.437  21.044  0.00  0.00    +0.000 N 
ATOM     15  C   UNL     1       0.004  10.364  22.293  0.00  0.00    +0.000 C 
ATOM     16  C   UNL     1      -1.257  11.237  22.176  0.00  0.00    +0.000 C 
ENDBRANCH   1  14
BRANCH   4  17
ATOM     17  C   UNL     1       2.865   5.819  18.386  0.00  0.00    +0.000 C 
BRANCH  17  18
ATOM     18  N   UNL     1       3.415   4.765  19.298  0.00  0.00    +0.000 NA
BRANCH  18  19
ATOM     19  C   UNL     1       2.511   3.530  19.306  0.00  0.00    +0.000 C 
ATOM     20  C   UNL     1       1.255   3.521  20.222  0.00  0.00    +0.000 C 
ATOM     21  C   UNL     1       0.484   2.813  19.097  0.00  0.00    +0.000 C 
ATOM     22  C   UNL     1       1.520   3.377  18.116  0.00  0.00    +0.000 C 
ENDBRANCH  18  19
BRANCH  18  23
ATOM     23  S   UNL     1       5.113   4.607  19.073  0.00  0.00    +0.000 S 
ATOM     24  O   UNL     1       5.800   5.748  19.630  0.00  0.00    +0.000 OA
ATOM     25  O   UNL     1       5.477   3.269  19.496  0.00  0.00    +0.000 OA
BRANCH  23  26
ATOM     26  C   UNL     1       5.326   4.699  17.291  0.00  0.00    +0.000 A 
ATOM     27  C   UNL     1       5.058   3.546  16.538  0.00  0.00    +0.000 A 
ATOM     28  C   UNL     1       5.321   3.521  15.167  0.00  0.00    +0.000 A 
ATOM     29  C   UNL     1       5.862   4.641  14.547  0.00  0.00    +0.000 A 
ATOM     30  C   UNL     1       6.107   5.800  15.287  0.00  0.00    +0.000 A 
ATOM     31  C   UNL     1       5.839   5.854  16.665  0.00  0.00    +0.000 A 
ATOM     32  C   UNL     1       6.070   7.154  17.383  0.00  0.00    +0.000 C 
ENDBRANCH  23  26
ENDBRANCH  18  23
ENDBRANCH  17  18
ENDBRANCH   4  17
TORSDOF 6
ENDMDL
MODEL 8
REMARK VINA RESULT:      -8.0      1.077      1.208
REMARK  Name = 
REMARK  8 active torsions:
REMARK  status: ('A' for Active; 'I' for Inactive)
REMARK    1  A    between atoms: C_1  and  C_2
REMARK    2  A    between atoms: N_7  and  C_8
REMARK    3  A    between atoms: C_11  and  C_12
REMARK    4  A    between atoms: C_12  and  N_13
REMARK    5  A    between atoms: N_13  and  C_14
REMARK    6  A    between atoms: N_13  and  S_18
REMARK    7  A    between atoms: S_18  and  C_21
REMARK    8  A    between atoms: C_26  and  C_27
REMARK                            x       y       z     vdW  Elec       q    Type
REMARK                         _______ _______ _______ _____ _____    ______ ____
ROOT
ATOM      1  C   UNL     1       1.389   9.464  19.394  0.00  0.00    +0.000 A 
ATOM      2  C   UNL     1       1.826   9.220  18.081  0.00  0.00    +0.000 A 
ATOM      3  C   UNL     1       2.289   7.966  17.670  0.00  0.00    +0.000 A 
ATOM      4  C   UNL     1       2.353   6.911  18.580  0.00  0.00    +0.000 A 
ATOM      5  C   UNL     1       1.975   7.155  19.897  0.00  0.00    +0.000 A 
ATOM      6  F   UNL     1       2.051   6.175  20.808  0.00  0.00    +0.000 F 
ATOM      7  C   UNL     1       1.499   8.401  20.299  0.00  0.00    +0.000 A 
ENDROOT
BRANCH   1  14
ATOM      8  C   UNL     1      -2.193  14.413  21.105  0.00  0.00    +0.000 C 
ATOM      9  C   UNL     1      -1.166  14.298  20.011  0.00  0.00    +0.000 C 
ATOM     10  O   UNL     1      -0.721  15.309  19.471  0.00  0.00    +0.000 OA
ATOM     11  N   UNL     1      -0.725  13.027  19.694  0.00  0.00    +0.000 N 
ATOM     12  C   UNL     1       0.374  12.865  18.734  0.00  0.00    +0.000 C 
ATOM     13  C   UNL     1       1.486  11.963  19.306  0.00  0.00    +0.000 C 
ATOM     14  N   UNL     1       0.893  10.693  19.766  0.00  0.00    +0.000 N 
ATOM     15  C   UNL     1      -0.188  10.845  20.756  0.00  0.00    +0.000 C 
ATOM     16  C   UNL     1      -1.287  11.764  20.196  0.00  0.00    +0.000 C 
ENDBRANCH   1  14
BRANCH   4  17
ATOM     17  C   UNL     1       2.732   5.526  18.140  0.00  0.00    +0.000 C 
BRANCH  17  18
ATOM     18  N   UNL     1       3.319   4.644  19.199  0.00  0.00    +0.000 NA
BRANCH  18  19
ATOM     19  C   UNL     1       2.508   3.353  19.339  0.00  0.00    +0.000 C 
ATOM     20  C   UNL     1       1.038   3.436  19.838  0.00  0.00    +0.000 C 
ATOM     21  C   UNL     1       0.669   2.346  18.818  0.00  0.00    +0.000 C 
ATOM     22  C   UNL     1       1.925   2.744  18.031  0.00  0.00    +0.000 C 
ENDBRANCH  18  19
BRANCH  18  23
ATOM     23  S   UNL     1       5.031   4.592  19.050  0.00  0.00    +0.000 S 
ATOM     24  O   UNL     1       5.620   5.775  19.632  0.00  0.00    +0.000 OA
ATOM     25  O   UNL     1       5.459   3.280  19.497  0.00  0.00    +0.000 OA
BRANCH  23  26
ATOM     26  C   UNL     1       5.319   4.692  17.279  0.00  0.00    +0.000 A 
ATOM     27  C   UNL     1       5.147   3.525  16.520  0.00  0.00    +0.000 A 
ATOM     28  C   UNL     1       5.471   3.512  15.162  0.00  0.00    +0.000 A 
ATOM     29  C   UNL     1       5.978   4.658  14.562  0.00  0.00    +0.000 A 
ATOM     30  C   UNL     1       6.128   5.830  15.308  0.00  0.00    +0.000 A 
ATOM     31  C   UNL     1       5.796   5.872  16.673  0.00  0.00    +0.000 A 
ATOM     32  C   UNL     1       5.925   7.184  17.395  0.00  0.00    +0.000 C 
ENDBRANCH  23  26
ENDBRANCH  18  23
ENDBRANCH  17  18
ENDBRANCH   4  17
TORSDOF 6
ENDMDL
MODEL 9
REMARK VINA RESULT:      -8.0      1.247      1.710
REMARK  Name = 
REMARK  8 active torsions:
REMARK  status: ('A' for Active; 'I' for Inactive)
REMARK    1  A    between atoms: C_1  and  C_2
REMARK    2  A    between atoms: N_7  and  C_8
REMARK    3  A    between atoms: C_11  and  C_12
REMARK    4  A    between atoms: C_12  and  N_13
REMARK    5  A    between atoms: N_13  and  C_14
REMARK    6  A    between atoms: N_13  and  S_18
REMARK    7  A    between atoms: S_18  and  C_21
REMARK    8  A    between atoms: C_26  and  C_27
REMARK                            x       y       z     vdW  Elec       q    Type
REMARK                         _______ _______ _______ _____ _____    ______ ____
ROOT
ATOM      1  C   UNL     1       1.028   9.366  19.807  0.00  0.00    +0.000 A 
ATOM      2  C   UNL     1       1.326   8.220  20.563  0.00  0.00    +0.000 A 
ATOM      3  C   UNL     1       2.070   7.156  20.042  0.00  0.00    +0.000 A 
ATOM      4  C   UNL     1       2.524   7.198  18.724  0.00  0.00    +0.000 A 
ATOM      5  C   UNL     1       2.188   8.304  17.949  0.00  0.00    +0.000 A 
ATOM      6  F   UNL     1       2.579   8.369  16.669  0.00  0.00    +0.000 F 
ATOM      7  C   UNL     1       1.460   9.369  18.476  0.00  0.00    +0.000 A 
ENDROOT
BRANCH   1  14
ATOM      8  C   UNL     1      -0.882  14.943  22.155  0.00  0.00    +0.000 C 
ATOM      9  C   UNL     1      -1.010  13.558  22.732  0.00  0.00    +0.000 C 
ATOM     10  O   UNL     1      -1.779  13.346  23.668  0.00  0.00    +0.000 OA
ATOM     11  N   UNL     1      -0.275  12.556  22.129  0.00  0.00    +0.000 N 
ATOM     12  C   UNL     1      -0.465  11.165  22.559  0.00  0.00    +0.000 C 
ATOM     13  C   UNL     1      -0.734  10.240  21.355  0.00  0.00    +0.000 C 
ATOM     14  N   UNL     1       0.334  10.422  20.354  0.00  0.00    +0.000 N 
ATOM     15  C   UNL     1       0.509  11.810  19.891  0.00  0.00    +0.000 C 
ATOM     16  C   UNL     1       0.753  12.737  21.094  0.00  0.00    +0.000 C 
ENDBRANCH   1  14
BRANCH   4  17
ATOM     17  C   UNL     1       3.424   6.128  18.177  0.00  0.00    +0.000 C 
BRANCH  17  18
ATOM     18  N   UNL     1       3.695   4.974  19.092  0.00  0.00    +0.000 NA
BRANCH  18  19
ATOM     19  C   UNL     1       2.655   3.869  18.893  0.00  0.00    +0.000 C 
ATOM     20  C   UNL     1       1.519   3.706  19.942  0.00  0.00    +0.000 C 
ATOM     21  C   UNL     1       0.546   3.415  18.788  0.00  0.00    +0.000 C 
ATOM     22  C   UNL     1       1.526   4.145  17.860  0.00  0.00    +0.000 C 
ENDBRANCH  18  19
BRANCH  18  23
ATOM     23  S   UNL     1       5.375   4.605  19.106  0.00  0.00    +0.000 S 
ATOM     24  O   UNL     1       6.110   5.641  19.791  0.00  0.00    +0.000 OA
ATOM     25  O   UNL     1       5.505   3.226  19.534  0.00  0.00    +0.000 OA
BRANCH  23  26
ATOM     26  C   UNL     1       5.854   4.693  17.376  0.00  0.00    +0.000 A 
ATOM     27  C   UNL     1       5.305   3.750  16.494  0.00  0.00    +0.000 A 
ATOM     28  C   UNL     1       5.732   3.693  15.166  0.00  0.00    +0.000 A 
ATOM     29  C   UNL     1       6.714   4.569  14.718  0.00  0.00    +0.000 A 
ATOM     30  C   UNL     1       7.247   5.526  15.585  0.00  0.00    +0.000 A 
ATOM     31  C   UNL     1       6.824   5.611  16.923  0.00  0.00    +0.000 A 
ATOM     32  C   UNL     1       7.396   6.706  17.779  0.00  0.00    +0.000 C 
ENDBRANCH  23  26
ENDBRANCH  18  23
ENDBRANCH  17  18
ENDBRANCH   4  17
TORSDOF 6
ENDMDL
