MODEL 1
REMARK VINA RESULT:      -6.9      0.000      0.000
REMARK  Name = 
REMARK  6 active torsions:
REMARK  status: ('A' for Active; 'I' for Inactive)
REMARK    1  A    between atoms: N_6  and  C_7
REMARK    2  A    between atoms: C_9  and  C_10
REMARK    3  A    between atoms: C_10  and  O_11
REMARK    4  A    between atoms: C_12  and  O_13
REMARK    5  A    between atoms: C_14  and  O_15
REMARK    6  A    between atoms: C_16  and  O_17
REMARK                            x       y       z     vdW  Elec       q    Type
REMARK                         _______ _______ _______ _____ _____    ______ ____
ROOT
ATOM      1  C   UNL     1       4.309   5.008  18.774  0.00  0.00    +0.000 C 
ATOM      2  O   UNL     1       5.520   5.651  19.170  0.00  0.00    +0.000 OA
ATOM      3  C   UNL     1       6.704   4.962  18.740  0.00  0.00    +0.000 C 
ATOM      4  C   UNL     1       6.742   4.811  17.210  0.00  0.00    +0.000 C 
ATOM      5  C   UNL     1       5.472   4.090  16.730  0.00  0.00    +0.000 C 
ATOM      6  C   UNL     1       4.207   4.788  17.244  0.00  0.00    +0.000 C 
ENDROOT
BRANCH   1  12
ATOM      7  O   UNL     1       0.588   8.251  21.120  0.00  0.00    +0.000 OA
ATOM      8  C   UNL     1       1.328   7.495  20.492  0.00  0.00    +0.000 A 
ATOM      9  N   UNL     1       1.615   6.242  20.961  0.00  0.00    +0.000 N 
ATOM     10  C   UNL     1       2.571   5.392  20.469  0.00  0.00    +0.000 A 
ATOM     11  O   UNL     1       2.853   4.366  21.090  0.00  0.00    +0.000 OA
ATOM     12  N   UNL     1       3.178   5.791  19.287  0.00  0.00    +0.000 N 
ATOM     13  C   UNL     1       2.871   7.005  18.693  0.00  0.00    +0.000 A 
ATOM     14  C   UNL     1       1.990   7.872  19.213  0.00  0.00    +0.000 A 
ATOM     15  I   UNL     1       1.586   9.676  18.345  0.00  0.00    +0.000 I 
ATOM     16  H   UNL     1       1.204   5.986  21.845  0.00  0.00    +0.000 HD
ENDBRANCH   1  12
BRANCH   4  17
ATOM     17  O   UNL     1       7.911   4.081  16.817  0.00  0.00    +0.000 OA
ATOM     18  H   UNL     1       8.400   4.588  16.146  0.00  0.00    +0.000 HD
ENDBRANCH   4  17
BRANCH   5  19
ATOM     19  O   UNL     1       5.443   3.992  15.302  0.00  0.00    +0.000 OA
ATOM     20  H   UNL     1       4.829   4.664  14.962  0.00  0.00    +0.000 HD
ENDBRANCH   5  19
BRANCH   6  21
ATOM     21  O   UNL     1       3.029   4.018  16.941  0.00  0.00    +0.000 OA
ATOM     22  H   UNL     1       3.253   3.328  16.294  0.00  0.00    +0.000 HD
ENDBRANCH   6  21
BRANCH   3  23
ATOM     23  C   UNL     1       7.915   5.747  19.267  0.00  0.00    +0.000 C 
BRANCH  23  24
ATOM     24  O   UNL     1       8.168   5.445  20.636  0.00  0.00    +0.000 OA
ATOM     25  H   UNL     1       8.818   6.108  20.948  0.00  0.00    +0.000 HD
ENDBRANCH  23  24
ENDBRANCH   3  23
TORSDOF 6
ENDMDL
MODEL 2
REMARK VINA RESULT:      -6.8      3.541      6.422
REMARK  Name = 
REMARK  6 active torsions:
REMARK  status: ('A' for Active; 'I' for Inactive)
REMARK    1  A    between atoms: N_6  and  C_7
REMARK    2  A    between atoms: C_9  and  C_10
REMARK    3  A    between atoms: C_10  and  O_11
REMARK    4  A    between atoms: C_12  and  O_13
REMARK    5  A    between atoms: C_14  and  O_15
REMARK    6  A    between atoms: C_16  and  O_17
REMARK                            x       y       z     vdW  Elec       q    Type
REMARK                         _______ _______ _______ _____ _____    ______ ____
ROOT
ATOM      1  C   UNL     1       5.144   4.636  17.274  0.00  0.00    +0.000 C 
ATOM      2  O   UNL     1       4.603   3.317  17.315  0.00  0.00    +0.000 OA
ATOM      3  C   UNL     1       3.969   2.994  18.561  0.00  0.00    +0.000 C 
ATOM      4  C   UNL     1       2.825   3.971  18.881  0.00  0.00    +0.000 C 
ATOM      5  C   UNL     1       3.362   5.412  18.884  0.00  0.00    +0.000 C 
ATOM      6  C   UNL     1       4.096   5.736  17.578  0.00  0.00    +0.000 C 
ENDROOT
BRANCH   1  12
ATOM      7  O   UNL     1       7.911   4.794  12.563  0.00  0.00    +0.000 OA
ATOM      8  C   UNL     1       7.196   4.849  13.564  0.00  0.00    +0.000 A 
ATOM      9  N   UNL     1       7.597   5.534  14.677  0.00  0.00    +0.000 N 
ATOM     10  C   UNL     1       6.996   5.502  15.908  0.00  0.00    +0.000 A 
ATOM     11  O   UNL     1       7.556   6.022  16.875  0.00  0.00    +0.000 OA
ATOM     12  N   UNL     1       5.779   4.838  15.965  0.00  0.00    +0.000 N 
ATOM     13  C   UNL     1       5.255   4.198  14.853  0.00  0.00    +0.000 A 
ATOM     14  C   UNL     1       5.878   4.166  13.666  0.00  0.00    +0.000 A 
ATOM     15  I   UNL     1       5.108   3.179  12.053  0.00  0.00    +0.000 I 
ATOM     16  H   UNL     1       8.505   5.971  14.637  0.00  0.00    +0.000 HD
ENDBRANCH   1  12
BRANCH   4  17
ATOM     17  O   UNL     1       2.243   3.651  20.150  0.00  0.00    +0.000 OA
ATOM     18  H   UNL     1       1.425   3.143  20.014  0.00  0.00    +0.000 HD
ENDBRANCH   4  17
BRANCH   5  19
ATOM     19  O   UNL     1       2.308   6.354  19.112  0.00  0.00    +0.000 OA
ATOM     20  H   UNL     1       1.602   6.185  18.465  0.00  0.00    +0.000 HD
ENDBRANCH   5  19
BRANCH   6  21
ATOM     21  O   UNL     1       4.746   7.019  17.651  0.00  0.00    +0.000 OA
ATOM     22  H   UNL     1       5.190   7.106  18.511  0.00  0.00    +0.000 HD
ENDBRANCH   6  21
BRANCH   3  23
ATOM     23  C   UNL     1       3.471   1.543  18.468  0.00  0.00    +0.000 C 
BRANCH  23  24
ATOM     24  O   UNL     1       2.051   1.492  18.372  0.00  0.00    +0.000 OA
ATOM     25  H   UNL     1       1.705   2.060  19.091  0.00  0.00    +0.000 HD
ENDBRANCH  23  24
ENDBRANCH   3  23
TORSDOF 6
ENDMDL
MODEL 3
REMARK VINA RESULT:      -6.6      2.520      4.061
REMARK  Name = 
REMARK  6 active torsions:
REMARK  status: ('A' for Active; 'I' for Inactive)
REMARK    1  A    between atoms: N_6  and  C_7
REMARK    2  A    between atoms: C_9  and  C_10
REMARK    3  A    between atoms: C_10  and  O_11
REMARK    4  A    between atoms: C_12  and  O_13
REMARK    5  A    between atoms: C_14  and  O_15
REMARK    6  A    between atoms: C_16  and  O_17
REMARK                            x       y       z     vdW  Elec       q    Type
REMARK                         _______ _______ _______ _____ _____    ______ ____
ROOT
ATOM      1  C   UNL     1       2.628   5.906  18.955  0.00  0.00    +0.000 C 
ATOM      2  O   UNL     1       1.907   5.093  19.880  0.00  0.00    +0.000 OA
ATOM      3  C   UNL     1       2.174   3.690  19.741  0.00  0.00    +0.000 C 
ATOM      4  C   UNL     1       3.669   3.380  19.924  0.00  0.00    +0.000 C 
ATOM      5  C   UNL     1       4.494   4.206  18.924  0.00  0.00    +0.000 C 
ATOM      6  C   UNL     1       4.162   5.699  19.027  0.00  0.00    +0.000 C 
ENDROOT
BRANCH   1  12
ATOM      7  O   UNL     1       0.590  10.944  19.533  0.00  0.00    +0.000 OA
ATOM      8  C   UNL     1       1.154   9.851  19.488  0.00  0.00    +0.000 A 
ATOM      9  N   UNL     1       1.820   9.450  18.363  0.00  0.00    +0.000 N 
ATOM     10  C   UNL     1       2.308   8.194  18.115  0.00  0.00    +0.000 A 
ATOM     11  O   UNL     1       2.728   7.913  16.991  0.00  0.00    +0.000 OA
ATOM     12  N   UNL     1       2.258   7.309  19.182  0.00  0.00    +0.000 N 
ATOM     13  C   UNL     1       1.686   7.670  20.392  0.00  0.00    +0.000 A 
ATOM     14  C   UNL     1       1.141   8.875  20.612  0.00  0.00    +0.000 A 
ATOM     15  I   UNL     1       0.264   9.371  22.388  0.00  0.00    +0.000 I 
ATOM     16  H   UNL     1       1.806  10.084  17.579  0.00  0.00    +0.000 HD
ENDBRANCH   1  12
BRANCH   4  17
ATOM     17  O   UNL     1       3.909   1.980  19.735  0.00  0.00    +0.000 OA
ATOM     18  H   UNL     1       3.126   1.475  20.012  0.00  0.00    +0.000 HD
ENDBRANCH   4  17
BRANCH   5  19
ATOM     19  O   UNL     1       5.897   3.993  19.112  0.00  0.00    +0.000 OA
ATOM     20  H   UNL     1       6.044   3.723  20.034  0.00  0.00    +0.000 HD
ENDBRANCH   5  19
BRANCH   6  21
ATOM     21  O   UNL     1       4.802   6.448  17.978  0.00  0.00    +0.000 OA
ATOM     22  H   UNL     1       4.441   6.172  17.118  0.00  0.00    +0.000 HD
ENDBRANCH   6  21
BRANCH   3  23
ATOM     23  C   UNL     1       1.307   2.947  20.770  0.00  0.00    +0.000 C 
BRANCH  23  24
ATOM     24  O   UNL     1       2.017   2.742  21.988  0.00  0.00    +0.000 OA
ATOM     25  H   UNL     1       2.317   1.809  21.978  0.00  0.00    +0.000 HD
ENDBRANCH  23  24
ENDBRANCH   3  23
TORSDOF 6
ENDMDL
MODEL 4
REMARK VINA RESULT:      -6.4      3.329      5.707
REMARK  Name = 
REMARK  6 active torsions:
REMARK  status: ('A' for Active; 'I' for Inactive)
REMARK    1  A    between atoms: N_6  and  C_7
REMARK    2  A    between atoms: C_9  and  C_10
REMARK    3  A    between atoms: C_10  and  O_11
REMARK    4  A    between atoms: C_12  and  O_13
REMARK    5  A    between atoms: C_14  and  O_15
REMARK    6  A    between atoms: C_16  and  O_17
REMARK                            x       y       z     vdW  Elec       q    Type
REMARK                         _______ _______ _______ _____ _____    ______ ____
ROOT
ATOM      1  C   UNL     1       4.744   4.621  18.435  0.00  0.00    +0.000 C 
ATOM      2  O   UNL     1       5.108   3.292  18.804  0.00  0.00    +0.000 OA
ATOM      3  C   UNL     1       4.438   2.818  19.982  0.00  0.00    +0.000 C 
ATOM      4  C   UNL     1       2.910   2.846  19.809  0.00  0.00    +0.000 C 
ATOM      5  C   UNL     1       2.457   4.269  19.443  0.00  0.00    +0.000 C 
ATOM      6  C   UNL     1       3.219   4.800  18.224  0.00  0.00    +0.000 C 
ENDROOT
BRANCH   1  12
ATOM      7  O   UNL     1       8.027   5.458  14.146  0.00  0.00    +0.000 OA
ATOM      8  C   UNL     1       7.194   5.354  15.046  0.00  0.00    +0.000 A 
ATOM      9  N   UNL     1       7.374   5.986  16.246  0.00  0.00    +0.000 N 
ATOM     10  C   UNL     1       6.635   5.788  17.383  0.00  0.00    +0.000 A 
ATOM     11  O   UNL     1       7.008   6.285  18.448  0.00  0.00    +0.000 OA
ATOM     12  N   UNL     1       5.506   4.995  17.236  0.00  0.00    +0.000 N 
ATOM     13  C   UNL     1       5.199   4.396  16.025  0.00  0.00    +0.000 A 
ATOM     14  C   UNL     1       5.961   4.528  14.930  0.00  0.00    +0.000 A 
ATOM     15  I   UNL     1       5.515   3.599  13.167  0.00  0.00    +0.000 I 
ATOM     16  H   UNL     1       8.222   6.518  16.354  0.00  0.00    +0.000 HD
ENDBRANCH   1  12
BRANCH   4  17
ATOM     17  O   UNL     1       2.270   2.412  21.015  0.00  0.00    +0.000 OA
ATOM     18  H   UNL     1       2.888   1.870  21.534  0.00  0.00    +0.000 HD
ENDBRANCH   4  17
BRANCH   5  19
ATOM     19  O   UNL     1       1.045   4.316  19.209  0.00  0.00    +0.000 OA
ATOM     20  H   UNL     1       0.894   4.288  18.249  0.00  0.00    +0.000 HD
ENDBRANCH   5  19
BRANCH   6  21
ATOM     21  O   UNL     1       2.922   6.189  17.989  0.00  0.00    +0.000 OA
ATOM     22  H   UNL     1       2.912   6.664  18.837  0.00  0.00    +0.000 HD
ENDBRANCH   6  21
BRANCH   3  23
ATOM     23  C   UNL     1       4.954   1.401  20.273  0.00  0.00    +0.000 C 
BRANCH  23  24
ATOM     24  O   UNL     1       5.561   1.328  21.559  0.00  0.00    +0.000 OA
ATOM     25  H   UNL     1       5.653   2.252  21.873  0.00  0.00    +0.000 HD
ENDBRANCH  23  24
ENDBRANCH   3  23
TORSDOF 6
ENDMDL
MODEL 5
REMARK VINA RESULT:      -6.3      1.004      1.126
REMARK  Name = 
REMARK  6 active torsions:
REMARK  status: ('A' for Active; 'I' for Inactive)
REMARK    1  A    between atoms: N_6  and  C_7
REMARK    2  A    between atoms: C_9  and  C_10
REMARK    3  A    between atoms: C_10  and  O_11
REMARK    4  A    between atoms: C_12  and  O_13
REMARK    5  A    between atoms: C_14  and  O_15
REMARK    6  A    between atoms: C_16  and  O_17
REMARK                            x       y       z     vdW  Elec       q    Type
REMARK                         _______ _______ _______ _____ _____    ______ ____
ROOT
ATOM      1  C   UNL     1       4.463   5.308  18.470  0.00  0.00    +0.000 C 
ATOM      2  O   UNL     1       5.560   6.219  18.518  0.00  0.00    +0.000 OA
ATOM      3  C   UNL     1       6.773   5.687  17.966  0.00  0.00    +0.000 C 
ATOM      4  C   UNL     1       6.588   5.267  16.498  0.00  0.00    +0.000 C 
ATOM      5  C   UNL     1       5.435   4.255  16.392  0.00  0.00    +0.000 C 
ATOM      6  C   UNL     1       4.156   4.797  17.040  0.00  0.00    +0.000 C 
ENDROOT
BRANCH   1  12
ATOM      7  O   UNL     1       0.591   8.055  21.178  0.00  0.00    +0.000 OA
ATOM      8  C   UNL     1       1.364   7.410  20.470  0.00  0.00    +0.000 A 
ATOM      9  N   UNL     1       1.766   6.154  20.832  0.00  0.00    +0.000 N 
ATOM     10  C   UNL     1       2.767   5.424  20.245  0.00  0.00    +0.000 A 
ATOM     11  O   UNL     1       3.153   4.381  20.777  0.00  0.00    +0.000 OA
ATOM     12  N   UNL     1       3.294   5.956  19.078  0.00  0.00    +0.000 N 
ATOM     13  C   UNL     1       2.869   7.181  18.589  0.00  0.00    +0.000 A 
ATOM     14  C   UNL     1       1.943   7.932  19.202  0.00  0.00    +0.000 A 
ATOM     15  I   UNL     1       1.365   9.756  18.488  0.00  0.00    +0.000 I 
ATOM     16  H   UNL     1       1.412   5.801  21.707  0.00  0.00    +0.000 HD
ENDBRANCH   1  12
BRANCH   4  17
ATOM     17  O   UNL     1       7.801   4.699  15.990  0.00  0.00    +0.000 OA
ATOM     18  H   UNL     1       8.393   5.410  15.691  0.00  0.00    +0.000 HD
ENDBRANCH   4  17
BRANCH   5  19
ATOM     19  O   UNL     1       5.190   3.894  15.029  0.00  0.00    +0.000 OA
ATOM     20  H   UNL     1       5.333   4.679  14.474  0.00  0.00    +0.000 HD
ENDBRANCH   5  19
BRANCH   6  21
ATOM     21  O   UNL     1       3.132   3.786  17.095  0.00  0.00    +0.000 OA
ATOM     22  H   UNL     1       2.626   3.796  16.264  0.00  0.00    +0.000 HD
ENDBRANCH   6  21
BRANCH   3  23
ATOM     23  C   UNL     1       7.864   6.758  18.119  0.00  0.00    +0.000 C 
BRANCH  23  24
ATOM     24  O   UNL     1       7.847   7.669  17.024  0.00  0.00    +0.000 OA
ATOM     25  H   UNL     1       8.071   8.548  17.394  0.00  0.00    +0.000 HD
ENDBRANCH  23  24
ENDBRANCH   3  23
TORSDOF 6
ENDMDL
MODEL 6
REMARK VINA RESULT:      -6.2      2.991      6.214
REMARK  Name = 
REMARK  6 active torsions:
REMARK  status: ('A' for Active; 'I' for Inactive)
REMARK    1  A    between atoms: N_6  and  C_7
REMARK    2  A    between atoms: C_9  and  C_10
REMARK    3  A    between atoms: C_10  and  O_11
REMARK    4  A    between atoms: C_12  and  O_13
REMARK    5  A    between atoms: C_14  and  O_15
REMARK    6  A    between atoms: C_16  and  O_17
REMARK                            x       y       z     vdW  Elec       q    Type
REMARK                         _______ _______ _______ _____ _____    ______ ____
ROOT
ATOM      1  C   UNL     1       4.359   4.032  18.801  0.00  0.00    +0.000 C 
ATOM      2  O   UNL     1       3.472   3.030  18.305  0.00  0.00    +0.000 OA
ATOM      3  C   UNL     1       2.523   2.570  19.279  0.00  0.00    +0.000 C 
ATOM      4  C   UNL     1       1.660   3.726  19.813  0.00  0.00    +0.000 C 
ATOM      5  C   UNL     1       2.567   4.823  20.393  0.00  0.00    +0.000 C 
ATOM      6  C   UNL     1       3.623   5.269  19.375  0.00  0.00    +0.000 C 
ENDROOT
BRANCH   1  12
ATOM      7  O   UNL     1       8.089   4.736  14.869  0.00  0.00    +0.000 OA
ATOM      8  C   UNL     1       7.186   4.695  15.704  0.00  0.00    +0.000 A 
ATOM      9  N   UNL     1       7.423   5.020  17.011  0.00  0.00    +0.000 N 
ATOM     10  C   UNL     1       6.567   4.821  18.063  0.00  0.00    +0.000 A 
ATOM     11  O   UNL     1       6.967   4.992  19.216  0.00  0.00    +0.000 OA
ATOM     12  N   UNL     1       5.288   4.404  17.726  0.00  0.00    +0.000 N 
ATOM     13  C   UNL     1       4.938   4.145  16.410  0.00  0.00    +0.000 A 
ATOM     14  C   UNL     1       5.796   4.268  15.387  0.00  0.00    +0.000 A 
ATOM     15  I   UNL     1       5.272   3.839  13.461  0.00  0.00    +0.000 I 
ATOM     16  H   UNL     1       8.369   5.275  17.250  0.00  0.00    +0.000 HD
ENDBRANCH   1  12
BRANCH   4  17
ATOM     17  O   UNL     1       0.756   3.243  20.814  0.00  0.00    +0.000 OA
ATOM     18  H   UNL     1      -0.146   3.543  20.609  0.00  0.00    +0.000 HD
ENDBRANCH   4  17
BRANCH   5  19
ATOM     19  O   UNL     1       1.798   5.945  20.839  0.00  0.00    +0.000 OA
ATOM     20  H   UNL     1       0.924   5.625  21.120  0.00  0.00    +0.000 HD
ENDBRANCH   5  19
BRANCH   6  21
ATOM     21  O   UNL     1       4.577   6.166  19.974  0.00  0.00    +0.000 OA
ATOM     22  H   UNL     1       5.358   5.662  20.259  0.00  0.00    +0.000 HD
ENDBRANCH   6  21
BRANCH   3  23
ATOM     23  C   UNL     1       1.669   1.479  18.616  0.00  0.00    +0.000 C 
BRANCH  23  24
ATOM     24  O   UNL     1       0.342   1.938  18.378  0.00  0.00    +0.000 OA
ATOM     25  H   UNL     1       0.307   2.202  17.435  0.00  0.00    +0.000 HD
ENDBRANCH  23  24
ENDBRANCH   3  23
TORSDOF 6
ENDMDL
MODEL 7
REMARK VINA RESULT:      -6.2      3.195      5.962
REMARK  Name = 
REMARK  6 active torsions:
REMARK  status: ('A' for Active; 'I' for Inactive)
REMARK    1  A    between atoms: N_6  and  C_7
REMARK    2  A    between atoms: C_9  and  C_10
REMARK    3  A    between atoms: C_10  and  O_11
REMARK    4  A    between atoms: C_12  and  O_13
REMARK    5  A    between atoms: C_14  and  O_15
REMARK    6  A    between atoms: C_16  and  O_17
REMARK                            x       y       z     vdW  Elec       q    Type
REMARK                         _______ _______ _______ _____ _____    ______ ____
ROOT
ATOM      1  C   UNL     1       3.922   4.823  17.339  0.00  0.00    +0.000 C 
ATOM      2  O   UNL     1       3.528   6.062  17.926  0.00  0.00    +0.000 OA
ATOM      3  C   UNL     1       2.460   5.934  18.876  0.00  0.00    +0.000 C 
ATOM      4  C   UNL     1       2.839   4.980  20.023  0.00  0.00    +0.000 C 
ATOM      5  C   UNL     1       3.241   3.613  19.446  0.00  0.00    +0.000 C 
ATOM      6  C   UNL     1       4.336   3.756  18.383  0.00  0.00    +0.000 C 
ENDROOT
BRANCH   1  12
ATOM      7  O   UNL     1       8.270   5.223  14.051  0.00  0.00    +0.000 OA
ATOM      8  C   UNL     1       7.225   5.221  14.702  0.00  0.00    +0.000 A 
ATOM      9  N   UNL     1       7.139   5.887  15.893  0.00  0.00    +0.000 N 
ATOM     10  C   UNL     1       6.115   5.796  16.799  0.00  0.00    +0.000 A 
ATOM     11  O   UNL     1       6.239   6.307  17.914  0.00  0.00    +0.000 OA
ATOM     12  N   UNL     1       5.000   5.087  16.376  0.00  0.00    +0.000 N 
ATOM     13  C   UNL     1       4.970   4.462  15.140  0.00  0.00    +0.000 A 
ATOM     14  C   UNL     1       6.000   4.488  14.282  0.00  0.00    +0.000 A 
ATOM     15  I   UNL     1       5.951   3.523  12.483  0.00  0.00    +0.000 I 
ATOM     16  H   UNL     1       7.972   6.357  16.209  0.00  0.00    +0.000 HD
ENDBRANCH   1  12
BRANCH   4  17
ATOM     17  O   UNL     1       1.738   4.837  20.929  0.00  0.00    +0.000 OA
ATOM     18  H   UNL     1       1.408   3.923  20.898  0.00  0.00    +0.000 HD
ENDBRANCH   4  17
BRANCH   5  19
ATOM     19  O   UNL     1       3.664   2.721  20.483  0.00  0.00    +0.000 OA
ATOM     20  H   UNL     1       2.931   2.613  21.112  0.00  0.00    +0.000 HD
ENDBRANCH   5  19
BRANCH   6  21
ATOM     21  O   UNL     1       4.587   2.501  17.723  0.00  0.00    +0.000 OA
ATOM     22  H   UNL     1       3.828   1.909  17.858  0.00  0.00    +0.000 HD
ENDBRANCH   6  21
BRANCH   3  23
ATOM     23  C   UNL     1       2.125   7.341  19.392  0.00  0.00    +0.000 C 
BRANCH  23  24
ATOM     24  O   UNL     1       2.260   7.416  20.809  0.00  0.00    +0.000 OA
ATOM     25  H   UNL     1       1.583   8.053  21.117  0.00  0.00    +0.000 HD
ENDBRANCH  23  24
ENDBRANCH   3  23
TORSDOF 6
ENDMDL
MODEL 8
REMARK VINA RESULT:      -6.1      2.500      2.915
REMARK  Name = 
REMARK  6 active torsions:
REMARK  status: ('A' for Active; 'I' for Inactive)
REMARK    1  A    between atoms: N_6  and  C_7
REMARK    2  A    between atoms: C_9  and  C_10
REMARK    3  A    between atoms: C_10  and  O_11
REMARK    4  A    between atoms: C_12  and  O_13
REMARK    5  A    between atoms: C_14  and  O_15
REMARK    6  A    between atoms: C_16  and  O_17
REMARK                            x       y       z     vdW  Elec       q    Type
REMARK                         _______ _______ _______ _____ _____    ______ ____
ROOT
ATOM      1  C   UNL     1       5.460   3.976  18.201  0.00  0.00    +0.000 C 
ATOM      2  O   UNL     1       6.002   5.281  18.398  0.00  0.00    +0.000 OA
ATOM      3  C   UNL     1       7.112   5.578  17.539  0.00  0.00    +0.000 C 
ATOM      4  C   UNL     1       6.724   5.460  16.055  0.00  0.00    +0.000 C 
ATOM      5  C   UNL     1       6.164   4.055  15.778  0.00  0.00    +0.000 C 
ATOM      6  C   UNL     1       5.020   3.712  16.739  0.00  0.00    +0.000 C 
ENDROOT
BRANCH   1  12
ATOM      7  O   UNL     1       1.803   3.494  22.233  0.00  0.00    +0.000 OA
ATOM      8  C   UNL     1       2.517   3.592  21.235  0.00  0.00    +0.000 A 
ATOM      9  N   UNL     1       3.318   2.557  20.840  0.00  0.00    +0.000 N 
ATOM     10  C   UNL     1       4.297   2.611  19.882  0.00  0.00    +0.000 A 
ATOM     11  O   UNL     1       5.069   1.660  19.744  0.00  0.00    +0.000 OA
ATOM     12  N   UNL     1       4.352   3.785  19.145  0.00  0.00    +0.000 N 
ATOM     13  C   UNL     1       3.507   4.848  19.420  0.00  0.00    +0.000 A 
ATOM     14  C   UNL     1       2.598   4.825  20.405  0.00  0.00    +0.000 A 
ATOM     15  I   UNL     1       1.393   6.420  20.821  0.00  0.00    +0.000 I 
ATOM     16  H   UNL     1       3.303   1.729  21.414  0.00  0.00    +0.000 HD
ENDBRANCH   1  12
BRANCH   4  17
ATOM     17  O   UNL     1       7.862   5.718  15.225  0.00  0.00    +0.000 OA
ATOM     18  H   UNL     1       8.024   4.952  14.649  0.00  0.00    +0.000 HD
ENDBRANCH   4  17
BRANCH   5  19
ATOM     19  O   UNL     1       5.729   3.933  14.420  0.00  0.00    +0.000 OA
ATOM     20  H   UNL     1       6.500   4.052  13.840  0.00  0.00    +0.000 HD
ENDBRANCH   5  19
BRANCH   6  21
ATOM     21  O   UNL     1       4.614   2.338  16.595  0.00  0.00    +0.000 OA
ATOM     22  H   UNL     1       5.331   1.834  16.174  0.00  0.00    +0.000 HD
ENDBRANCH   6  21
BRANCH   3  23
ATOM     23  C   UNL     1       7.606   6.990  17.888  0.00  0.00    +0.000 C 
BRANCH  23  24
ATOM     24  O   UNL     1       7.135   7.949  16.945  0.00  0.00    +0.000 OA
ATOM     25  H   UNL     1       6.868   8.736  17.463  0.00  0.00    +0.000 HD
ENDBRANCH  23  24
ENDBRANCH   3  23
TORSDOF 6
ENDMDL
MODEL 9
REMARK VINA RESULT:      -6.0      2.277      3.317
REMARK  Name = 
REMARK  6 active torsions:
REMARK  status: ('A' for Active; 'I' for Inactive)
REMARK    1  A    between atoms: N_6  and  C_7
REMARK    2  A    between atoms: C_9  and  C_10
REMARK    3  A    between atoms: C_10  and  O_11
REMARK    4  A    between atoms: C_12  and  O_13
REMARK    5  A    between atoms: C_14  and  O_15
REMARK    6  A    between atoms: C_16  and  O_17
REMARK                            x       y       z     vdW  Elec       q    Type
REMARK                         _______ _______ _______ _____ _____    ______ ____
ROOT
ATOM      1  C   UNL     1       2.924   5.973  19.774  0.00  0.00    +0.000 C 
ATOM      2  O   UNL     1       4.069   6.006  18.924  0.00  0.00    +0.000 OA
ATOM      3  C   UNL     1       4.776   4.758  18.862  0.00  0.00    +0.000 C 
ATOM      4  C   UNL     1       3.867   3.620  18.367  0.00  0.00    +0.000 C 
ATOM      5  C   UNL     1       2.629   3.516  19.274  0.00  0.00    +0.000 C 
ATOM      6  C   UNL     1       1.910   4.865  19.392  0.00  0.00    +0.000 C 
ENDROOT
BRANCH   1  12
ATOM      7  O   UNL     1       0.002  10.585  19.526  0.00  0.00    +0.000 OA
ATOM      8  C   UNL     1       0.755   9.620  19.659  0.00  0.00    +0.000 A 
ATOM      9  N   UNL     1       1.511   9.170  18.612  0.00  0.00    +0.000 N 
ATOM     10  C   UNL     1       2.223   7.999  18.572  0.00  0.00    +0.000 A 
ATOM     11  O   UNL     1       2.718   7.622  17.508  0.00  0.00    +0.000 OA
ATOM     12  N   UNL     1       2.303   7.304  19.770  0.00  0.00    +0.000 N 
ATOM     13  C   UNL     1       1.643   7.746  20.905  0.00  0.00    +0.000 A 
ATOM     14  C   UNL     1       0.885   8.852  20.927  0.00  0.00    +0.000 A 
ATOM     15  I   UNL     1      -0.115   9.461  22.600  0.00  0.00    +0.000 I 
ATOM     16  H   UNL     1       1.406   9.656  17.736  0.00  0.00    +0.000 HD
ENDBRANCH   1  12
BRANCH   4  17
ATOM     17  O   UNL     1       4.587   2.382  18.361  0.00  0.00    +0.000 OA
ATOM     18  H   UNL     1       4.563   1.987  19.249  0.00  0.00    +0.000 HD
ENDBRANCH   4  17
BRANCH   5  19
ATOM     19  O   UNL     1       1.727   2.510  18.801  0.00  0.00    +0.000 OA
ATOM     20  H   UNL     1       1.612   2.628  17.843  0.00  0.00    +0.000 HD
ENDBRANCH   5  19
BRANCH   6  21
ATOM     21  O   UNL     1       0.858   4.810  20.373  0.00  0.00    +0.000 OA
ATOM     22  H   UNL     1       0.306   4.027  20.208  0.00  0.00    +0.000 HD
ENDBRANCH   6  21
BRANCH   3  23
ATOM     23  C   UNL     1       5.992   4.957  17.945  0.00  0.00    +0.000 C 
BRANCH  23  24
ATOM     24  O   UNL     1       7.076   4.122  18.340  0.00  0.00    +0.000 OA
ATOM     25  H   UNL     1       7.895   4.616  18.129  0.00  0.00    +0.000 HD
ENDBRANCH  23  24
ENDBRANCH   3  23
TORSDOF 6
ENDMDL
