MODEL 1
REMARK VINA RESULT:      -8.6      0.000      0.000
REMARK  Name = 
REMARK  10 active torsions:
REMARK  status: ('A' for Active; 'I' for Inactive)
REMARK    1  A    between atoms: C_1  and  O_2
REMARK    2  A    between atoms: O_2  and  C_3
REMARK    3  A    between atoms: C_6  and  C_7
REMARK    4  A    between atoms: C_7  and  N_8
REMARK    5  A    between atoms: C_9  and  C_11
REMARK    6  A    between atoms: C_11  and  C_12
REMARK    7  A    between atoms: C_12  and  C_13
REMARK    8  A    between atoms: C_14  and  C_15
REMARK    9  A    between atoms: C_19  and  C_20
REMARK   10  A    between atoms: C_21  and  C_22
REMARK                            x       y       z     vdW  Elec       q    Type
REMARK                         _______ _______ _______ _____ _____    ______ ____
ROOT
ATOM      1  C   UNL     1       3.506   6.416  18.523  0.00  0.00    +0.000 A 
ATOM      2  C   UNL     1       2.616   6.572  19.521  0.00  0.00    +0.000 A 
ATOM      3  C   UNL     1       2.222   5.516  20.527  0.00  0.00    +0.000 C 
ATOM      4  C   UNL     1       1.924   7.855  19.627  0.00  0.00    +0.000 A 
ATOM      5  C   UNL     1       1.427   8.266  20.856  0.00  0.00    +0.000 A 
ATOM      6  C   UNL     1       0.594   9.381  20.917  0.00  0.00    +0.000 A 
ATOM      7  C   UNL     1      -0.095   9.983  21.990  0.00  0.00    +0.000 A 
ATOM      8  C   UNL     1      -0.053   9.554  23.406  0.00  0.00    +0.000 C 
ATOM      9  C   UNL     1      -0.835  10.998  21.418  0.00  0.00    +0.000 A 
ATOM     10  C   UNL     1      -1.809  11.925  22.032  0.00  0.00    +0.000 C 
ATOM     11  O   UNL     1      -0.578  11.091  20.071  0.00  0.00    +0.000 OA
ATOM     12  C   UNL     1       0.314  10.091  19.758  0.00  0.00    +0.000 A 
ATOM     13  C   UNL     1       0.900   9.790  18.518  0.00  0.00    +0.000 A 
ATOM     14  C   UNL     1       1.750   8.659  18.515  0.00  0.00    +0.000 A 
ATOM     15  O   UNL     1       2.529   8.369  17.370  0.00  0.00    +0.000 OA
ATOM     16  C   UNL     1       3.613   7.469  17.475  0.00  0.00    +0.000 A 
ATOM     17  O   UNL     1       4.546   7.516  16.682  0.00  0.00    +0.000 OA
ENDROOT
BRANCH   1  18
ATOM     18  C   UNL     1       4.374   5.173  18.525  0.00  0.00    +0.000 C 
BRANCH  18  19
ATOM     19  C   UNL     1       5.751   5.165  19.175  0.00  0.00    +0.000 C 
BRANCH  19  21
ATOM     20  N   UNL     1       6.504   5.531  16.908  0.00  0.00    +0.000 N 
ATOM     21  C   UNL     1       6.825   4.947  18.109  0.00  0.00    +0.000 C 
ATOM     22  O   UNL     1       7.855   4.317  18.301  0.00  0.00    +0.000 OA
ATOM     23  H   UNL     1       5.655   6.070  16.827  0.00  0.00    +0.000 HD
BRANCH  20  24
ATOM     24  C   UNL     1       7.388   5.478  15.760  0.00  0.00    +0.000 C 
BRANCH  24  28
ATOM     25  C   UNL     1       5.557   3.412  12.428  0.00  0.00    +0.000 A 
ATOM     26  C   UNL     1       6.815   4.001  12.290  0.00  0.00    +0.000 A 
ATOM     27  C   UNL     1       7.411   4.662  13.367  0.00  0.00    +0.000 A 
ATOM     28  C   UNL     1       6.747   4.763  14.596  0.00  0.00    +0.000 A 
ATOM     29  C   UNL     1       5.489   4.164  14.730  0.00  0.00    +0.000 A 
ATOM     30  C   UNL     1       4.895   3.496  13.651  0.00  0.00    +0.000 A 
BRANCH  25  32
ATOM     31  C   UNL     1       3.764   3.248  10.897  0.00  0.00    +0.000 C 
ATOM     32  O   UNL     1       5.061   2.818  11.298  0.00  0.00    +0.000 OA
ENDBRANCH  25  32
ENDBRANCH  24  28
ENDBRANCH  20  24
ENDBRANCH  19  21
ENDBRANCH  18  19
ENDBRANCH   1  18
TORSDOF 6
ENDMDL
MODEL 2
REMARK VINA RESULT:      -8.5      0.519      1.001
REMARK  Name = 
REMARK  10 active torsions:
REMARK  status: ('A' for Active; 'I' for Inactive)
REMARK    1  A    between atoms: C_1  and  O_2
REMARK    2  A    between atoms: O_2  and  C_3
REMARK    3  A    between atoms: C_6  and  C_7
REMARK    4  A    between atoms: C_7  and  N_8
REMARK    5  A    between atoms: C_9  and  C_11
REMARK    6  A    between atoms: C_11  and  C_12
REMARK    7  A    between atoms: C_12  and  C_13
REMARK    8  A    between atoms: C_14  and  C_15
REMARK    9  A    between atoms: C_19  and  C_20
REMARK   10  A    between atoms: C_21  and  C_22
REMARK                            x       y       z     vdW  Elec       q    Type
REMARK                         _______ _______ _______ _____ _____    ______ ____
ROOT
ATOM      1  C   UNL     1       3.335   6.064  18.646  0.00  0.00    +0.000 A 
ATOM      2  C   UNL     1       2.406   6.314  19.587  0.00  0.00    +0.000 A 
ATOM      3  C   UNL     1       1.799   5.294  20.522  0.00  0.00    +0.000 C 
ATOM      4  C   UNL     1       1.891   7.677  19.698  0.00  0.00    +0.000 A 
ATOM      5  C   UNL     1       1.367   8.116  20.905  0.00  0.00    +0.000 A 
ATOM      6  C   UNL     1       0.694   9.335  20.955  0.00  0.00    +0.000 A 
ATOM      7  C   UNL     1       0.019   9.995  22.002  0.00  0.00    +0.000 A 
ATOM      8  C   UNL     1      -0.101   9.522  23.400  0.00  0.00    +0.000 C 
ATOM      9  C   UNL     1      -0.531  11.120  21.423  0.00  0.00    +0.000 A 
ATOM     10  C   UNL     1      -1.410  12.156  22.006  0.00  0.00    +0.000 C 
ATOM     11  O   UNL     1      -0.167  11.217  20.101  0.00  0.00    +0.000 OA
ATOM     12  C   UNL     1       0.599  10.112  19.809  0.00  0.00    +0.000 A 
ATOM     13  C   UNL     1       1.225   9.768  18.600  0.00  0.00    +0.000 A 
ATOM     14  C   UNL     1       1.910   8.530  18.609  0.00  0.00    +0.000 A 
ATOM     15  O   UNL     1       2.721   8.169  17.509  0.00  0.00    +0.000 OA
ATOM     16  C   UNL     1       3.661   7.123  17.650  0.00  0.00    +0.000 A 
ATOM     17  O   UNL     1       4.647   7.063  16.924  0.00  0.00    +0.000 OA
ENDROOT
BRANCH   1  18
ATOM     18  C   UNL     1       4.022   4.713  18.657  0.00  0.00    +0.000 C 
BRANCH  18  19
ATOM     19  C   UNL     1       5.294   4.473  19.458  0.00  0.00    +0.000 C 
BRANCH  19  21
ATOM     20  N   UNL     1       6.283   4.489  17.253  0.00  0.00    +0.000 N 
ATOM     21  C   UNL     1       6.516   4.747  18.582  0.00  0.00    +0.000 C 
ATOM     22  O   UNL     1       7.588   5.146  19.016  0.00  0.00    +0.000 OA
ATOM     23  H   UNL     1       5.364   4.198  16.956  0.00  0.00    +0.000 HD
BRANCH  20  24
ATOM     24  C   UNL     1       7.291   4.705  16.233  0.00  0.00    +0.000 C 
BRANCH  24  28
ATOM     25  C   UNL     1       5.766   3.851  12.275  0.00  0.00    +0.000 A 
ATOM     26  C   UNL     1       4.976   3.621  13.402  0.00  0.00    +0.000 A 
ATOM     27  C   UNL     1       5.463   3.903  14.681  0.00  0.00    +0.000 A 
ATOM     28  C   UNL     1       6.761   4.402  14.854  0.00  0.00    +0.000 A 
ATOM     29  C   UNL     1       7.546   4.637  13.718  0.00  0.00    +0.000 A 
ATOM     30  C   UNL     1       7.053   4.359  12.437  0.00  0.00    +0.000 A 
BRANCH  25  32
ATOM     31  C   UNL     1       3.852   3.037  11.152  0.00  0.00    +0.000 C 
ATOM     32  O   UNL     1       5.193   3.511  11.079  0.00  0.00    +0.000 OA
ENDBRANCH  25  32
ENDBRANCH  24  28
ENDBRANCH  20  24
ENDBRANCH  19  21
ENDBRANCH  18  19
ENDBRANCH   1  18
TORSDOF 6
ENDMDL
MODEL 3
REMARK VINA RESULT:      -7.9      2.330      3.796
REMARK  Name = 
REMARK  10 active torsions:
REMARK  status: ('A' for Active; 'I' for Inactive)
REMARK    1  A    between atoms: C_1  and  O_2
REMARK    2  A    between atoms: O_2  and  C_3
REMARK    3  A    between atoms: C_6  and  C_7
REMARK    4  A    between atoms: C_7  and  N_8
REMARK    5  A    between atoms: C_9  and  C_11
REMARK    6  A    between atoms: C_11  and  C_12
REMARK    7  A    between atoms: C_12  and  C_13
REMARK    8  A    between atoms: C_14  and  C_15
REMARK    9  A    between atoms: C_19  and  C_20
REMARK   10  A    between atoms: C_21  and  C_22
REMARK                            x       y       z     vdW  Elec       q    Type
REMARK                         _______ _______ _______ _____ _____    ______ ____
ROOT
ATOM      1  C   UNL     1       1.736   7.335  20.101  0.00  0.00    +0.000 A 
ATOM      2  C   UNL     1       0.971   8.309  20.629  0.00  0.00    +0.000 A 
ATOM      3  C   UNL     1       0.001   8.146  21.776  0.00  0.00    +0.000 C 
ATOM      4  C   UNL     1       1.035   9.636  20.021  0.00  0.00    +0.000 A 
ATOM      5  C   UNL     1       0.715  10.753  20.780  0.00  0.00    +0.000 A 
ATOM      6  C   UNL     1       0.578  11.989  20.150  0.00  0.00    +0.000 A 
ATOM      7  C   UNL     1       0.207  13.258  20.641  0.00  0.00    +0.000 A 
ATOM      8  C   UNL     1      -0.104  13.594  22.048  0.00  0.00    +0.000 C 
ATOM      9  C   UNL     1       0.153  14.072  19.528  0.00  0.00    +0.000 A 
ATOM     10  C   UNL     1      -0.252  15.488  19.405  0.00  0.00    +0.000 C 
ATOM     11  O   UNL     1       0.539  13.386  18.401  0.00  0.00    +0.000 OA
ATOM     12  C   UNL     1       0.809  12.093  18.786  0.00  0.00    +0.000 A 
ATOM     13  C   UNL     1       1.261  11.017  18.005  0.00  0.00    +0.000 A 
ATOM     14  C   UNL     1       1.401   9.790  18.696  0.00  0.00    +0.000 A 
ATOM     15  O   UNL     1       2.015   8.689  18.055  0.00  0.00    +0.000 OA
ATOM     16  C   UNL     1       2.463   7.594  18.827  0.00  0.00    +0.000 A 
ATOM     17  O   UNL     1       3.353   6.858  18.416  0.00  0.00    +0.000 OA
ENDROOT
BRANCH   1  18
ATOM     18  C   UNL     1       1.833   6.018  20.844  0.00  0.00    +0.000 C 
BRANCH  18  19
ATOM     19  C   UNL     1       1.058   4.788  20.391  0.00  0.00    +0.000 C 
BRANCH  19  21
ATOM     20  N   UNL     1       3.313   4.019  19.986  0.00  0.00    +0.000 N 
ATOM     21  C   UNL     1       1.994   3.830  19.654  0.00  0.00    +0.000 C 
ATOM     22  O   UNL     1       1.612   2.990  18.850  0.00  0.00    +0.000 OA
ATOM     23  H   UNL     1       3.557   4.703  20.685  0.00  0.00    +0.000 HD
BRANCH  20  24
ATOM     24  C   UNL     1       4.376   3.203  19.431  0.00  0.00    +0.000 C 
BRANCH  24  28
ATOM     25  C   UNL     1       6.291   5.168  16.085  0.00  0.00    +0.000 A 
ATOM     26  C   UNL     1       5.173   4.358  15.884  0.00  0.00    +0.000 A 
ATOM     27  C   UNL     1       4.548   3.728  16.964  0.00  0.00    +0.000 A 
ATOM     28  C   UNL     1       5.047   3.883  18.264  0.00  0.00    +0.000 A 
ATOM     29  C   UNL     1       6.166   4.703  18.459  0.00  0.00    +0.000 A 
ATOM     30  C   UNL     1       6.786   5.339  17.377  0.00  0.00    +0.000 A 
BRANCH  25  32
ATOM     31  C   UNL     1       7.052   4.797  13.879  0.00  0.00    +0.000 C 
ATOM     32  O   UNL     1       6.835   5.709  14.951  0.00  0.00    +0.000 OA
ENDBRANCH  25  32
ENDBRANCH  24  28
ENDBRANCH  20  24
ENDBRANCH  19  21
ENDBRANCH  18  19
ENDBRANCH   1  18
TORSDOF 6
ENDMDL
MODEL 4
REMARK VINA RESULT:      -7.8      3.066      4.623
REMARK  Name = 
REMARK  10 active torsions:
REMARK  status: ('A' for Active; 'I' for Inactive)
REMARK    1  A    between atoms: C_1  and  O_2
REMARK    2  A    between atoms: O_2  and  C_3
REMARK    3  A    between atoms: C_6  and  C_7
REMARK    4  A    between atoms: C_7  and  N_8
REMARK    5  A    between atoms: C_9  and  C_11
REMARK    6  A    between atoms: C_11  and  C_12
REMARK    7  A    between atoms: C_12  and  C_13
REMARK    8  A    between atoms: C_14  and  C_15
REMARK    9  A    between atoms: C_19  and  C_20
REMARK   10  A    between atoms: C_21  and  C_22
REMARK                            x       y       z     vdW  Elec       q    Type
REMARK                         _______ _______ _______ _____ _____    ______ ____
ROOT
ATOM      1  C   UNL     1       2.087   6.164  19.020  0.00  0.00    +0.000 A 
ATOM      2  C   UNL     1       2.188   7.475  18.732  0.00  0.00    +0.000 A 
ATOM      3  C   UNL     1       2.938   8.067  17.561  0.00  0.00    +0.000 C 
ATOM      4  C   UNL     1       1.564   8.428  19.647  0.00  0.00    +0.000 A 
ATOM      5  C   UNL     1       1.180   9.677  19.180  0.00  0.00    +0.000 A 
ATOM      6  C   UNL     1       0.778  10.652  20.090  0.00  0.00    +0.000 A 
ATOM      7  C   UNL     1       0.401  12.000  19.918  0.00  0.00    +0.000 A 
ATOM      8  C   UNL     1       0.302  12.723  18.630  0.00  0.00    +0.000 C 
ATOM      9  C   UNL     1       0.204  12.484  21.195  0.00  0.00    +0.000 A 
ATOM     10  C   UNL     1      -0.130  13.849  21.653  0.00  0.00    +0.000 C 
ATOM     11  O   UNL     1       0.371  11.488  22.127  0.00  0.00    +0.000 OA
ATOM     12  C   UNL     1       0.722  10.347  21.442  0.00  0.00    +0.000 A 
ATOM     13  C   UNL     1       0.976   9.060  21.944  0.00  0.00    +0.000 A 
ATOM     14  C   UNL     1       1.362   8.103  20.977  0.00  0.00    +0.000 A 
ATOM     15  O   UNL     1       1.470   6.741  21.341  0.00  0.00    +0.000 OA
ATOM     16  C   UNL     1       1.515   5.752  20.332  0.00  0.00    +0.000 A 
ATOM     17  O   UNL     1       1.173   4.598  20.568  0.00  0.00    +0.000 OA
ENDROOT
BRANCH   1  18
ATOM     18  C   UNL     1       2.548   5.164  17.979  0.00  0.00    +0.000 C 
BRANCH  18  19
ATOM     19  C   UNL     1       2.980   3.755  18.363  0.00  0.00    +0.000 C 
BRANCH  19  21
ATOM     20  N   UNL     1       5.072   4.139  17.214  0.00  0.00    +0.000 N 
ATOM     21  C   UNL     1       4.507   3.668  18.374  0.00  0.00    +0.000 C 
ATOM     22  O   UNL     1       5.155   3.221  19.310  0.00  0.00    +0.000 OA
ATOM     23  H   UNL     1       4.482   4.529  16.496  0.00  0.00    +0.000 HD
BRANCH  20  24
ATOM     24  C   UNL     1       6.507   4.179  17.013  0.00  0.00    +0.000 C 
BRANCH  24  28
ATOM     25  C   UNL     1       8.229   7.887  18.432  0.00  0.00    +0.000 A 
ATOM     26  C   UNL     1       8.364   6.714  19.176  0.00  0.00    +0.000 A 
ATOM     27  C   UNL     1       7.815   5.514  18.716  0.00  0.00    +0.000 A 
ATOM     28  C   UNL     1       7.102   5.473  17.511  0.00  0.00    +0.000 A 
ATOM     29  C   UNL     1       6.977   6.652  16.766  0.00  0.00    +0.000 A 
ATOM     30  C   UNL     1       7.532   7.853  17.225  0.00  0.00    +0.000 A 
BRANCH  25  32
ATOM     31  C   UNL     1       8.752  10.179  18.189  0.00  0.00    +0.000 C 
ATOM     32  O   UNL     1       8.782   9.005  18.995  0.00  0.00    +0.000 OA
ENDBRANCH  25  32
ENDBRANCH  24  28
ENDBRANCH  20  24
ENDBRANCH  19  21
ENDBRANCH  18  19
ENDBRANCH   1  18
TORSDOF 6
ENDMDL
MODEL 5
REMARK VINA RESULT:      -7.7      2.859      4.317
REMARK  Name = 
REMARK  10 active torsions:
REMARK  status: ('A' for Active; 'I' for Inactive)
REMARK    1  A    between atoms: C_1  and  O_2
REMARK    2  A    between atoms: O_2  and  C_3
REMARK    3  A    between atoms: C_6  and  C_7
REMARK    4  A    between atoms: C_7  and  N_8
REMARK    5  A    between atoms: C_9  and  C_11
REMARK    6  A    between atoms: C_11  and  C_12
REMARK    7  A    between atoms: C_12  and  C_13
REMARK    8  A    between atoms: C_14  and  C_15
REMARK    9  A    between atoms: C_19  and  C_20
REMARK   10  A    between atoms: C_21  and  C_22
REMARK                            x       y       z     vdW  Elec       q    Type
REMARK                         _______ _______ _______ _____ _____    ______ ____
ROOT
ATOM      1  C   UNL     1       1.585   7.331  20.241  0.00  0.00    +0.000 A 
ATOM      2  C   UNL     1       0.794   8.272  20.790  0.00  0.00    +0.000 A 
ATOM      3  C   UNL     1      -0.186   8.054  21.919  0.00  0.00    +0.000 C 
ATOM      4  C   UNL     1       0.838   9.620  20.226  0.00  0.00    +0.000 A 
ATOM      5  C   UNL     1       0.487  10.705  21.016  0.00  0.00    +0.000 A 
ATOM      6  C   UNL     1       0.332  11.957  20.425  0.00  0.00    +0.000 A 
ATOM      7  C   UNL     1      -0.070  13.202  20.950  0.00  0.00    +0.000 A 
ATOM      8  C   UNL     1      -0.405  13.487  22.364  0.00  0.00    +0.000 C 
ATOM      9  C   UNL     1      -0.128  14.050  19.863  0.00  0.00    +0.000 A 
ATOM     10  C   UNL     1      -0.560  15.462  19.781  0.00  0.00    +0.000 C 
ATOM     11  O   UNL     1       0.285  13.409  18.720  0.00  0.00    +0.000 OA
ATOM     12  C   UNL     1       0.577  12.109  19.067  0.00  0.00    +0.000 A 
ATOM     13  C   UNL     1       1.060  11.069  18.258  0.00  0.00    +0.000 A 
ATOM     14  C   UNL     1       1.217   9.823  18.911  0.00  0.00    +0.000 A 
ATOM     15  O   UNL     1       1.860   8.756  18.243  0.00  0.00    +0.000 OA
ATOM     16  C   UNL     1       2.322   7.646  18.985  0.00  0.00    +0.000 A 
ATOM     17  O   UNL     1       3.231   6.941  18.561  0.00  0.00    +0.000 OA
ENDROOT
BRANCH   1  18
ATOM     18  C   UNL     1       1.700   5.993  20.943  0.00  0.00    +0.000 C 
BRANCH  18  19
ATOM     19  C   UNL     1       0.998   4.751  20.411  0.00  0.00    +0.000 C 
BRANCH  19  21
ATOM     20  N   UNL     1       3.169   3.973  19.689  0.00  0.00    +0.000 N 
ATOM     21  C   UNL     1       1.852   4.101  19.322  0.00  0.00    +0.000 C 
ATOM     22  O   UNL     1       1.413   3.740  18.239  0.00  0.00    +0.000 OA
ATOM     23  H   UNL     1       3.458   4.256  20.612  0.00  0.00    +0.000 HD
BRANCH  20  24
ATOM     24  C   UNL     1       4.158   3.358  18.825  0.00  0.00    +0.000 C 
BRANCH  24  28
ATOM     25  C   UNL     1       7.010   6.265  17.365  0.00  0.00    +0.000 A 
ATOM     26  C   UNL     1       6.109   5.658  16.490  0.00  0.00    +0.000 A 
ATOM     27  C   UNL     1       5.181   4.724  16.960  0.00  0.00    +0.000 A 
ATOM     28  C   UNL     1       5.156   4.367  18.315  0.00  0.00    +0.000 A 
ATOM     29  C   UNL     1       6.059   4.985  19.188  0.00  0.00    +0.000 A 
ATOM     30  C   UNL     1       6.984   5.925  18.716  0.00  0.00    +0.000 A 
BRANCH  25  32
ATOM     31  C   UNL     1       8.021   8.400  17.439  0.00  0.00    +0.000 C 
ATOM     32  O   UNL     1       7.889   7.141  16.786  0.00  0.00    +0.000 OA
ENDBRANCH  25  32
ENDBRANCH  24  28
ENDBRANCH  20  24
ENDBRANCH  19  21
ENDBRANCH  18  19
ENDBRANCH   1  18
TORSDOF 6
ENDMDL
MODEL 6
REMARK VINA RESULT:      -7.6      3.715      9.386
REMARK  Name = 
REMARK  10 active torsions:
REMARK  status: ('A' for Active; 'I' for Inactive)
REMARK    1  A    between atoms: C_1  and  O_2
REMARK    2  A    between atoms: O_2  and  C_3
REMARK    3  A    between atoms: C_6  and  C_7
REMARK    4  A    between atoms: C_7  and  N_8
REMARK    5  A    between atoms: C_9  and  C_11
REMARK    6  A    between atoms: C_11  and  C_12
REMARK    7  A    between atoms: C_12  and  C_13
REMARK    8  A    between atoms: C_14  and  C_15
REMARK    9  A    between atoms: C_19  and  C_20
REMARK   10  A    between atoms: C_21  and  C_22
REMARK                            x       y       z     vdW  Elec       q    Type
REMARK                         _______ _______ _______ _____ _____    ______ ____
ROOT
ATOM      1  C   UNL     1       0.991   9.948  20.573  0.00  0.00    +0.000 A 
ATOM      2  C   UNL     1       1.399   9.514  19.366  0.00  0.00    +0.000 A 
ATOM      3  C   UNL     1       1.208  10.240  18.055  0.00  0.00    +0.000 C 
ATOM      4  C   UNL     1       2.044   8.204  19.289  0.00  0.00    +0.000 A 
ATOM      5  C   UNL     1       2.919   7.930  18.248  0.00  0.00    +0.000 A 
ATOM      6  C   UNL     1       3.370   6.626  18.061  0.00  0.00    +0.000 A 
ATOM      7  C   UNL     1       4.196   6.049  17.075  0.00  0.00    +0.000 A 
ATOM      8  C   UNL     1       4.850   6.763  15.955  0.00  0.00    +0.000 C 
ATOM      9  C   UNL     1       4.207   4.698  17.359  0.00  0.00    +0.000 A 
ATOM     10  C   UNL     1       4.839   3.578  16.630  0.00  0.00    +0.000 C 
ATOM     11  O   UNL     1       3.493   4.434  18.504  0.00  0.00    +0.000 OA
ATOM     12  C   UNL     1       2.977   5.631  18.945  0.00  0.00    +0.000 A 
ATOM     13  C   UNL     1       2.199   5.888  20.086  0.00  0.00    +0.000 A 
ATOM     14  C   UNL     1       1.783   7.232  20.238  0.00  0.00    +0.000 A 
ATOM     15  O   UNL     1       1.149   7.639  21.435  0.00  0.00    +0.000 OA
ATOM     16  C   UNL     1       1.043   9.016  21.734  0.00  0.00    +0.000 A 
ATOM     17  O   UNL     1       0.919   9.400  22.891  0.00  0.00    +0.000 OA
ENDROOT
BRANCH   1  18
ATOM     18  C   UNL     1       0.512  11.380  20.695  0.00  0.00    +0.000 C 
BRANCH  18  19
ATOM     19  C   UNL     1      -0.119  11.903  21.978  0.00  0.00    +0.000 C 
BRANCH  19  21
ATOM     20  N   UNL     1      -1.996  12.339  20.520  0.00  0.00    +0.000 N 
ATOM     21  C   UNL     1      -1.634  12.010  21.804  0.00  0.00    +0.000 C 
ATOM     22  O   UNL     1      -2.437  11.829  22.708  0.00  0.00    +0.000 OA
ATOM     23  H   UNL     1      -1.286  12.437  19.812  0.00  0.00    +0.000 HD
BRANCH  20  24
ATOM     24  C   UNL     1      -3.383  12.468  20.116  0.00  0.00    +0.000 C 
BRANCH  24  28
ATOM     25  C   UNL     1      -4.044  10.877  16.147  0.00  0.00    +0.000 A 
ATOM     26  C   UNL     1      -2.814  10.704  16.781  0.00  0.00    +0.000 A 
ATOM     27  C   UNL     1      -2.600  11.210  18.067  0.00  0.00    +0.000 A 
ATOM     28  C   UNL     1      -3.611  11.918  18.730  0.00  0.00    +0.000 A 
ATOM     29  C   UNL     1      -4.846  12.082  18.089  0.00  0.00    +0.000 A 
ATOM     30  C   UNL     1      -5.060  11.568  16.804  0.00  0.00    +0.000 A 
BRANCH  25  32
ATOM     31  C   UNL     1      -2.891   9.964  14.297  0.00  0.00    +0.000 C 
ATOM     32  O   UNL     1      -4.127  10.363  14.880  0.00  0.00    +0.000 OA
ENDBRANCH  25  32
ENDBRANCH  24  28
ENDBRANCH  20  24
ENDBRANCH  19  21
ENDBRANCH  18  19
ENDBRANCH   1  18
TORSDOF 6
ENDMDL
MODEL 7
REMARK VINA RESULT:      -7.6      3.836     11.155
REMARK  Name = 
REMARK  10 active torsions:
REMARK  status: ('A' for Active; 'I' for Inactive)
REMARK    1  A    between atoms: C_1  and  O_2
REMARK    2  A    between atoms: O_2  and  C_3
REMARK    3  A    between atoms: C_6  and  C_7
REMARK    4  A    between atoms: C_7  and  N_8
REMARK    5  A    between atoms: C_9  and  C_11
REMARK    6  A    between atoms: C_11  and  C_12
REMARK    7  A    between atoms: C_12  and  C_13
REMARK    8  A    between atoms: C_14  and  C_15
REMARK    9  A    between atoms: C_19  and  C_20
REMARK   10  A    between atoms: C_21  and  C_22
REMARK                            x       y       z     vdW  Elec       q    Type
REMARK                         _______ _______ _______ _____ _____    ______ ____
ROOT
ATOM      1  C   UNL     1       1.498   9.364  19.990  0.00  0.00    +0.000 A 
ATOM      2  C   UNL     1       1.796   8.528  18.978  0.00  0.00    +0.000 A 
ATOM      3  C   UNL     1       1.782   8.879  17.509  0.00  0.00    +0.000 C 
ATOM      4  C   UNL     1       2.118   7.141  19.307  0.00  0.00    +0.000 A 
ATOM      5  C   UNL     1       2.908   6.397  18.442  0.00  0.00    +0.000 A 
ATOM      6  C   UNL     1       3.043   5.025  18.649  0.00  0.00    +0.000 A 
ATOM      7  C   UNL     1       3.713   4.025  17.917  0.00  0.00    +0.000 A 
ATOM      8  C   UNL     1       4.518   4.230  16.691  0.00  0.00    +0.000 C 
ATOM      9  C   UNL     1       3.409   2.843  18.559  0.00  0.00    +0.000 A 
ATOM     10  C   UNL     1       3.763   1.451  18.209  0.00  0.00    +0.000 C 
ATOM     11  O   UNL     1       2.650   3.078  19.681  0.00  0.00    +0.000 OA
ATOM     12  C   UNL     1       2.426   4.434  19.743  0.00  0.00    +0.000 A 
ATOM     13  C   UNL     1       1.728   5.169  20.714  0.00  0.00    +0.000 A 
ATOM     14  C   UNL     1       1.635   6.559  20.465  0.00  0.00    +0.000 A 
ATOM     15  O   UNL     1       1.111   7.417  21.460  0.00  0.00    +0.000 OA
ATOM     16  C   UNL     1       1.329   8.810  21.363  0.00  0.00    +0.000 A 
ATOM     17  O   UNL     1       1.295   9.521  22.360  0.00  0.00    +0.000 OA
ENDROOT
BRANCH   1  18
ATOM     18  C   UNL     1       1.366  10.842  19.683  0.00  0.00    +0.000 C 
BRANCH  18  19
ATOM     19  C   UNL     1       0.006  11.526  19.631  0.00  0.00    +0.000 C 
BRANCH  19  21
ATOM     20  N   UNL     1      -1.167  11.331  21.735  0.00  0.00    +0.000 N 
ATOM     21  C   UNL     1      -0.324  12.126  20.998  0.00  0.00    +0.000 C 
ATOM     22  O   UNL     1       0.110  13.200  21.391  0.00  0.00    +0.000 OA
ATOM     23  H   UNL     1      -1.457  10.438  21.367  0.00  0.00    +0.000 HD
BRANCH  20  24
ATOM     24  C   UNL     1      -1.592  11.686  23.075  0.00  0.00    +0.000 C 
BRANCH  24  28
ATOM     25  C   UNL     1      -5.598  13.320  23.096  0.00  0.00    +0.000 A 
ATOM     26  C   UNL     1      -4.932  13.097  21.891  0.00  0.00    +0.000 A 
ATOM     27  C   UNL     1      -3.641  12.562  21.881  0.00  0.00    +0.000 A 
ATOM     28  C   UNL     1      -2.986  12.261  23.083  0.00  0.00    +0.000 A 
ATOM     29  C   UNL     1      -3.664  12.482  24.289  0.00  0.00    +0.000 A 
ATOM     30  C   UNL     1      -4.960  13.012  24.296  0.00  0.00    +0.000 A 
BRANCH  25  32
ATOM     31  C   UNL     1      -7.915  13.087  23.498  0.00  0.00    +0.000 C 
ATOM     32  O   UNL     1      -6.846  13.874  22.983  0.00  0.00    +0.000 OA
ENDBRANCH  25  32
ENDBRANCH  24  28
ENDBRANCH  20  24
ENDBRANCH  19  21
ENDBRANCH  18  19
ENDBRANCH   1  18
TORSDOF 6
ENDMDL
MODEL 8
REMARK VINA RESULT:      -7.5      2.621      4.292
REMARK  Name = 
REMARK  10 active torsions:
REMARK  status: ('A' for Active; 'I' for Inactive)
REMARK    1  A    between atoms: C_1  and  O_2
REMARK    2  A    between atoms: O_2  and  C_3
REMARK    3  A    between atoms: C_6  and  C_7
REMARK    4  A    between atoms: C_7  and  N_8
REMARK    5  A    between atoms: C_9  and  C_11
REMARK    6  A    between atoms: C_11  and  C_12
REMARK    7  A    between atoms: C_12  and  C_13
REMARK    8  A    between atoms: C_14  and  C_15
REMARK    9  A    between atoms: C_19  and  C_20
REMARK   10  A    between atoms: C_21  and  C_22
REMARK                            x       y       z     vdW  Elec       q    Type
REMARK                         _______ _______ _______ _____ _____    ______ ____
ROOT
ATOM      1  C   UNL     1       1.388   7.944  20.281  0.00  0.00    +0.000 A 
ATOM      2  C   UNL     1       0.612   8.805  20.966  0.00  0.00    +0.000 A 
ATOM      3  C   UNL     1      -0.174   8.484  22.216  0.00  0.00    +0.000 C 
ATOM      4  C   UNL     1       0.465  10.162  20.443  0.00  0.00    +0.000 A 
ATOM      5  C   UNL     1       0.146  11.199  21.308  0.00  0.00    +0.000 A 
ATOM      6  C   UNL     1      -0.194  12.444  20.783  0.00  0.00    +0.000 A 
ATOM      7  C   UNL     1      -0.614  13.641  21.399  0.00  0.00    +0.000 A 
ATOM      8  C   UNL     1      -0.763  13.870  22.854  0.00  0.00    +0.000 C 
ATOM      9  C   UNL     1      -0.897  14.501  20.358  0.00  0.00    +0.000 A 
ATOM     10  C   UNL     1      -1.448  15.873  20.381  0.00  0.00    +0.000 C 
ATOM     11  O   UNL     1      -0.604  13.918  19.149  0.00  0.00    +0.000 OA
ATOM     12  C   UNL     1      -0.161  12.642  19.410  0.00  0.00    +0.000 A 
ATOM     13  C   UNL     1       0.282  11.661  18.509  0.00  0.00    +0.000 A 
ATOM     14  C   UNL     1       0.632  10.421  19.094  0.00  0.00    +0.000 A 
ATOM     15  O   UNL     1       1.256   9.424  18.309  0.00  0.00    +0.000 OA
ATOM     16  C   UNL     1       1.908   8.343  18.944  0.00  0.00    +0.000 A 
ATOM     17  O   UNL     1       2.800   7.726  18.373  0.00  0.00    +0.000 OA
ENDROOT
BRANCH   1  18
ATOM     18  C   UNL     1       1.711   6.607  20.918  0.00  0.00    +0.000 C 
BRANCH  18  19
ATOM     19  C   UNL     1       1.076   5.315  20.423  0.00  0.00    +0.000 C 
BRANCH  19  21
ATOM     20  N   UNL     1       2.194   4.549  18.422  0.00  0.00    +0.000 N 
ATOM     21  C   UNL     1       2.144   4.424  19.789  0.00  0.00    +0.000 C 
ATOM     22  O   UNL     1       2.871   3.676  20.428  0.00  0.00    +0.000 OA
ATOM     23  H   UNL     1       1.592   5.212  17.961  0.00  0.00    +0.000 HD
BRANCH  20  24
ATOM     24  C   UNL     1       3.151   3.820  17.613  0.00  0.00    +0.000 C 
BRANCH  24  28
ATOM     25  C   UNL     1       6.679   6.181  16.776  0.00  0.00    +0.000 A 
ATOM     26  C   UNL     1       6.184   6.086  18.077  0.00  0.00    +0.000 A 
ATOM     27  C   UNL     1       5.050   5.318  18.351  0.00  0.00    +0.000 A 
ATOM     28  C   UNL     1       4.378   4.648  17.320  0.00  0.00    +0.000 A 
ATOM     29  C   UNL     1       4.884   4.743  16.018  0.00  0.00    +0.000 A 
ATOM     30  C   UNL     1       6.025   5.508  15.746  0.00  0.00    +0.000 A 
BRANCH  25  32
ATOM     31  C   UNL     1       7.933   8.004  17.605  0.00  0.00    +0.000 C 
ATOM     32  O   UNL     1       7.778   6.984  16.624  0.00  0.00    +0.000 OA
ENDBRANCH  25  32
ENDBRANCH  24  28
ENDBRANCH  20  24
ENDBRANCH  19  21
ENDBRANCH  18  19
ENDBRANCH   1  18
TORSDOF 6
ENDMDL
MODEL 9
REMARK VINA RESULT:      -7.5      3.058      9.790
REMARK  Name = 
REMARK  10 active torsions:
REMARK  status: ('A' for Active; 'I' for Inactive)
REMARK    1  A    between atoms: C_1  and  O_2
REMARK    2  A    between atoms: O_2  and  C_3
REMARK    3  A    between atoms: C_6  and  C_7
REMARK    4  A    between atoms: C_7  and  N_8
REMARK    5  A    between atoms: C_9  and  C_11
REMARK    6  A    between atoms: C_11  and  C_12
REMARK    7  A    between atoms: C_12  and  C_13
REMARK    8  A    between atoms: C_14  and  C_15
REMARK    9  A    between atoms: C_19  and  C_20
REMARK   10  A    between atoms: C_21  and  C_22
REMARK                            x       y       z     vdW  Elec       q    Type
REMARK                         _______ _______ _______ _____ _____    ______ ____
ROOT
ATOM      1  C   UNL     1       1.145   8.512  20.034  0.00  0.00    +0.000 A 
ATOM      2  C   UNL     1       1.789   7.330  20.017  0.00  0.00    +0.000 A 
ATOM      3  C   UNL     1       1.816   6.322  21.142  0.00  0.00    +0.000 C 
ATOM      4  C   UNL     1       2.576   6.995  18.832  0.00  0.00    +0.000 A 
ATOM      5  C   UNL     1       2.816   5.664  18.522  0.00  0.00    +0.000 A 
ATOM      6  C   UNL     1       3.731   5.351  17.518  0.00  0.00    +0.000 A 
ATOM      7  C   UNL     1       4.214   4.117  17.038  0.00  0.00    +0.000 A 
ATOM      8  C   UNL     1       3.794   2.775  17.500  0.00  0.00    +0.000 C 
ATOM      9  C   UNL     1       5.175   4.446  16.104  0.00  0.00    +0.000 A 
ATOM     10  C   UNL     1       6.077   3.575  15.321  0.00  0.00    +0.000 C 
ATOM     11  O   UNL     1       5.252   5.808  15.941  0.00  0.00    +0.000 OA
ATOM     12  C   UNL     1       4.352   6.373  16.814  0.00  0.00    +0.000 A 
ATOM     13  C   UNL     1       4.042   7.729  17.006  0.00  0.00    +0.000 A 
ATOM     14  C   UNL     1       3.094   7.991  18.023  0.00  0.00    +0.000 A 
ATOM     15  O   UNL     1       2.577   9.298  18.182  0.00  0.00    +0.000 OA
ATOM     16  C   UNL     1       1.405   9.495  18.946  0.00  0.00    +0.000 A 
ATOM     17  O   UNL     1       0.693  10.476  18.761  0.00  0.00    +0.000 OA
ENDROOT
BRANCH   1  18
ATOM     18  C   UNL     1       0.166   8.778  21.160  0.00  0.00    +0.000 C 
BRANCH  18  19
ATOM     19  C   UNL     1       0.534   9.665  22.342  0.00  0.00    +0.000 C 
BRANCH  19  21
ATOM     20  N   UNL     1      -0.372  11.643  21.291  0.00  0.00    +0.000 N 
ATOM     21  C   UNL     1      -0.423  10.855  22.414  0.00  0.00    +0.000 C 
ATOM     22  O   UNL     1      -1.151  11.084  23.370  0.00  0.00    +0.000 OA
ATOM     23  H   UNL     1       0.223  11.376  20.522  0.00  0.00    +0.000 HD
BRANCH  20  24
ATOM     24  C   UNL     1      -1.214  12.812  21.126  0.00  0.00    +0.000 C 
BRANCH  24  28
ATOM     25  C   UNL     1      -4.738  11.907  18.784  0.00  0.00    +0.000 A 
ATOM     26  C   UNL     1      -3.472  11.535  18.329  0.00  0.00    +0.000 A 
ATOM     27  C   UNL     1      -2.333  11.819  19.088  0.00  0.00    +0.000 A 
ATOM     28  C   UNL     1      -2.442  12.502  20.306  0.00  0.00    +0.000 A 
ATOM     29  C   UNL     1      -3.716  12.866  20.759  0.00  0.00    +0.000 A 
ATOM     30  C   UNL     1      -4.857  12.575  20.001  0.00  0.00    +0.000 A 
BRANCH  25  32
ATOM     31  C   UNL     1      -6.816  10.814  18.515  0.00  0.00    +0.000 C 
ATOM     32  O   UNL     1      -5.776  11.602  17.944  0.00  0.00    +0.000 OA
ENDBRANCH  25  32
ENDBRANCH  24  28
ENDBRANCH  20  24
ENDBRANCH  19  21
ENDBRANCH  18  19
ENDBRANCH   1  18
TORSDOF 6
ENDMDL
