MODEL 1
REMARK VINA RESULT:      -5.9      0.000      0.000
REMARK  Name = 
REMARK  3 active torsions:
REMARK  status: ('A' for Active; 'I' for Inactive)
REMARK    1  A    between atoms: C_2  and  O_3
REMARK    2  A    between atoms: C_2  and  C_4
REMARK    3  A    between atoms: C_7  and  N_8
REMARK                            x       y       z     vdW  Elec       q    Type
REMARK                         _______ _______ _______ _____ _____    ______ ____
ROOT
ATOM      1  C   UNL     1       5.994   4.701  17.725  0.00  0.00    +0.000 A 
ATOM      2  C   UNL     1       5.411   4.966  18.979  0.00  0.00    +0.000 A 
ATOM      3  C   UNL     1       4.055   4.719  19.210  0.00  0.00    +0.000 A 
ATOM      4  C   UNL     1       3.266   4.210  18.173  0.00  0.00    +0.000 A 
ATOM      5  C   UNL     1       3.829   3.936  16.920  0.00  0.00    +0.000 A 
ATOM      6  C   UNL     1       5.191   4.184  16.698  0.00  0.00    +0.000 A 
ATOM      7 CL   UNL     1       5.793   3.840  15.116  0.00  0.00    +0.000 Cl
ENDROOT
BRANCH   4   8
ATOM      8  N   UNL     1       1.833   3.974  18.394  0.00  0.00    +0.000 N 
ATOM      9  O   UNL     1       1.445   3.846  19.563  0.00  0.00    +0.000 OA
ATOM     10  O   UNL     1       1.102   3.916  17.396  0.00  0.00    +0.000 OA
ENDBRANCH   4   8
BRANCH   1  12
ATOM     11  O   UNL     1       7.800   6.204  17.450  0.00  0.00    +0.000 OA
ATOM     12  C   UNL     1       7.435   5.048  17.592  0.00  0.00    +0.000 C 
BRANCH  12  13
ATOM     13  O   UNL     1       8.300   4.028  17.738  0.00  0.00    +0.000 OA
ATOM     14  H   UNL     1       9.077   4.037  17.145  0.00  0.00    +0.000 HD
ENDBRANCH  12  13
ENDBRANCH   1  12
TORSDOF 3
ENDMDL
MODEL 2
REMARK VINA RESULT:      -5.9      3.322      4.879
REMARK  Name = 
REMARK  3 active torsions:
REMARK  status: ('A' for Active; 'I' for Inactive)
REMARK    1  A    between atoms: C_2  and  O_3
REMARK    2  A    between atoms: C_2  and  C_4
REMARK    3  A    between atoms: C_7  and  N_8
REMARK                            x       y       z     vdW  Elec       q    Type
REMARK                         _______ _______ _______ _____ _____    ______ ____
ROOT
ATOM      1  C   UNL     1       5.584   4.316  17.798  0.00  0.00    +0.000 A 
ATOM      2  C   UNL     1       4.857   3.882  16.674  0.00  0.00    +0.000 A 
ATOM      3  C   UNL     1       5.368   4.036  15.382  0.00  0.00    +0.000 A 
ATOM      4  C   UNL     1       6.618   4.639  15.208  0.00  0.00    +0.000 A 
ATOM      5  C   UNL     1       7.358   5.073  16.315  0.00  0.00    +0.000 A 
ATOM      6  C   UNL     1       6.839   4.913  17.608  0.00  0.00    +0.000 A 
ATOM      7 CL   UNL     1       7.809   5.501  18.911  0.00  0.00    +0.000 Cl
ENDROOT
BRANCH   4   8
ATOM      8  N   UNL     1       7.153   4.831  13.853  0.00  0.00    +0.000 N 
ATOM      9  O   UNL     1       8.044   5.677  13.702  0.00  0.00    +0.000 OA
ATOM     10  O   UNL     1       6.679   4.134  12.947  0.00  0.00    +0.000 OA
ENDBRANCH   4   8
BRANCH   1  12
ATOM     11  O   UNL     1       4.200   5.009  19.588  0.00  0.00    +0.000 OA
ATOM     12  C   UNL     1       4.913   4.139  19.114  0.00  0.00    +0.000 C 
BRANCH  12  13
ATOM     13  O   UNL     1       5.062   2.932  19.691  0.00  0.00    +0.000 OA
ATOM     14  H   UNL     1       5.513   2.924  20.558  0.00  0.00    +0.000 HD
ENDBRANCH  12  13
ENDBRANCH   1  12
TORSDOF 3
ENDMDL
MODEL 3
REMARK VINA RESULT:      -5.9      2.704      5.244
REMARK  Name = 
REMARK  3 active torsions:
REMARK  status: ('A' for Active; 'I' for Inactive)
REMARK    1  A    between atoms: C_2  and  O_3
REMARK    2  A    between atoms: C_2  and  C_4
REMARK    3  A    between atoms: C_7  and  N_8
REMARK                            x       y       z     vdW  Elec       q    Type
REMARK                         _______ _______ _______ _____ _____    ______ ____
ROOT
ATOM      1  C   UNL     1       3.194   4.898  17.653  0.00  0.00    +0.000 A 
ATOM      2  C   UNL     1       4.060   3.904  17.159  0.00  0.00    +0.000 A 
ATOM      3  C   UNL     1       5.333   4.230  16.682  0.00  0.00    +0.000 A 
ATOM      4  C   UNL     1       5.744   5.566  16.687  0.00  0.00    +0.000 A 
ATOM      5  C   UNL     1       4.898   6.569  17.179  0.00  0.00    +0.000 A 
ATOM      6  C   UNL     1       3.624   6.233  17.658  0.00  0.00    +0.000 A 
ATOM      7 CL   UNL     1       2.640   7.536  18.220  0.00  0.00    +0.000 Cl
ENDROOT
BRANCH   4   8
ATOM      8  N   UNL     1       7.069   5.925  16.162  0.00  0.00    +0.000 N 
ATOM      9  O   UNL     1       7.487   5.298  15.180  0.00  0.00    +0.000 OA
ATOM     10  O   UNL     1       7.685   6.833  16.736  0.00  0.00    +0.000 OA
ENDBRANCH   4   8
BRANCH   1  12
ATOM     11  O   UNL     1       1.020   4.040  17.285  0.00  0.00    +0.000 OA
ATOM     12  C   UNL     1       1.850   4.431  18.089  0.00  0.00    +0.000 C 
BRANCH  12  13
ATOM     13  O   UNL     1       1.653   4.373  19.419  0.00  0.00    +0.000 OA
ATOM     14  H   UNL     1       1.235   5.159  19.825  0.00  0.00    +0.000 HD
ENDBRANCH  12  13
ENDBRANCH   1  12
TORSDOF 3
ENDMDL
MODEL 4
REMARK VINA RESULT:      -5.8      2.706      5.197
REMARK  Name = 
REMARK  3 active torsions:
REMARK  status: ('A' for Active; 'I' for Inactive)
REMARK    1  A    between atoms: C_2  and  O_3
REMARK    2  A    between atoms: C_2  and  C_4
REMARK    3  A    between atoms: C_7  and  N_8
REMARK                            x       y       z     vdW  Elec       q    Type
REMARK                         _______ _______ _______ _____ _____    ______ ____
ROOT
ATOM      1  C   UNL     1       3.211   4.912  17.717  0.00  0.00    +0.000 A 
ATOM      2  C   UNL     1       4.083   3.912  17.246  0.00  0.00    +0.000 A 
ATOM      3  C   UNL     1       5.344   4.237  16.738  0.00  0.00    +0.000 A 
ATOM      4  C   UNL     1       5.737   5.579  16.690  0.00  0.00    +0.000 A 
ATOM      5  C   UNL     1       4.884   6.587  17.159  0.00  0.00    +0.000 A 
ATOM      6  C   UNL     1       3.622   6.251  17.669  0.00  0.00    +0.000 A 
ATOM      7 CL   UNL     1       2.629   7.561  18.201  0.00  0.00    +0.000 Cl
ENDROOT
BRANCH   4   8
ATOM      8  N   UNL     1       7.049   5.935  16.132  0.00  0.00    +0.000 N 
ATOM      9  O   UNL     1       7.684   6.840  16.689  0.00  0.00    +0.000 OA
ATOM     10  O   UNL     1       7.437   5.307  15.138  0.00  0.00    +0.000 OA
ENDBRANCH   4   8
BRANCH   1  12
ATOM     11  O   UNL     1       1.590   4.442  19.376  0.00  0.00    +0.000 OA
ATOM     12  C   UNL     1       1.880   4.443  18.191  0.00  0.00    +0.000 C 
BRANCH  12  13
ATOM     13  O   UNL     1       0.996   4.121  17.230  0.00  0.00    +0.000 OA
ATOM     14  H   UNL     1       0.900   3.167  17.038  0.00  0.00    +0.000 HD
ENDBRANCH  12  13
ENDBRANCH   1  12
TORSDOF 3
ENDMDL
MODEL 5
REMARK VINA RESULT:      -5.8      2.511      5.218
REMARK  Name = 
REMARK  3 active torsions:
REMARK  status: ('A' for Active; 'I' for Inactive)
REMARK    1  A    between atoms: C_2  and  O_3
REMARK    2  A    between atoms: C_2  and  C_4
REMARK    3  A    between atoms: C_7  and  N_8
REMARK                            x       y       z     vdW  Elec       q    Type
REMARK                         _______ _______ _______ _____ _____    ______ ____
ROOT
ATOM      1  C   UNL     1       3.142   3.947  17.950  0.00  0.00    +0.000 A 
ATOM      2  C   UNL     1       3.931   3.714  16.807  0.00  0.00    +0.000 A 
ATOM      3  C   UNL     1       5.308   3.951  16.822  0.00  0.00    +0.000 A 
ATOM      4  C   UNL     1       5.906   4.436  17.990  0.00  0.00    +0.000 A 
ATOM      5  C   UNL     1       5.138   4.669  19.138  0.00  0.00    +0.000 A 
ATOM      6  C   UNL     1       3.758   4.427  19.115  0.00  0.00    +0.000 A 
ATOM      7 CL   UNL     1       2.887   4.767  20.568  0.00  0.00    +0.000 Cl
ENDROOT
BRANCH   4   8
ATOM      8  N   UNL     1       7.349   4.715  18.009  0.00  0.00    +0.000 N 
ATOM      9  O   UNL     1       7.998   4.461  16.987  0.00  0.00    +0.000 OA
ATOM     10  O   UNL     1       7.825   5.189  19.050  0.00  0.00    +0.000 OA
ENDBRANCH   4   8
BRANCH   1  12
ATOM     11  O   UNL     1       0.960   4.500  17.219  0.00  0.00    +0.000 OA
ATOM     12  C   UNL     1       1.683   3.701  17.793  0.00  0.00    +0.000 C 
BRANCH  12  13
ATOM     13  O   UNL     1       1.239   2.509  18.231  0.00  0.00    +0.000 OA
ATOM     14  H   UNL     1       1.873   1.767  18.172  0.00  0.00    +0.000 HD
ENDBRANCH  12  13
ENDBRANCH   1  12
TORSDOF 3
ENDMDL
MODEL 6
REMARK VINA RESULT:      -5.8      2.577      5.133
REMARK  Name = 
REMARK  3 active torsions:
REMARK  status: ('A' for Active; 'I' for Inactive)
REMARK    1  A    between atoms: C_2  and  O_3
REMARK    2  A    between atoms: C_2  and  C_4
REMARK    3  A    between atoms: C_7  and  N_8
REMARK                            x       y       z     vdW  Elec       q    Type
REMARK                         _______ _______ _______ _____ _____    ______ ____
ROOT
ATOM      1  C   UNL     1       3.578   3.955  17.736  0.00  0.00    +0.000 A 
ATOM      2  C   UNL     1       4.423   3.901  16.611  0.00  0.00    +0.000 A 
ATOM      3  C   UNL     1       5.629   4.607  16.581  0.00  0.00    +0.000 A 
ATOM      4  C   UNL     1       5.993   5.385  17.684  0.00  0.00    +0.000 A 
ATOM      5  C   UNL     1       5.168   5.448  18.814  0.00  0.00    +0.000 A 
ATOM      6  C   UNL     1       3.961   4.735  18.836  0.00  0.00    +0.000 A 
ATOM      7 CL   UNL     1       2.995   4.891  20.261  0.00  0.00    +0.000 Cl
ENDROOT
BRANCH   4   8
ATOM      8  N   UNL     1       7.245   6.154  17.653  0.00  0.00    +0.000 N 
ATOM      9  O   UNL     1       7.611   6.613  16.563  0.00  0.00    +0.000 OA
ATOM     10  O   UNL     1       7.855   6.295  18.721  0.00  0.00    +0.000 OA
ENDBRANCH   4   8
BRANCH   1  12
ATOM     11  O   UNL     1       1.241   3.763  17.417  0.00  0.00    +0.000 OA
ATOM     12  C   UNL     1       2.302   3.197  17.627  0.00  0.00    +0.000 C 
BRANCH  12  13
ATOM     13  O   UNL     1       2.410   1.857  17.675  0.00  0.00    +0.000 OA
ATOM     14  H   UNL     1       3.296   1.491  17.484  0.00  0.00    +0.000 HD
ENDBRANCH  12  13
ENDBRANCH   1  12
TORSDOF 3
ENDMDL
MODEL 7
REMARK VINA RESULT:      -5.8      1.304      1.474
REMARK  Name = 
REMARK  3 active torsions:
REMARK  status: ('A' for Active; 'I' for Inactive)
REMARK    1  A    between atoms: C_2  and  O_3
REMARK    2  A    between atoms: C_2  and  C_4
REMARK    3  A    between atoms: C_7  and  N_8
REMARK                            x       y       z     vdW  Elec       q    Type
REMARK                         _______ _______ _______ _____ _____    ______ ____
ROOT
ATOM      1  C   UNL     1       6.239   5.185  18.424  0.00  0.00    +0.000 A 
ATOM      2  C   UNL     1       5.211   5.163  19.386  0.00  0.00    +0.000 A 
ATOM      3  C   UNL     1       3.986   4.546  19.116  0.00  0.00    +0.000 A 
ATOM      4  C   UNL     1       3.780   3.951  17.868  0.00  0.00    +0.000 A 
ATOM      5  C   UNL     1       4.793   3.958  16.900  0.00  0.00    +0.000 A 
ATOM      6  C   UNL     1       6.019   4.578  17.180  0.00  0.00    +0.000 A 
ATOM      7 CL   UNL     1       7.200   4.561  15.919  0.00  0.00    +0.000 Cl
ENDROOT
BRANCH   4   8
ATOM      8  N   UNL     1       2.486   3.324  17.563  0.00  0.00    +0.000 N 
ATOM      9  O   UNL     1       1.521   4.069  17.356  0.00  0.00    +0.000 OA
ATOM     10  O   UNL     1       2.444   2.086  17.532  0.00  0.00    +0.000 OA
ENDBRANCH   4   8
BRANCH   1  12
ATOM     11  O   UNL     1       7.815   6.941  18.252  0.00  0.00    +0.000 OA
ATOM     12  C   UNL     1       7.478   5.912  18.814  0.00  0.00    +0.000 C 
BRANCH  12  13
ATOM     13  O   UNL     1       8.136   5.420  19.879  0.00  0.00    +0.000 OA
ATOM     14  H   UNL     1       9.050   5.114  19.715  0.00  0.00    +0.000 HD
ENDBRANCH  12  13
ENDBRANCH   1  12
TORSDOF 3
ENDMDL
MODEL 8
REMARK VINA RESULT:      -5.8      0.423      1.272
REMARK  Name = 
REMARK  3 active torsions:
REMARK  status: ('A' for Active; 'I' for Inactive)
REMARK    1  A    between atoms: C_2  and  O_3
REMARK    2  A    between atoms: C_2  and  C_4
REMARK    3  A    between atoms: C_7  and  N_8
REMARK                            x       y       z     vdW  Elec       q    Type
REMARK                         _______ _______ _______ _____ _____    ______ ____
ROOT
ATOM      1  C   UNL     1       5.908   4.701  17.499  0.00  0.00    +0.000 A 
ATOM      2  C   UNL     1       5.504   4.854  18.839  0.00  0.00    +0.000 A 
ATOM      3  C   UNL     1       4.183   4.611  19.225  0.00  0.00    +0.000 A 
ATOM      4  C   UNL     1       3.249   4.219  18.261  0.00  0.00    +0.000 A 
ATOM      5  C   UNL     1       3.634   4.058  16.923  0.00  0.00    +0.000 A 
ATOM      6  C   UNL     1       4.961   4.301  16.545  0.00  0.00    +0.000 A 
ATOM      7 CL   UNL     1       5.338   4.101  14.871  0.00  0.00    +0.000 Cl
ENDROOT
BRANCH   4   8
ATOM      8  N   UNL     1       1.851   3.989  18.650  0.00  0.00    +0.000 N 
ATOM      9  O   UNL     1       1.089   3.511  17.800  0.00  0.00    +0.000 OA
ATOM     10  O   UNL     1       1.523   4.286  19.806  0.00  0.00    +0.000 OA
ENDBRANCH   4   8
BRANCH   1  12
ATOM     11  O   UNL     1       8.224   4.227  17.399  0.00  0.00    +0.000 OA
ATOM     12  C   UNL     1       7.329   5.034  17.206  0.00  0.00    +0.000 C 
BRANCH  12  13
ATOM     13  O   UNL     1       7.544   6.229  16.628  0.00  0.00    +0.000 OA
ATOM     14  H   UNL     1       6.886   6.508  15.961  0.00  0.00    +0.000 HD
ENDBRANCH  12  13
ENDBRANCH   1  12
TORSDOF 3
ENDMDL
MODEL 9
REMARK VINA RESULT:      -5.7      2.551      5.086
REMARK  Name = 
REMARK  3 active torsions:
REMARK  status: ('A' for Active; 'I' for Inactive)
REMARK    1  A    between atoms: C_2  and  O_3
REMARK    2  A    between atoms: C_2  and  C_4
REMARK    3  A    between atoms: C_7  and  N_8
REMARK                            x       y       z     vdW  Elec       q    Type
REMARK                         _______ _______ _______ _____ _____    ______ ____
ROOT
ATOM      1  C   UNL     1       3.475   3.924  17.899  0.00  0.00    +0.000 A 
ATOM      2  C   UNL     1       4.421   3.813  16.862  0.00  0.00    +0.000 A 
ATOM      3  C   UNL     1       5.703   4.352  16.995  0.00  0.00    +0.000 A 
ATOM      4  C   UNL     1       6.046   5.018  18.176  0.00  0.00    +0.000 A 
ATOM      5  C   UNL     1       5.120   5.134  19.221  0.00  0.00    +0.000 A 
ATOM      6  C   UNL     1       3.836   4.589  19.080  0.00  0.00    +0.000 A 
ATOM      7 CL   UNL     1       2.754   4.802  20.409  0.00  0.00    +0.000 Cl
ENDROOT
BRANCH   4   8
ATOM      8  N   UNL     1       7.382   5.613  18.318  0.00  0.00    +0.000 N 
ATOM      9  O   UNL     1       8.044   5.309  19.318  0.00  0.00    +0.000 OA
ATOM     10  O   UNL     1       7.763   6.382  17.425  0.00  0.00    +0.000 OA
ENDBRANCH   4   8
BRANCH   1  12
ATOM     11  O   UNL     1       1.173   4.065  17.374  0.00  0.00    +0.000 OA
ATOM     12  C   UNL     1       2.132   3.350  17.618  0.00  0.00    +0.000 C 
BRANCH  12  13
ATOM     13  O   UNL     1       2.069   2.008  17.552  0.00  0.00    +0.000 OA
ATOM     14  H   UNL     1       1.190   1.611  17.714  0.00  0.00    +0.000 HD
ENDBRANCH  12  13
ENDBRANCH   1  12
TORSDOF 3
ENDMDL
