MODEL 1
REMARK VINA RESULT:      -6.7      0.000      0.000
REMARK  Name = 
REMARK  9 active torsions:
REMARK  status: ('A' for Active; 'I' for Inactive)
REMARK    1  A    between atoms: C_1  and  N_2
REMARK    2  A    between atoms: C_5  and  N_6
REMARK    3  A    between atoms: N_6  and  S_7
REMARK    4  A    between atoms: S_7  and  C_10
REMARK    5  A    between atoms: C_10  and  C_11
REMARK    6  A    between atoms: C_11  and  C_12
REMARK    7  A    between atoms: C_12  and  C_13
REMARK    8  A    between atoms: C_12  and  C_14
REMARK    9  A    between atoms: C_12  and  C_15
REMARK                            x       y       z     vdW  Elec       q    Type
REMARK                         _______ _______ _______ _____ _____    ______ ____
ROOT
ATOM      1  S   UNL     1       5.738   4.931  19.000  0.00  0.00    +0.000 S 
ATOM      2  O   UNL     1       5.933   3.530  18.699  0.00  0.00    +0.000 OA
ATOM      3  O   UNL     1       6.628   5.667  19.866  0.00  0.00    +0.000 OA
ENDROOT
BRANCH   1   4
ATOM      4  N   UNL     1       5.709   5.775  17.524  0.00  0.00    +0.000 NA
ATOM      5  H   UNL     1       6.250   6.638  17.612  0.00  0.00    +0.000 HD
BRANCH   4  10
ATOM      6  C   UNL     1       6.733   3.605  12.329  0.00  0.00    +0.000 C 
ATOM      7  N   UNL     1       6.381   4.266  13.577  0.00  0.00    +0.000 N 
ATOM      8  C   UNL     1       5.398   3.608  14.423  0.00  0.00    +0.000 C 
ATOM      9  C   UNL     1       4.939   4.479  15.582  0.00  0.00    +0.000 C 
ATOM     10  C   UNL     1       6.166   4.972  16.337  0.00  0.00    +0.000 C 
ATOM     11  C   UNL     1       7.019   5.812  15.398  0.00  0.00    +0.000 C 
ATOM     12  C   UNL     1       7.312   5.167  14.066  0.00  0.00    +0.000 C 
ATOM     13  O   UNL     1       8.299   5.513  13.419  0.00  0.00    +0.000 OA
ENDBRANCH   4  10
ENDBRANCH   1   4
BRANCH   1  14
ATOM     14  C   UNL     1       4.072   5.173  19.604  0.00  0.00    +0.000 C 
BRANCH  14  15
ATOM     15  C   UNL     1       3.399   3.815  19.828  0.00  0.00    +0.000 C 
BRANCH  15  16
ATOM     16  C   UNL     1       2.287   3.420  18.820  0.00  0.00    +0.000 C 
ATOM     17  C   UNL     1       1.944   4.615  17.912  0.00  0.00    +0.000 C 
ATOM     18  C   UNL     1       2.774   2.259  17.933  0.00  0.00    +0.000 C 
BRANCH  16  19
ATOM     19  C   UNL     1       1.017   2.981  19.603  0.00  0.00    +0.000 C 
ATOM     20  F   UNL     1       0.127   2.341  18.812  0.00  0.00    +0.000 F 
ATOM     21  F   UNL     1       1.316   2.138  20.618  0.00  0.00    +0.000 F 
ATOM     22  F   UNL     1       0.369   4.036  20.146  0.00  0.00    +0.000 F 
ENDBRANCH  16  19
ENDBRANCH  15  16
ENDBRANCH  14  15
ENDBRANCH   1  14
TORSDOF 6
ENDMDL
MODEL 2
REMARK VINA RESULT:      -6.5      4.400      6.585
REMARK  Name = 
REMARK  9 active torsions:
REMARK  status: ('A' for Active; 'I' for Inactive)
REMARK    1  A    between atoms: C_1  and  N_2
REMARK    2  A    between atoms: C_5  and  N_6
REMARK    3  A    between atoms: N_6  and  S_7
REMARK    4  A    between atoms: S_7  and  C_10
REMARK    5  A    between atoms: C_10  and  C_11
REMARK    6  A    between atoms: C_11  and  C_12
REMARK    7  A    between atoms: C_12  and  C_13
REMARK    8  A    between atoms: C_12  and  C_14
REMARK    9  A    between atoms: C_12  and  C_15
REMARK                            x       y       z     vdW  Elec       q    Type
REMARK                         _______ _______ _______ _____ _____    ______ ____
ROOT
ATOM      1  S   UNL     1       3.168   4.194  19.153  0.00  0.00    +0.000 S 
ATOM      2  O   UNL     1       4.180   3.304  19.678  0.00  0.00    +0.000 OA
ATOM      3  O   UNL     1       1.756   3.918  19.278  0.00  0.00    +0.000 OA
ENDROOT
BRANCH   1   4
ATOM      4  N   UNL     1       3.414   5.723  19.855  0.00  0.00    +0.000 NA
ATOM      5  H   UNL     1       4.330   6.084  19.579  0.00  0.00    +0.000 HD
BRANCH   4  10
ATOM      6  C   UNL     1       0.176  10.399  19.219  0.00  0.00    +0.000 C 
ATOM      7  N   UNL     1       1.111   9.306  19.444  0.00  0.00    +0.000 N 
ATOM      8  C   UNL     1       0.845   8.425  20.569  0.00  0.00    +0.000 C 
ATOM      9  C   UNL     1       1.987   7.462  20.849  0.00  0.00    +0.000 C 
ATOM     10  C   UNL     1       2.330   6.726  19.560  0.00  0.00    +0.000 C 
ATOM     11  C   UNL     1       2.783   7.737  18.518  0.00  0.00    +0.000 C 
ATOM     12  C   UNL     1       1.861   8.919  18.346  0.00  0.00    +0.000 C 
ATOM     13  O   UNL     1       1.863   9.551  17.291  0.00  0.00    +0.000 OA
ENDBRANCH   4  10
ENDBRANCH   1   4
BRANCH   1  14
ATOM     14  C   UNL     1       3.507   4.514  17.426  0.00  0.00    +0.000 C 
BRANCH  14  15
ATOM     15  C   UNL     1       4.869   3.923  17.048  0.00  0.00    +0.000 C 
BRANCH  15  16
ATOM     16  C   UNL     1       5.890   4.896  16.402  0.00  0.00    +0.000 C 
ATOM     17  C   UNL     1       6.467   4.282  15.112  0.00  0.00    +0.000 C 
ATOM     18  C   UNL     1       5.192   6.220  16.040  0.00  0.00    +0.000 C 
BRANCH  16  19
ATOM     19  C   UNL     1       7.044   5.172  17.407  0.00  0.00    +0.000 C 
ATOM     20  F   UNL     1       7.996   4.213  17.365  0.00  0.00    +0.000 F 
ATOM     21  F   UNL     1       7.662   6.349  17.156  0.00  0.00    +0.000 F 
ATOM     22  F   UNL     1       6.599   5.226  18.683  0.00  0.00    +0.000 F 
ENDBRANCH  16  19
ENDBRANCH  15  16
ENDBRANCH  14  15
ENDBRANCH   1  14
TORSDOF 6
ENDMDL
MODEL 3
REMARK VINA RESULT:      -6.5      2.505      3.204
REMARK  Name = 
REMARK  9 active torsions:
REMARK  status: ('A' for Active; 'I' for Inactive)
REMARK    1  A    between atoms: C_1  and  N_2
REMARK    2  A    between atoms: C_5  and  N_6
REMARK    3  A    between atoms: N_6  and  S_7
REMARK    4  A    between atoms: S_7  and  C_10
REMARK    5  A    between atoms: C_10  and  C_11
REMARK    6  A    between atoms: C_11  and  C_12
REMARK    7  A    between atoms: C_12  and  C_13
REMARK    8  A    between atoms: C_12  and  C_14
REMARK    9  A    between atoms: C_12  and  C_15
REMARK                            x       y       z     vdW  Elec       q    Type
REMARK                         _______ _______ _______ _____ _____    ______ ____
ROOT
ATOM      1  S   UNL     1       2.512   6.600  18.957  0.00  0.00    +0.000 S 
ATOM      2  O   UNL     1       2.344   8.035  19.039  0.00  0.00    +0.000 OA
ATOM      3  O   UNL     1       2.058   5.832  17.823  0.00  0.00    +0.000 OA
ENDROOT
BRANCH   1   4
ATOM      4  N   UNL     1       4.171   6.267  19.120  0.00  0.00    +0.000 NA
ATOM      5  H   UNL     1       4.326   5.697  19.955  0.00  0.00    +0.000 HD
BRANCH   4  10
ATOM      6  C   UNL     1       7.351   4.918  14.558  0.00  0.00    +0.000 C 
ATOM      7  N   UNL     1       6.630   5.395  15.729  0.00  0.00    +0.000 N 
ATOM      8  C   UNL     1       5.305   5.953  15.511  0.00  0.00    +0.000 C 
ATOM      9  C   UNL     1       4.733   6.619  16.753  0.00  0.00    +0.000 C 
ATOM     10  C   UNL     1       4.801   5.631  17.910  0.00  0.00    +0.000 C 
ATOM     11  C   UNL     1       6.257   5.273  18.170  0.00  0.00    +0.000 C 
ATOM     12  C   UNL     1       7.034   4.864  16.943  0.00  0.00    +0.000 C 
ATOM     13  O   UNL     1       8.035   4.160  17.055  0.00  0.00    +0.000 OA
ENDBRANCH   4  10
ENDBRANCH   1   4
BRANCH   1  14
ATOM     14  C   UNL     1       1.831   5.845  20.430  0.00  0.00    +0.000 C 
BRANCH  14  15
ATOM     15  C   UNL     1       2.661   4.614  20.811  0.00  0.00    +0.000 C 
BRANCH  15  16
ATOM     16  C   UNL     1       2.050   3.232  20.458  0.00  0.00    +0.000 C 
ATOM     17  C   UNL     1       1.942   2.361  21.723  0.00  0.00    +0.000 C 
ATOM     18  C   UNL     1       0.637   3.420  19.875  0.00  0.00    +0.000 C 
BRANCH  16  19
ATOM     19  C   UNL     1       2.956   2.522  19.414  0.00  0.00    +0.000 C 
ATOM     20  F   UNL     1       2.841   3.070  18.183  0.00  0.00    +0.000 F 
ATOM     21  F   UNL     1       4.264   2.588  19.751  0.00  0.00    +0.000 F 
ATOM     22  F   UNL     1       2.649   1.210  19.288  0.00  0.00    +0.000 F 
ENDBRANCH  16  19
ENDBRANCH  15  16
ENDBRANCH  14  15
ENDBRANCH   1  14
TORSDOF 6
ENDMDL
MODEL 4
REMARK VINA RESULT:      -6.4      4.047      6.341
REMARK  Name = 
REMARK  9 active torsions:
REMARK  status: ('A' for Active; 'I' for Inactive)
REMARK    1  A    between atoms: C_1  and  N_2
REMARK    2  A    between atoms: C_5  and  N_6
REMARK    3  A    between atoms: N_6  and  S_7
REMARK    4  A    between atoms: S_7  and  C_10
REMARK    5  A    between atoms: C_10  and  C_11
REMARK    6  A    between atoms: C_11  and  C_12
REMARK    7  A    between atoms: C_12  and  C_13
REMARK    8  A    between atoms: C_12  and  C_14
REMARK    9  A    between atoms: C_12  and  C_15
REMARK                            x       y       z     vdW  Elec       q    Type
REMARK                         _______ _______ _______ _____ _____    ______ ____
ROOT
ATOM      1  S   UNL     1       3.599   6.249  18.160  0.00  0.00    +0.000 S 
ATOM      2  O   UNL     1       4.387   6.941  17.164  0.00  0.00    +0.000 OA
ATOM      3  O   UNL     1       4.035   6.108  19.529  0.00  0.00    +0.000 OA
ENDROOT
BRANCH   1   4
ATOM      4  N   UNL     1       2.075   7.001  18.225  0.00  0.00    +0.000 NA
ATOM      5  H   UNL     1       1.403   6.376  18.675  0.00  0.00    +0.000 HD
BRANCH   4  10
ATOM      6  C   UNL     1       0.759  11.992  20.695  0.00  0.00    +0.000 C 
ATOM      7  N   UNL     1       0.936  10.697  20.055  0.00  0.00    +0.000 N 
ATOM      8  C   UNL     1       1.318  10.696  18.652  0.00  0.00    +0.000 C 
ATOM      9  C   UNL     1       1.260   9.312  18.025  0.00  0.00    +0.000 C 
ATOM     10  C   UNL     1       2.075   8.354  18.884  0.00  0.00    +0.000 C 
ATOM     11  C   UNL     1       1.460   8.291  20.274  0.00  0.00    +0.000 C 
ATOM     12  C   UNL     1       1.191   9.635  20.906  0.00  0.00    +0.000 C 
ATOM     13  O   UNL     1       1.117   9.735  22.129  0.00  0.00    +0.000 OA
ENDBRANCH   4  10
ENDBRANCH   1   4
BRANCH   1  14
ATOM     14  C   UNL     1       3.187   4.618  17.553  0.00  0.00    +0.000 C 
BRANCH  14  15
ATOM     15  C   UNL     1       1.796   4.215  18.056  0.00  0.00    +0.000 C 
BRANCH  15  16
ATOM     16  C   UNL     1       1.744   3.071  19.103  0.00  0.00    +0.000 C 
ATOM     17  C   UNL     1       0.571   2.122  18.796  0.00  0.00    +0.000 C 
ATOM     18  C   UNL     1       3.052   2.259  19.054  0.00  0.00    +0.000 C 
BRANCH  16  19
ATOM     19  C   UNL     1       1.561   3.681  20.521  0.00  0.00    +0.000 C 
ATOM     20  F   UNL     1       0.823   2.885  21.327  0.00  0.00    +0.000 F 
ATOM     21  F   UNL     1       2.746   3.876  21.144  0.00  0.00    +0.000 F 
ATOM     22  F   UNL     1       0.938   4.881  20.478  0.00  0.00    +0.000 F 
ENDBRANCH  16  19
ENDBRANCH  15  16
ENDBRANCH  14  15
ENDBRANCH   1  14
TORSDOF 6
ENDMDL
MODEL 5
REMARK VINA RESULT:      -6.4      4.605      6.687
REMARK  Name = 
REMARK  9 active torsions:
REMARK  status: ('A' for Active; 'I' for Inactive)
REMARK    1  A    between atoms: C_1  and  N_2
REMARK    2  A    between atoms: C_5  and  N_6
REMARK    3  A    between atoms: N_6  and  S_7
REMARK    4  A    between atoms: S_7  and  C_10
REMARK    5  A    between atoms: C_10  and  C_11
REMARK    6  A    between atoms: C_11  and  C_12
REMARK    7  A    between atoms: C_12  and  C_13
REMARK    8  A    between atoms: C_12  and  C_14
REMARK    9  A    between atoms: C_12  and  C_15
REMARK                            x       y       z     vdW  Elec       q    Type
REMARK                         _______ _______ _______ _____ _____    ______ ____
ROOT
ATOM      1  S   UNL     1       2.584   4.072  19.627  0.00  0.00    +0.000 S 
ATOM      2  O   UNL     1       2.993   3.110  20.627  0.00  0.00    +0.000 OA
ATOM      3  O   UNL     1       1.217   4.188  19.179  0.00  0.00    +0.000 OA
ENDROOT
BRANCH   1   4
ATOM      4  N   UNL     1       3.030   5.616  20.185  0.00  0.00    +0.000 NA
ATOM      5  H   UNL     1       3.977   5.835  19.867  0.00  0.00    +0.000 HD
BRANCH   4  10
ATOM      6  C   UNL     1       0.375  10.580  19.161  0.00  0.00    +0.000 C 
ATOM      7  N   UNL     1       1.174   9.405  19.473  0.00  0.00    +0.000 N 
ATOM      8  C   UNL     1       0.834   8.671  20.682  0.00  0.00    +0.000 C 
ATOM      9  C   UNL     1       1.857   7.603  21.033  0.00  0.00    +0.000 C 
ATOM     10  C   UNL     1       2.070   6.714  19.815  0.00  0.00    +0.000 C 
ATOM     11  C   UNL     1       2.614   7.561  18.674  0.00  0.00    +0.000 C 
ATOM     12  C   UNL     1       1.840   8.828  18.405  0.00  0.00    +0.000 C 
ATOM     13  O   UNL     1       1.889   9.354  17.295  0.00  0.00    +0.000 OA
ENDBRANCH   4  10
ENDBRANCH   1   4
BRANCH   1  14
ATOM     14  C   UNL     1       3.615   3.885  18.177  0.00  0.00    +0.000 C 
BRANCH  14  15
ATOM     15  C   UNL     1       4.947   4.613  18.392  0.00  0.00    +0.000 C 
BRANCH  15  16
ATOM     16  C   UNL     1       5.743   4.990  17.114  0.00  0.00    +0.000 C 
ATOM     17  C   UNL     1       5.715   3.825  16.108  0.00  0.00    +0.000 C 
ATOM     18  C   UNL     1       5.105   6.223  16.448  0.00  0.00    +0.000 C 
BRANCH  16  19
ATOM     19  C   UNL     1       7.214   5.308  17.501  0.00  0.00    +0.000 C 
ATOM     20  F   UNL     1       7.666   6.434  16.904  0.00  0.00    +0.000 F 
ATOM     21  F   UNL     1       7.359   5.487  18.834  0.00  0.00    +0.000 F 
ATOM     22  F   UNL     1       8.057   4.312  17.144  0.00  0.00    +0.000 F 
ENDBRANCH  16  19
ENDBRANCH  15  16
ENDBRANCH  14  15
ENDBRANCH   1  14
TORSDOF 6
ENDMDL
MODEL 6
REMARK VINA RESULT:      -6.4      4.770      6.832
REMARK  Name = 
REMARK  9 active torsions:
REMARK  status: ('A' for Active; 'I' for Inactive)
REMARK    1  A    between atoms: C_1  and  N_2
REMARK    2  A    between atoms: C_5  and  N_6
REMARK    3  A    between atoms: N_6  and  S_7
REMARK    4  A    between atoms: S_7  and  C_10
REMARK    5  A    between atoms: C_10  and  C_11
REMARK    6  A    between atoms: C_11  and  C_12
REMARK    7  A    between atoms: C_12  and  C_13
REMARK    8  A    between atoms: C_12  and  C_14
REMARK    9  A    between atoms: C_12  and  C_15
REMARK                            x       y       z     vdW  Elec       q    Type
REMARK                         _______ _______ _______ _____ _____    ______ ____
ROOT
ATOM      1  S   UNL     1       2.658   4.423  19.468  0.00  0.00    +0.000 S 
ATOM      2  O   UNL     1       2.010   3.585  20.452  0.00  0.00    +0.000 OA
ATOM      3  O   UNL     1       2.072   4.695  18.177  0.00  0.00    +0.000 OA
ENDROOT
BRANCH   1   4
ATOM      4  N   UNL     1       2.939   5.938  20.187  0.00  0.00    +0.000 NA
ATOM      5  H   UNL     1       3.897   6.238  19.993  0.00  0.00    +0.000 HD
BRANCH   4  10
ATOM      6  C   UNL     1       0.115  10.813  19.185  0.00  0.00    +0.000 C 
ATOM      7  N   UNL     1       0.949   9.664  19.503  0.00  0.00    +0.000 N 
ATOM      8  C   UNL     1       0.569   8.866  20.657  0.00  0.00    +0.000 C 
ATOM      9  C   UNL     1       1.619   7.832  21.033  0.00  0.00    +0.000 C 
ATOM     10  C   UNL     1       1.952   7.006  19.798  0.00  0.00    +0.000 C 
ATOM     11  C   UNL     1       2.526   7.924  18.728  0.00  0.00    +0.000 C 
ATOM     12  C   UNL     1       1.709   9.164  18.459  0.00  0.00    +0.000 C 
ATOM     13  O   UNL     1       1.803   9.738  17.376  0.00  0.00    +0.000 OA
ENDBRANCH   4  10
ENDBRANCH   1   4
BRANCH   1  14
ATOM     14  C   UNL     1       4.322   3.825  19.192  0.00  0.00    +0.000 C 
BRANCH  14  15
ATOM     15  C   UNL     1       5.298   5.006  19.161  0.00  0.00    +0.000 C 
BRANCH  15  16
ATOM     16  C   UNL     1       5.963   5.319  17.794  0.00  0.00    +0.000 C 
ATOM     17  C   UNL     1       5.669   4.188  16.790  0.00  0.00    +0.000 C 
ATOM     18  C   UNL     1       5.396   6.633  17.227  0.00  0.00    +0.000 C 
BRANCH  16  19
ATOM     19  C   UNL     1       7.499   5.454  17.990  0.00  0.00    +0.000 C 
ATOM     20  F   UNL     1       8.170   4.384  17.507  0.00  0.00    +0.000 F 
ATOM     21  F   UNL     1       7.994   6.543  17.358  0.00  0.00    +0.000 F 
ATOM     22  F   UNL     1       7.834   5.570  19.295  0.00  0.00    +0.000 F 
ENDBRANCH  16  19
ENDBRANCH  15  16
ENDBRANCH  14  15
ENDBRANCH   1  14
TORSDOF 6
ENDMDL
MODEL 7
REMARK VINA RESULT:      -6.3      4.298      6.553
REMARK  Name = 
REMARK  9 active torsions:
REMARK  status: ('A' for Active; 'I' for Inactive)
REMARK    1  A    between atoms: C_1  and  N_2
REMARK    2  A    between atoms: C_5  and  N_6
REMARK    3  A    between atoms: N_6  and  S_7
REMARK    4  A    between atoms: S_7  and  C_10
REMARK    5  A    between atoms: C_10  and  C_11
REMARK    6  A    between atoms: C_11  and  C_12
REMARK    7  A    between atoms: C_12  and  C_13
REMARK    8  A    between atoms: C_12  and  C_14
REMARK    9  A    between atoms: C_12  and  C_15
REMARK                            x       y       z     vdW  Elec       q    Type
REMARK                         _______ _______ _______ _____ _____    ______ ____
ROOT
ATOM      1  S   UNL     1       2.825   3.594  17.931  0.00  0.00    +0.000 S 
ATOM      2  O   UNL     1       3.032   2.288  18.518  0.00  0.00    +0.000 OA
ATOM      3  O   UNL     1       1.553   4.004  17.387  0.00  0.00    +0.000 OA
ENDROOT
BRANCH   1   4
ATOM      4  N   UNL     1       3.234   4.756  19.103  0.00  0.00    +0.000 NA
ATOM      5  H   UNL     1       4.208   5.040  18.979  0.00  0.00    +0.000 HD
BRANCH   4  10
ATOM      6  C   UNL     1       0.856   9.928  19.690  0.00  0.00    +0.000 C 
ATOM      7  N   UNL     1       1.595   8.677  19.598  0.00  0.00    +0.000 N 
ATOM      8  C   UNL     1       1.324   7.669  20.611  0.00  0.00    +0.000 C 
ATOM      9  C   UNL     1       2.297   6.502  20.558  0.00  0.00    +0.000 C 
ATOM     10  C   UNL     1       2.324   5.954  19.137  0.00  0.00    +0.000 C 
ATOM     11  C   UNL     1       2.813   7.045  18.196  0.00  0.00    +0.000 C 
ATOM     12  C   UNL     1       2.109   8.371  18.349  0.00  0.00    +0.000 C 
ATOM     13  O   UNL     1       2.087   9.167  17.413  0.00  0.00    +0.000 OA
ENDBRANCH   4  10
ENDBRANCH   1   4
BRANCH   1  14
ATOM     14  C   UNL     1       4.067   3.875  16.675  0.00  0.00    +0.000 C 
BRANCH  14  15
ATOM     15  C   UNL     1       5.323   4.478  17.314  0.00  0.00    +0.000 C 
BRANCH  15  16
ATOM     16  C   UNL     1       6.120   5.491  16.451  0.00  0.00    +0.000 C 
ATOM     17  C   UNL     1       7.261   4.772  15.707  0.00  0.00    +0.000 C 
ATOM     18  C   UNL     1       5.188   6.134  15.407  0.00  0.00    +0.000 C 
BRANCH  16  19
ATOM     19  C   UNL     1       6.714   6.594  17.371  0.00  0.00    +0.000 C 
ATOM     20  F   UNL     1       5.908   7.675  17.455  0.00  0.00    +0.000 F 
ATOM     21  F   UNL     1       6.906   6.149  18.634  0.00  0.00    +0.000 F 
ATOM     22  F   UNL     1       7.912   7.034  16.923  0.00  0.00    +0.000 F 
ENDBRANCH  16  19
ENDBRANCH  15  16
ENDBRANCH  14  15
ENDBRANCH   1  14
TORSDOF 6
ENDMDL
MODEL 8
REMARK VINA RESULT:      -6.3      4.594      6.690
REMARK  Name = 
REMARK  9 active torsions:
REMARK  status: ('A' for Active; 'I' for Inactive)
REMARK    1  A    between atoms: C_1  and  N_2
REMARK    2  A    between atoms: C_5  and  N_6
REMARK    3  A    between atoms: N_6  and  S_7
REMARK    4  A    between atoms: S_7  and  C_10
REMARK    5  A    between atoms: C_10  and  C_11
REMARK    6  A    between atoms: C_11  and  C_12
REMARK    7  A    between atoms: C_12  and  C_13
REMARK    8  A    between atoms: C_12  and  C_14
REMARK    9  A    between atoms: C_12  and  C_15
REMARK                            x       y       z     vdW  Elec       q    Type
REMARK                         _______ _______ _______ _____ _____    ______ ____
ROOT
ATOM      1  S   UNL     1       2.812   4.317  19.226  0.00  0.00    +0.000 S 
ATOM      2  O   UNL     1       2.576   3.313  20.241  0.00  0.00    +0.000 OA
ATOM      3  O   UNL     1       1.859   4.596  18.178  0.00  0.00    +0.000 OA
ENDROOT
BRANCH   1   4
ATOM      4  N   UNL     1       3.088   5.796  20.019  0.00  0.00    +0.000 NA
ATOM      5  H   UNL     1       4.043   6.109  19.837  0.00  0.00    +0.000 HD
BRANCH   4  10
ATOM      6  C   UNL     1       0.264  10.707  19.210  0.00  0.00    +0.000 C 
ATOM      7  N   UNL     1       1.101   9.546  19.476  0.00  0.00    +0.000 N 
ATOM      8  C   UNL     1       0.760   8.731  20.631  0.00  0.00    +0.000 C 
ATOM      9  C   UNL     1       1.816   7.684  20.947  0.00  0.00    +0.000 C 
ATOM     10  C   UNL     1       2.095   6.876  19.686  0.00  0.00    +0.000 C 
ATOM     11  C   UNL     1       2.633   7.808  18.611  0.00  0.00    +0.000 C 
ATOM     12  C   UNL     1       1.816   9.058  18.394  0.00  0.00    +0.000 C 
ATOM     13  O   UNL     1       1.872   9.650  17.319  0.00  0.00    +0.000 OA
ENDBRANCH   4  10
ENDBRANCH   1   4
BRANCH   1  14
ATOM     14  C   UNL     1       4.394   4.006  18.451  0.00  0.00    +0.000 C 
BRANCH  14  15
ATOM     15  C   UNL     1       4.314   4.343  16.958  0.00  0.00    +0.000 C 
BRANCH  15  16
ATOM     16  C   UNL     1       5.503   5.143  16.365  0.00  0.00    +0.000 C 
ATOM     17  C   UNL     1       5.057   6.575  16.012  0.00  0.00    +0.000 C 
ATOM     18  C   UNL     1       6.642   5.229  17.398  0.00  0.00    +0.000 C 
BRANCH  16  19
ATOM     19  C   UNL     1       6.015   4.428  15.083  0.00  0.00    +0.000 C 
ATOM     20  F   UNL     1       5.144   4.540  14.055  0.00  0.00    +0.000 F 
ATOM     21  F   UNL     1       7.192   4.939  14.655  0.00  0.00    +0.000 F 
ATOM     22  F   UNL     1       6.212   3.105  15.286  0.00  0.00    +0.000 F 
ENDBRANCH  16  19
ENDBRANCH  15  16
ENDBRANCH  14  15
ENDBRANCH   1  14
TORSDOF 6
ENDMDL
MODEL 9
REMARK VINA RESULT:      -6.2      4.542      6.839
REMARK  Name = 
REMARK  9 active torsions:
REMARK  status: ('A' for Active; 'I' for Inactive)
REMARK    1  A    between atoms: C_1  and  N_2
REMARK    2  A    between atoms: C_5  and  N_6
REMARK    3  A    between atoms: N_6  and  S_7
REMARK    4  A    between atoms: S_7  and  C_10
REMARK    5  A    between atoms: C_10  and  C_11
REMARK    6  A    between atoms: C_11  and  C_12
REMARK    7  A    between atoms: C_12  and  C_13
REMARK    8  A    between atoms: C_12  and  C_14
REMARK    9  A    between atoms: C_12  and  C_15
REMARK                            x       y       z     vdW  Elec       q    Type
REMARK                         _______ _______ _______ _____ _____    ______ ____
ROOT
ATOM      1  S   UNL     1       3.912   4.604  19.261  0.00  0.00    +0.000 S 
ATOM      2  O   UNL     1       4.987   5.552  19.457  0.00  0.00    +0.000 OA
ATOM      3  O   UNL     1       3.902   3.305  19.890  0.00  0.00    +0.000 OA
ENDROOT
BRANCH   1   4
ATOM      4  N   UNL     1       2.464   5.365  19.724  0.00  0.00    +0.000 NA
ATOM      5  H   UNL     1       2.221   5.088  20.677  0.00  0.00    +0.000 HD
BRANCH   4  10
ATOM      6  C   UNL     1       1.241  10.884  18.838  0.00  0.00    +0.000 C 
ATOM      7  N   UNL     1       1.402   9.449  19.018  0.00  0.00    +0.000 N 
ATOM      8  C   UNL     1       2.152   8.732  17.999  0.00  0.00    +0.000 C 
ATOM      9  C   UNL     1       2.073   7.222  18.161  0.00  0.00    +0.000 C 
ATOM     10  C   UNL     1       2.474   6.863  19.586  0.00  0.00    +0.000 C 
ATOM     11  C   UNL     1       1.497   7.514  20.554  0.00  0.00    +0.000 C 
ATOM     12  C   UNL     1       1.259   8.984  20.315  0.00  0.00    +0.000 C 
ATOM     13  O   UNL     1       0.865   9.700  21.233  0.00  0.00    +0.000 OA
ENDBRANCH   4  10
ENDBRANCH   1   4
BRANCH   1  14
ATOM     14  C   UNL     1       3.662   4.357  17.506  0.00  0.00    +0.000 C 
BRANCH  14  15
ATOM     15  C   UNL     1       4.977   3.921  16.852  0.00  0.00    +0.000 C 
BRANCH  15  16
ATOM     16  C   UNL     1       5.621   4.923  15.857  0.00  0.00    +0.000 C 
ATOM     17  C   UNL     1       5.425   4.433  14.410  0.00  0.00    +0.000 C 
ATOM     18  C   UNL     1       4.951   6.302  15.999  0.00  0.00    +0.000 C 
BRANCH  16  19
ATOM     19  C   UNL     1       7.140   5.046  16.163  0.00  0.00    +0.000 C 
ATOM     20  F   UNL     1       7.471   6.278  16.611  0.00  0.00    +0.000 F 
ATOM     21  F   UNL     1       7.537   4.165  17.110  0.00  0.00    +0.000 F 
ATOM     22  F   UNL     1       7.896   4.812  15.067  0.00  0.00    +0.000 F 
ENDBRANCH  16  19
ENDBRANCH  15  16
ENDBRANCH  14  15
ENDBRANCH   1  14
TORSDOF 6
ENDMDL
