MODEL 1
REMARK VINA RESULT:      -6.4      0.000      0.000
REMARK  Name = 
REMARK  8 active torsions:
REMARK  status: ('A' for Active; 'I' for Inactive)
REMARK    1  A    between atoms: C_1  and  C_2
REMARK    2  A    between atoms: C_9  and  O_10
REMARK    3  A    between atoms: O_10  and  C_11
REMARK    4  A    between atoms: C_11  and  C_12
REMARK    5  A    between atoms: C_12  and  C_13
REMARK    6  A    between atoms: C_13  and  C_14
REMARK    7  A    between atoms: C_14  and  C_15
REMARK    8  A    between atoms: C_15  and  C_16
REMARK                            x       y       z     vdW  Elec       q    Type
REMARK                         _______ _______ _______ _____ _____    ______ ____
ROOT
ATOM      1  C   UNL     1       5.086   6.851  15.377  0.00  0.00    +0.000 C 
ATOM      2  C   UNL     1       5.546   6.027  16.543  0.00  0.00    +0.000 A 
ATOM      3  C   UNL     1       6.766   5.468  16.558  0.00  0.00    +0.000 A 
ATOM      4  C   UNL     1       7.272   4.649  17.667  0.00  0.00    +0.000 A 
ATOM      5  O   UNL     1       8.402   4.174  17.633  0.00  0.00    +0.000 OA
ATOM      6  O   UNL     1       6.417   4.446  18.732  0.00  0.00    +0.000 OA
ATOM      7  C   UNL     1       5.129   5.014  18.743  0.00  0.00    +0.000 A 
ATOM      8  C   UNL     1       4.360   4.729  19.872  0.00  0.00    +0.000 A 
ATOM      9  C   UNL     1       3.072   5.247  19.977  0.00  0.00    +0.000 A 
ATOM     10  C   UNL     1       2.583   6.052  18.945  0.00  0.00    +0.000 A 
ATOM     11  C   UNL     1       3.370   6.331  17.814  0.00  0.00    +0.000 A 
ATOM     12  C   UNL     1       4.662   5.806  17.695  0.00  0.00    +0.000 A 
ENDROOT
BRANCH   9  13
ATOM     13  O   UNL     1       2.219   5.032  21.029  0.00  0.00    +0.000 OA
BRANCH  13  14
ATOM     14  C   UNL     1       2.437   3.822  21.759  0.00  0.00    +0.000 C 
BRANCH  14  15
ATOM     15  C   UNL     1       1.249   2.887  21.561  0.00  0.00    +0.000 C 
BRANCH  15  16
ATOM     16  C   UNL     1       0.595   3.128  20.200  0.00  0.00    +0.000 C 
BRANCH  16  17
ATOM     17  C   UNL     1       1.077   2.111  19.169  0.00  0.00    +0.000 C 
BRANCH  17  18
ATOM     18  C   UNL     1       1.316   2.767  17.809  0.00  0.00    +0.000 C 
BRANCH  18  19
ATOM     19  C   UNL     1       2.776   2.649  17.410  0.00  0.00    +0.000 C 
ATOM     20 BR   UNL     1       3.681   1.388  18.582  0.00  0.00    +0.000 Br
ENDBRANCH  18  19
ENDBRANCH  17  18
ENDBRANCH  16  17
ENDBRANCH  15  16
ENDBRANCH  14  15
ENDBRANCH  13  14
ENDBRANCH   9  13
TORSDOF 7
ENDMDL
MODEL 2
REMARK VINA RESULT:      -6.4      2.076      2.738
REMARK  Name = 
REMARK  8 active torsions:
REMARK  status: ('A' for Active; 'I' for Inactive)
REMARK    1  A    between atoms: C_1  and  C_2
REMARK    2  A    between atoms: C_9  and  O_10
REMARK    3  A    between atoms: O_10  and  C_11
REMARK    4  A    between atoms: C_11  and  C_12
REMARK    5  A    between atoms: C_12  and  C_13
REMARK    6  A    between atoms: C_13  and  C_14
REMARK    7  A    between atoms: C_14  and  C_15
REMARK    8  A    between atoms: C_15  and  C_16
REMARK                            x       y       z     vdW  Elec       q    Type
REMARK                         _______ _______ _______ _____ _____    ______ ____
ROOT
ATOM      1  C   UNL     1       5.710   5.463  14.956  0.00  0.00    +0.000 C 
ATOM      2  C   UNL     1       5.993   5.363  16.425  0.00  0.00    +0.000 A 
ATOM      3  C   UNL     1       6.992   6.061  16.988  0.00  0.00    +0.000 A 
ATOM      4  C   UNL     1       7.320   6.003  18.418  0.00  0.00    +0.000 A 
ATOM      5  O   UNL     1       8.236   6.675  18.880  0.00  0.00    +0.000 OA
ATOM      6  O   UNL     1       6.553   5.163  19.200  0.00  0.00    +0.000 OA
ATOM      7  C   UNL     1       5.502   4.412  18.638  0.00  0.00    +0.000 A 
ATOM      8  C   UNL     1       4.807   3.596  19.531  0.00  0.00    +0.000 A 
ATOM      9  C   UNL     1       3.749   2.817  19.071  0.00  0.00    +0.000 A 
ATOM     10  C   UNL     1       3.403   2.880  17.719  0.00  0.00    +0.000 A 
ATOM     11  C   UNL     1       4.112   3.708  16.831  0.00  0.00    +0.000 A 
ATOM     12  C   UNL     1       5.184   4.487  17.283  0.00  0.00    +0.000 A 
ENDROOT
BRANCH   9  13
ATOM     13  O   UNL     1       2.997   1.972  19.847  0.00  0.00    +0.000 OA
BRANCH  13  14
ATOM     14  C   UNL     1       3.140   2.144  21.259  0.00  0.00    +0.000 C 
BRANCH  14  15
ATOM     15  C   UNL     1       2.212   3.255  21.733  0.00  0.00    +0.000 C 
BRANCH  15  16
ATOM     16  C   UNL     1       0.987   3.359  20.824  0.00  0.00    +0.000 C 
BRANCH  16  17
ATOM     17  C   UNL     1       0.904   4.733  20.165  0.00  0.00    +0.000 C 
BRANCH  17  18
ATOM     18  C   UNL     1       2.017   5.656  20.659  0.00  0.00    +0.000 C 
BRANCH  18  19
ATOM     19  C   UNL     1       1.847   7.051  20.083  0.00  0.00    +0.000 C 
ATOM     20 BR   UNL     1       2.690   7.151  18.334  0.00  0.00    +0.000 Br
ENDBRANCH  18  19
ENDBRANCH  17  18
ENDBRANCH  16  17
ENDBRANCH  15  16
ENDBRANCH  14  15
ENDBRANCH  13  14
ENDBRANCH   9  13
TORSDOF 7
ENDMDL
MODEL 3
REMARK VINA RESULT:      -6.2      5.168      7.856
REMARK  Name = 
REMARK  8 active torsions:
REMARK  status: ('A' for Active; 'I' for Inactive)
REMARK    1  A    between atoms: C_1  and  C_2
REMARK    2  A    between atoms: C_9  and  O_10
REMARK    3  A    between atoms: O_10  and  C_11
REMARK    4  A    between atoms: C_11  and  C_12
REMARK    5  A    between atoms: C_12  and  C_13
REMARK    6  A    between atoms: C_13  and  C_14
REMARK    7  A    between atoms: C_14  and  C_15
REMARK    8  A    between atoms: C_15  and  C_16
REMARK                            x       y       z     vdW  Elec       q    Type
REMARK                         _______ _______ _______ _____ _____    ______ ____
ROOT
ATOM      1  C   UNL     1       1.761   4.520  17.753  0.00  0.00    +0.000 C 
ATOM      2  C   UNL     1       3.115   4.216  18.323  0.00  0.00    +0.000 A 
ATOM      3  C   UNL     1       3.296   3.190  19.168  0.00  0.00    +0.000 A 
ATOM      4  C   UNL     1       4.594   2.844  19.761  0.00  0.00    +0.000 A 
ATOM      5  O   UNL     1       4.705   1.885  20.517  0.00  0.00    +0.000 OA
ATOM      6  O   UNL     1       5.666   3.648  19.427  0.00  0.00    +0.000 OA
ATOM      7  C   UNL     1       5.507   4.736  18.547  0.00  0.00    +0.000 A 
ATOM      8  C   UNL     1       6.662   5.475  18.294  0.00  0.00    +0.000 A 
ATOM      9  C   UNL     1       6.607   6.570  17.436  0.00  0.00    +0.000 A 
ATOM     10  C   UNL     1       5.387   6.896  16.839  0.00  0.00    +0.000 A 
ATOM     11  C   UNL     1       4.230   6.143  17.103  0.00  0.00    +0.000 A 
ATOM     12  C   UNL     1       4.275   5.047  17.973  0.00  0.00    +0.000 A 
ENDROOT
BRANCH   9  13
ATOM     13  O   UNL     1       7.670   7.375  17.116  0.00  0.00    +0.000 OA
BRANCH  13  14
ATOM     14  C   UNL     1       8.225   8.121  18.203  0.00  0.00    +0.000 C 
BRANCH  14  15
ATOM     15  C   UNL     1       8.159   9.610  17.885  0.00  0.00    +0.000 C 
BRANCH  15  16
ATOM     16  C   UNL     1       9.252  10.370  18.636  0.00  0.00    +0.000 C 
BRANCH  16  17
ATOM     17  C   UNL     1       9.568  11.699  17.955  0.00  0.00    +0.000 C 
BRANCH  17  18
ATOM     18  C   UNL     1       9.297  12.880  18.887  0.00  0.00    +0.000 C 
BRANCH  18  19
ATOM     19  C   UNL     1       9.309  14.184  18.109  0.00  0.00    +0.000 C 
ATOM     20 BR   UNL     1      11.069  14.477  17.336  0.00  0.00    +0.000 Br
ENDBRANCH  18  19
ENDBRANCH  17  18
ENDBRANCH  16  17
ENDBRANCH  15  16
ENDBRANCH  14  15
ENDBRANCH  13  14
ENDBRANCH   9  13
TORSDOF 7
ENDMDL
MODEL 4
REMARK VINA RESULT:      -6.1      2.901      3.782
REMARK  Name = 
REMARK  8 active torsions:
REMARK  status: ('A' for Active; 'I' for Inactive)
REMARK    1  A    between atoms: C_1  and  C_2
REMARK    2  A    between atoms: C_9  and  O_10
REMARK    3  A    between atoms: O_10  and  C_11
REMARK    4  A    between atoms: C_11  and  C_12
REMARK    5  A    between atoms: C_12  and  C_13
REMARK    6  A    between atoms: C_13  and  C_14
REMARK    7  A    between atoms: C_14  and  C_15
REMARK    8  A    between atoms: C_15  and  C_16
REMARK                            x       y       z     vdW  Elec       q    Type
REMARK                         _______ _______ _______ _____ _____    ______ ____
ROOT
ATOM      1  C   UNL     1       5.449   4.908  15.009  0.00  0.00    +0.000 C 
ATOM      2  C   UNL     1       5.698   4.696  16.474  0.00  0.00    +0.000 A 
ATOM      3  C   UNL     1       6.866   5.044  17.036  0.00  0.00    +0.000 A 
ATOM      4  C   UNL     1       7.170   4.858  18.461  0.00  0.00    +0.000 A 
ATOM      5  O   UNL     1       8.250   5.209  18.924  0.00  0.00    +0.000 OA
ATOM      6  O   UNL     1       6.188   4.275  19.236  0.00  0.00    +0.000 OA
ATOM      7  C   UNL     1       4.954   3.894  18.675  0.00  0.00    +0.000 A 
ATOM      8  C   UNL     1       4.049   3.310  19.561  0.00  0.00    +0.000 A 
ATOM      9  C   UNL     1       2.800   2.900  19.101  0.00  0.00    +0.000 A 
ATOM     10  C   UNL     1       2.482   3.095  17.754  0.00  0.00    +0.000 A 
ATOM     11  C   UNL     1       3.404   3.685  16.873  0.00  0.00    +0.000 A 
ATOM     12  C   UNL     1       4.665   4.090  17.325  0.00  0.00    +0.000 A 
ENDROOT
BRANCH   9  13
ATOM     13  O   UNL     1       1.832   2.308  19.870  0.00  0.00    +0.000 OA
BRANCH  13  14
ATOM     14  C   UNL     1       1.314   3.114  20.932  0.00  0.00    +0.000 C 
BRANCH  14  15
ATOM     15  C   UNL     1       0.905   4.476  20.385  0.00  0.00    +0.000 C 
BRANCH  15  16
ATOM     16  C   UNL     1       1.768   5.582  20.994  0.00  0.00    +0.000 C 
BRANCH  16  17
ATOM     17  C   UNL     1       1.609   6.891  20.226  0.00  0.00    +0.000 C 
BRANCH  17  18
ATOM     18  C   UNL     1       1.464   8.080  21.176  0.00  0.00    +0.000 C 
BRANCH  18  19
ATOM     19  C   UNL     1      -0.002   8.403  21.404  0.00  0.00    +0.000 C 
ATOM     20 BR   UNL     1      -0.189   9.576  22.944  0.00  0.00    +0.000 Br
ENDBRANCH  18  19
ENDBRANCH  17  18
ENDBRANCH  16  17
ENDBRANCH  15  16
ENDBRANCH  14  15
ENDBRANCH  13  14
ENDBRANCH   9  13
TORSDOF 7
ENDMDL
MODEL 5
REMARK VINA RESULT:      -6.0      2.174      2.966
REMARK  Name = 
REMARK  8 active torsions:
REMARK  status: ('A' for Active; 'I' for Inactive)
REMARK    1  A    between atoms: C_1  and  C_2
REMARK    2  A    between atoms: C_9  and  O_10
REMARK    3  A    between atoms: O_10  and  C_11
REMARK    4  A    between atoms: C_11  and  C_12
REMARK    5  A    between atoms: C_12  and  C_13
REMARK    6  A    between atoms: C_13  and  C_14
REMARK    7  A    between atoms: C_14  and  C_15
REMARK    8  A    between atoms: C_15  and  C_16
REMARK                            x       y       z     vdW  Elec       q    Type
REMARK                         _______ _______ _______ _____ _____    ______ ____
ROOT
ATOM      1  C   UNL     1       5.460   4.208  14.123  0.00  0.00    +0.000 C 
ATOM      2  C   UNL     1       5.801   4.728  15.489  0.00  0.00    +0.000 A 
ATOM      3  C   UNL     1       6.669   5.739  15.649  0.00  0.00    +0.000 A 
ATOM      4  C   UNL     1       7.044   6.289  16.957  0.00  0.00    +0.000 A 
ATOM      5  O   UNL     1       7.833   7.225  17.043  0.00  0.00    +0.000 OA
ATOM      6  O   UNL     1       6.471   5.702  18.068  0.00  0.00    +0.000 OA
ATOM      7  C   UNL     1       5.561   4.636  17.933  0.00  0.00    +0.000 A 
ATOM      8  C   UNL     1       5.057   4.126  19.129  0.00  0.00    +0.000 A 
ATOM      9  C   UNL     1       4.149   3.071  19.101  0.00  0.00    +0.000 A 
ATOM     10  C   UNL     1       3.757   2.553  17.863  0.00  0.00    +0.000 A 
ATOM     11  C   UNL     1       4.273   3.077  16.666  0.00  0.00    +0.000 A 
ATOM     12  C   UNL     1       5.195   4.131  16.686  0.00  0.00    +0.000 A 
ENDROOT
BRANCH   9  13
ATOM     13  O   UNL     1       3.591   2.480  20.205  0.00  0.00    +0.000 OA
BRANCH  13  14
ATOM     14  C   UNL     1       2.243   2.028  20.046  0.00  0.00    +0.000 C 
BRANCH  14  15
ATOM     15  C   UNL     1       1.313   2.895  20.886  0.00  0.00    +0.000 C 
BRANCH  15  16
ATOM     16  C   UNL     1       2.040   4.149  21.375  0.00  0.00    +0.000 C 
BRANCH  16  17
ATOM     17  C   UNL     1       1.404   5.413  20.805  0.00  0.00    +0.000 C 
BRANCH  17  18
ATOM     18  C   UNL     1       1.943   5.728  19.410  0.00  0.00    +0.000 C 
BRANCH  18  19
ATOM     19  C   UNL     1       2.712   7.037  19.421  0.00  0.00    +0.000 C 
ATOM     20 BR   UNL     1       3.236   7.510  17.608  0.00  0.00    +0.000 Br
ENDBRANCH  18  19
ENDBRANCH  17  18
ENDBRANCH  16  17
ENDBRANCH  15  16
ENDBRANCH  14  15
ENDBRANCH  13  14
ENDBRANCH   9  13
TORSDOF 7
ENDMDL
MODEL 6
REMARK VINA RESULT:      -5.9      5.093      7.709
REMARK  Name = 
REMARK  8 active torsions:
REMARK  status: ('A' for Active; 'I' for Inactive)
REMARK    1  A    between atoms: C_1  and  C_2
REMARK    2  A    between atoms: C_9  and  O_10
REMARK    3  A    between atoms: O_10  and  C_11
REMARK    4  A    between atoms: C_11  and  C_12
REMARK    5  A    between atoms: C_12  and  C_13
REMARK    6  A    between atoms: C_13  and  C_14
REMARK    7  A    between atoms: C_14  and  C_15
REMARK    8  A    between atoms: C_15  and  C_16
REMARK                            x       y       z     vdW  Elec       q    Type
REMARK                         _______ _______ _______ _____ _____    ______ ____
ROOT
ATOM      1  C   UNL     1       1.668   5.075  17.923  0.00  0.00    +0.000 C 
ATOM      2  C   UNL     1       3.019   4.601  18.373  0.00  0.00    +0.000 A 
ATOM      3  C   UNL     1       3.151   3.499  19.128  0.00  0.00    +0.000 A 
ATOM      4  C   UNL     1       4.444   2.988  19.601  0.00  0.00    +0.000 A 
ATOM      5  O   UNL     1       4.506   1.966  20.277  0.00  0.00    +0.000 OA
ATOM      6  O   UNL     1       5.566   3.711  19.249  0.00  0.00    +0.000 OA
ATOM      7  C   UNL     1       5.460   4.874  18.463  0.00  0.00    +0.000 A 
ATOM      8  C   UNL     1       6.665   5.517  18.182  0.00  0.00    +0.000 A 
ATOM      9  C   UNL     1       6.664   6.676  17.409  0.00  0.00    +0.000 A 
ATOM     10  C   UNL     1       5.447   7.162  16.926  0.00  0.00    +0.000 A 
ATOM     11  C   UNL     1       4.240   6.503  17.217  0.00  0.00    +0.000 A 
ATOM     12  C   UNL     1       4.231   5.343  18.001  0.00  0.00    +0.000 A 
ENDROOT
BRANCH   9  13
ATOM     13  O   UNL     1       7.779   7.400  17.073  0.00  0.00    +0.000 OA
BRANCH  13  14
ATOM     14  C   UNL     1       8.362   8.160  18.135  0.00  0.00    +0.000 C 
BRANCH  14  15
ATOM     15  C   UNL     1       8.126   9.645  17.887  0.00  0.00    +0.000 C 
BRANCH  15  16
ATOM     16  C   UNL     1       9.317  10.469  18.378  0.00  0.00    +0.000 C 
BRANCH  16  17
ATOM     17  C   UNL     1       9.284  10.639  19.894  0.00  0.00    +0.000 C 
BRANCH  17  18
ATOM     18  C   UNL     1      10.295  11.686  20.360  0.00  0.00    +0.000 C 
BRANCH  18  19
ATOM     19  C   UNL     1       9.728  12.498  21.510  0.00  0.00    +0.000 C 
ATOM     20 BR   UNL     1       9.937  14.397  21.145  0.00  0.00    +0.000 Br
ENDBRANCH  18  19
ENDBRANCH  17  18
ENDBRANCH  16  17
ENDBRANCH  15  16
ENDBRANCH  14  15
ENDBRANCH  13  14
ENDBRANCH   9  13
TORSDOF 7
ENDMDL
MODEL 7
REMARK VINA RESULT:      -5.9      2.638      3.829
REMARK  Name = 
REMARK  8 active torsions:
REMARK  status: ('A' for Active; 'I' for Inactive)
REMARK    1  A    between atoms: C_1  and  C_2
REMARK    2  A    between atoms: C_9  and  O_10
REMARK    3  A    between atoms: O_10  and  C_11
REMARK    4  A    between atoms: C_11  and  C_12
REMARK    5  A    between atoms: C_12  and  C_13
REMARK    6  A    between atoms: C_13  and  C_14
REMARK    7  A    between atoms: C_14  and  C_15
REMARK    8  A    between atoms: C_15  and  C_16
REMARK                            x       y       z     vdW  Elec       q    Type
REMARK                         _______ _______ _______ _____ _____    ______ ____
ROOT
ATOM      1  C   UNL     1       5.198   3.130  12.382  0.00  0.00    +0.000 C 
ATOM      2  C   UNL     1       6.086   3.968  13.254  0.00  0.00    +0.000 A 
ATOM      3  C   UNL     1       7.149   4.612  12.745  0.00  0.00    +0.000 A 
ATOM      4  C   UNL     1       8.055   5.444  13.547  0.00  0.00    +0.000 A 
ATOM      5  O   UNL     1       9.003   6.022  13.026  0.00  0.00    +0.000 OA
ATOM      6  O   UNL     1       7.786   5.535  14.898  0.00  0.00    +0.000 OA
ATOM      7  C   UNL     1       6.683   4.866  15.463  0.00  0.00    +0.000 A 
ATOM      8  C   UNL     1       6.523   5.032  16.838  0.00  0.00    +0.000 A 
ATOM      9  C   UNL     1       5.460   4.412  17.489  0.00  0.00    +0.000 A 
ATOM     10  C   UNL     1       4.569   3.640  16.738  0.00  0.00    +0.000 A 
ATOM     11  C   UNL     1       4.743   3.482  15.352  0.00  0.00    +0.000 A 
ATOM     12  C   UNL     1       5.815   4.094  14.692  0.00  0.00    +0.000 A 
ENDROOT
BRANCH   9  13
ATOM     13  O   UNL     1       5.202   4.493  18.833  0.00  0.00    +0.000 OA
BRANCH  13  14
ATOM     14  C   UNL     1       4.634   5.728  19.277  0.00  0.00    +0.000 C 
BRANCH  14  15
ATOM     15  C   UNL     1       3.129   5.711  19.037  0.00  0.00    +0.000 C 
BRANCH  15  16
ATOM     16  C   UNL     1       2.372   5.837  20.360  0.00  0.00    +0.000 C 
BRANCH  16  17
ATOM     17  C   UNL     1       1.324   4.736  20.503  0.00  0.00    +0.000 C 
BRANCH  17  18
ATOM     18  C   UNL     1       1.882   3.531  21.261  0.00  0.00    +0.000 C 
BRANCH  18  19
ATOM     19  C   UNL     1       2.299   2.440  20.292  0.00  0.00    +0.000 C 
ATOM     20 BR   UNL     1       1.092   2.414  18.767  0.00  0.00    +0.000 Br
ENDBRANCH  18  19
ENDBRANCH  17  18
ENDBRANCH  16  17
ENDBRANCH  15  16
ENDBRANCH  14  15
ENDBRANCH  13  14
ENDBRANCH   9  13
TORSDOF 7
ENDMDL
MODEL 8
REMARK VINA RESULT:      -5.9      2.640      3.399
REMARK  Name = 
REMARK  8 active torsions:
REMARK  status: ('A' for Active; 'I' for Inactive)
REMARK    1  A    between atoms: C_1  and  C_2
REMARK    2  A    between atoms: C_9  and  O_10
REMARK    3  A    between atoms: O_10  and  C_11
REMARK    4  A    between atoms: C_11  and  C_12
REMARK    5  A    between atoms: C_12  and  C_13
REMARK    6  A    between atoms: C_13  and  C_14
REMARK    7  A    between atoms: C_14  and  C_15
REMARK    8  A    between atoms: C_15  and  C_16
REMARK                            x       y       z     vdW  Elec       q    Type
REMARK                         _______ _______ _______ _____ _____    ______ ____
ROOT
ATOM      1  C   UNL     1       5.456   4.328  14.530  0.00  0.00    +0.000 C 
ATOM      2  C   UNL     1       5.761   4.803  15.920  0.00  0.00    +0.000 A 
ATOM      3  C   UNL     1       6.609   5.821  16.134  0.00  0.00    +0.000 A 
ATOM      4  C   UNL     1       6.950   6.329  17.469  0.00  0.00    +0.000 A 
ATOM      5  O   UNL     1       7.722   7.273  17.604  0.00  0.00    +0.000 OA
ATOM      6  O   UNL     1       6.365   5.693  18.546  0.00  0.00    +0.000 OA
ATOM      7  C   UNL     1       5.476   4.618  18.355  0.00  0.00    +0.000 A 
ATOM      8  C   UNL     1       4.957   4.057  19.521  0.00  0.00    +0.000 A 
ATOM      9  C   UNL     1       4.067   2.990  19.436  0.00  0.00    +0.000 A 
ATOM     10  C   UNL     1       3.708   2.512  18.174  0.00  0.00    +0.000 A 
ATOM     11  C   UNL     1       4.238   3.087  17.006  0.00  0.00    +0.000 A 
ATOM     12  C   UNL     1       5.142   4.154  17.083  0.00  0.00    +0.000 A 
ENDROOT
BRANCH   9  13
ATOM     13  O   UNL     1       3.497   2.351  20.508  0.00  0.00    +0.000 OA
BRANCH  13  14
ATOM     14  C   UNL     1       2.637   3.156  21.317  0.00  0.00    +0.000 C 
BRANCH  14  15
ATOM     15  C   UNL     1       1.228   3.140  20.735  0.00  0.00    +0.000 C 
BRANCH  15  16
ATOM     16  C   UNL     1       0.806   4.546  20.307  0.00  0.00    +0.000 C 
BRANCH  16  17
ATOM     17  C   UNL     1       1.911   5.562  20.582  0.00  0.00    +0.000 C 
BRANCH  17  18
ATOM     18  C   UNL     1       1.333   6.919  20.983  0.00  0.00    +0.000 C 
BRANCH  18  19
ATOM     19  C   UNL     1       1.776   7.995  20.007  0.00  0.00    +0.000 C 
ATOM     20 BR   UNL     1       0.641   9.563  20.195  0.00  0.00    +0.000 Br
ENDBRANCH  18  19
ENDBRANCH  17  18
ENDBRANCH  16  17
ENDBRANCH  15  16
ENDBRANCH  14  15
ENDBRANCH  13  14
ENDBRANCH   9  13
TORSDOF 7
ENDMDL
MODEL 9
REMARK VINA RESULT:      -5.8      3.390      6.481
REMARK  Name = 
REMARK  8 active torsions:
REMARK  status: ('A' for Active; 'I' for Inactive)
REMARK    1  A    between atoms: C_1  and  C_2
REMARK    2  A    between atoms: C_9  and  O_10
REMARK    3  A    between atoms: O_10  and  C_11
REMARK    4  A    between atoms: C_11  and  C_12
REMARK    5  A    between atoms: C_12  and  C_13
REMARK    6  A    between atoms: C_13  and  C_14
REMARK    7  A    between atoms: C_14  and  C_15
REMARK    8  A    between atoms: C_15  and  C_16
REMARK                            x       y       z     vdW  Elec       q    Type
REMARK                         _______ _______ _______ _____ _____    ______ ____
ROOT
ATOM      1  C   UNL     1       0.618   2.575  19.112  0.00  0.00    +0.000 C 
ATOM      2  C   UNL     1       1.426   3.832  19.252  0.00  0.00    +0.000 A 
ATOM      3  C   UNL     1       1.059   4.800  20.106  0.00  0.00    +0.000 A 
ATOM      4  C   UNL     1       1.806   6.052  20.285  0.00  0.00    +0.000 A 
ATOM      5  O   UNL     1       1.433   6.897  21.092  0.00  0.00    +0.000 OA
ATOM      6  O   UNL     1       2.933   6.222  19.506  0.00  0.00    +0.000 OA
ATOM      7  C   UNL     1       3.340   5.228  18.596  0.00  0.00    +0.000 A 
ATOM      8  C   UNL     1       4.490   5.522  17.863  0.00  0.00    +0.000 A 
ATOM      9  C   UNL     1       4.973   4.600  16.939  0.00  0.00    +0.000 A 
ATOM     10  C   UNL     1       4.293   3.391  16.775  0.00  0.00    +0.000 A 
ATOM     11  C   UNL     1       3.135   3.107  17.521  0.00  0.00    +0.000 A 
ATOM     12  C   UNL     1       2.637   4.033  18.445  0.00  0.00    +0.000 A 
ENDROOT
BRANCH   9  13
ATOM     13  O   UNL     1       6.085   4.777  16.155  0.00  0.00    +0.000 OA
BRANCH  13  14
ATOM     14  C   UNL     1       5.827   5.058  14.777  0.00  0.00    +0.000 C 
BRANCH  14  15
ATOM     15  C   UNL     1       7.115   4.907  13.977  0.00  0.00    +0.000 C 
BRANCH  15  16
ATOM     16  C   UNL     1       6.842   4.211  12.643  0.00  0.00    +0.000 C 
BRANCH  16  17
ATOM     17  C   UNL     1       5.717   3.188  12.774  0.00  0.00    +0.000 C 
BRANCH  17  18
ATOM     18  C   UNL     1       5.052   2.914  11.425  0.00  0.00    +0.000 C 
BRANCH  18  19
ATOM     19  C   UNL     1       3.618   3.410  11.428  0.00  0.00    +0.000 C 
ATOM     20 BR   UNL     1       3.117   3.993   9.642  0.00  0.00    +0.000 Br
ENDBRANCH  18  19
ENDBRANCH  17  18
ENDBRANCH  16  17
ENDBRANCH  15  16
ENDBRANCH  14  15
ENDBRANCH  13  14
ENDBRANCH   9  13
TORSDOF 7
ENDMDL
