MODEL 1
REMARK VINA RESULT:      -6.4      0.000      0.000
REMARK  Name = 
REMARK  9 active torsions:
REMARK  status: ('A' for Active; 'I' for Inactive)
REMARK    1  A    between atoms: C_1  and  O_2
REMARK    2  A    between atoms: O_2  and  C_3
REMARK    3  A    between atoms: C_5  and  O_6
REMARK    4  A    between atoms: O_6  and  C_7
REMARK    5  A    between atoms: C_16  and  N_17
REMARK    6  A    between atoms: N_17  and  C_18
REMARK    7  A    between atoms: N_17  and  C_19
REMARK    8  A    between atoms: C_19  and  C_20
REMARK    9  A    between atoms: C_30  and  C_31
REMARK                            x       y       z     vdW  Elec       q    Type
REMARK                         _______ _______ _______ _____ _____    ______ ____
ROOT
ATOM      1  C   UNL     1      -2.060  10.386  17.870  0.00  0.00    +0.000 A 
ATOM      2  C   UNL     1      -0.690  10.105  18.002  0.00  0.00    +0.000 A 
ATOM      3  C   UNL     1       0.159  10.859  18.840  0.00  0.00    +0.000 A 
ATOM      4  C   UNL     1      -0.418  11.895  19.562  0.00  0.00    +0.000 A 
ATOM      5  C   UNL     1      -1.776  12.176  19.454  0.00  0.00    +0.000 A 
ATOM      6  C   UNL     1      -2.603  11.454  18.598  0.00  0.00    +0.000 A 
ATOM      7 CL   UNL     1      -4.274  11.874  18.462  0.00  0.00    +0.000 Cl
ATOM      8  O   UNL     1      -2.248  13.190  20.263  0.00  0.00    +0.000 OA
ATOM      9  C   UNL     1      -1.118  13.683  21.018  0.00  0.00    +0.000 C 
ATOM     10  C   UNL     1       0.069  12.864  20.531  0.00  0.00    +0.000 C 
ATOM     11  O   UNL     1       1.223  13.012  20.892  0.00  0.00    +0.000 OA
ATOM     12  C   UNL     1      -1.306  13.429  22.540  0.00  0.00    +0.000 C 
ATOM     13  C   UNL     1      -0.821  14.317  23.425  0.00  0.00    +0.000 C 
ATOM     14  C   UNL     1      -0.074  15.533  23.038  0.00  0.00    +0.000 C 
ATOM     15  O   UNL     1       0.403  16.244  23.917  0.00  0.00    +0.000 OA
ATOM     16  C   UNL     1       0.124  15.845  21.577  0.00  0.00    +0.000 C 
ATOM     17  C   UNL     1      -0.950  15.197  20.702  0.00  0.00    +0.000 C 
ATOM     18  C   UNL     1      -0.668  15.517  19.227  0.00  0.00    +0.000 C 
ENDROOT
BRANCH   1  20
ATOM     19  C   UNL     1      -2.873   9.915  15.668  0.00  0.00    +0.000 C 
ATOM     20  O   UNL     1      -2.919   9.678  17.070  0.00  0.00    +0.000 OA
ENDBRANCH   1  20
BRANCH   3  21
ATOM     21  O   UNL     1       1.436  10.390  18.794  0.00  0.00    +0.000 OA
ATOM     22  C   UNL     1       1.781   9.336  17.913  0.00  0.00    +0.000 C 
ENDBRANCH   3  21
BRANCH  12  23
ATOM     23  N   UNL     1      -1.936  12.248  22.997  0.00  0.00    +0.000 N 
ATOM     24  C   UNL     1      -1.237  10.961  23.004  0.00  0.00    +0.000 C 
BRANCH  23  25
ATOM     25  C   UNL     1      -3.303  12.228  23.565  0.00  0.00    +0.000 C 
BRANCH  25  26
ATOM     26  C   UNL     1      -4.325  13.218  23.010  0.00  0.00    +0.000 A 
ATOM     27  C   UNL     1      -4.579  14.498  23.520  0.00  0.00    +0.000 A 
ATOM     28  C   UNL     1      -5.577  15.313  22.966  0.00  0.00    +0.000 A 
ATOM     29  C   UNL     1      -6.346  14.864  21.896  0.00  0.00    +0.000 A 
ATOM     30  C   UNL     1      -6.109  13.603  21.364  0.00  0.00    +0.000 A 
ATOM     31  C   UNL     1      -5.109  12.792  21.917  0.00  0.00    +0.000 A 
ENDBRANCH  25  26
ENDBRANCH  23  25
ENDBRANCH  12  23
TORSDOF 5
ENDMDL
MODEL 2
REMARK VINA RESULT:      -6.3      2.513      5.287
REMARK  Name = 
REMARK  9 active torsions:
REMARK  status: ('A' for Active; 'I' for Inactive)
REMARK    1  A    between atoms: C_1  and  O_2
REMARK    2  A    between atoms: O_2  and  C_3
REMARK    3  A    between atoms: C_5  and  O_6
REMARK    4  A    between atoms: O_6  and  C_7
REMARK    5  A    between atoms: C_16  and  N_17
REMARK    6  A    between atoms: N_17  and  C_18
REMARK    7  A    between atoms: N_17  and  C_19
REMARK    8  A    between atoms: C_19  and  C_20
REMARK    9  A    between atoms: C_30  and  C_31
REMARK                            x       y       z     vdW  Elec       q    Type
REMARK                         _______ _______ _______ _____ _____    ______ ____
ROOT
ATOM      1  C   UNL     1      -4.902  11.677  18.777  0.00  0.00    +0.000 A 
ATOM      2  C   UNL     1      -4.229  11.372  17.584  0.00  0.00    +0.000 A 
ATOM      3  C   UNL     1      -2.853  11.627  17.404  0.00  0.00    +0.000 A 
ATOM      4  C   UNL     1      -2.165  12.182  18.475  0.00  0.00    +0.000 A 
ATOM      5  C   UNL     1      -2.814  12.475  19.671  0.00  0.00    +0.000 A 
ATOM      6  C   UNL     1      -4.180  12.256  19.830  0.00  0.00    +0.000 A 
ATOM      7 CL   UNL     1      -4.950  12.684  21.318  0.00  0.00    +0.000 Cl
ATOM      8  O   UNL     1      -2.018  12.968  20.684  0.00  0.00    +0.000 OA
ATOM      9  C   UNL     1      -0.671  13.036  20.162  0.00  0.00    +0.000 C 
ATOM     10  C   UNL     1      -0.782  12.561  18.720  0.00  0.00    +0.000 C 
ATOM     11  O   UNL     1       0.134  12.519  17.919  0.00  0.00    +0.000 OA
ATOM     12  C   UNL     1       0.278  12.075  20.931  0.00  0.00    +0.000 C 
ATOM     13  C   UNL     1       1.563  12.424  21.120  0.00  0.00    +0.000 C 
ATOM     14  C   UNL     1       2.155  13.678  20.605  0.00  0.00    +0.000 C 
ATOM     15  O   UNL     1       3.357  13.875  20.755  0.00  0.00    +0.000 OA
ATOM     16  C   UNL     1       1.280  14.660  19.869  0.00  0.00    +0.000 C 
ATOM     17  C   UNL     1      -0.193  14.514  20.252  0.00  0.00    +0.000 C 
ATOM     18  C   UNL     1      -1.033  15.511  19.439  0.00  0.00    +0.000 C 
ENDROOT
BRANCH   1  20
ATOM     19  C   UNL     1      -6.678  10.091  19.026  0.00  0.00    +0.000 C 
ATOM     20  O   UNL     1      -6.236  11.443  18.993  0.00  0.00    +0.000 OA
ENDBRANCH   1  20
BRANCH   3  21
ATOM     21  O   UNL     1      -2.439  11.243  16.165  0.00  0.00    +0.000 OA
ATOM     22  C   UNL     1      -3.161  10.264  15.441  0.00  0.00    +0.000 C 
ENDBRANCH   3  21
BRANCH  12  23
ATOM     23  N   UNL     1      -0.186  10.819  21.384  0.00  0.00    +0.000 N 
ATOM     24  C   UNL     1      -0.474  10.573  22.798  0.00  0.00    +0.000 C 
BRANCH  23  25
ATOM     25  C   UNL     1      -0.482   9.690  20.472  0.00  0.00    +0.000 C 
BRANCH  25  26
ATOM     26  C   UNL     1       0.682   9.050  19.720  0.00  0.00    +0.000 A 
ATOM     27  C   UNL     1       1.128   9.419  18.444  0.00  0.00    +0.000 A 
ATOM     28  C   UNL     1       2.178   8.733  17.818  0.00  0.00    +0.000 A 
ATOM     29  C   UNL     1       2.801   7.659  18.449  0.00  0.00    +0.000 A 
ATOM     30  C   UNL     1       2.386   7.278  19.719  0.00  0.00    +0.000 A 
ATOM     31  C   UNL     1       1.338   7.968  20.344  0.00  0.00    +0.000 A 
ENDBRANCH  25  26
ENDBRANCH  23  25
ENDBRANCH  12  23
TORSDOF 5
ENDMDL
MODEL 3
REMARK VINA RESULT:      -6.1      2.225      6.368
REMARK  Name = 
REMARK  9 active torsions:
REMARK  status: ('A' for Active; 'I' for Inactive)
REMARK    1  A    between atoms: C_1  and  O_2
REMARK    2  A    between atoms: O_2  and  C_3
REMARK    3  A    between atoms: C_5  and  O_6
REMARK    4  A    between atoms: O_6  and  C_7
REMARK    5  A    between atoms: C_16  and  N_17
REMARK    6  A    between atoms: N_17  and  C_18
REMARK    7  A    between atoms: N_17  and  C_19
REMARK    8  A    between atoms: C_19  and  C_20
REMARK    9  A    between atoms: C_30  and  C_31
REMARK                            x       y       z     vdW  Elec       q    Type
REMARK                         _______ _______ _______ _____ _____    ______ ____
ROOT
ATOM      1  C   UNL     1      -2.771  14.639  23.303  0.00  0.00    +0.000 A 
ATOM      2  C   UNL     1      -1.478  15.187  23.294  0.00  0.00    +0.000 A 
ATOM      3  C   UNL     1      -0.365  14.490  22.779  0.00  0.00    +0.000 A 
ATOM      4  C   UNL     1      -0.596  13.228  22.247  0.00  0.00    +0.000 A 
ATOM      5  C   UNL     1      -1.874  12.678  22.233  0.00  0.00    +0.000 A 
ATOM      6  C   UNL     1      -2.963  13.354  22.777  0.00  0.00    +0.000 A 
ATOM      7 CL   UNL     1      -4.522  12.606  22.780  0.00  0.00    +0.000 Cl
ATOM      8  O   UNL     1      -1.992  11.444  21.627  0.00  0.00    +0.000 OA
ATOM      9  C   UNL     1      -0.672  11.075  21.167  0.00  0.00    +0.000 C 
ATOM     10  C   UNL     1       0.232  12.218  21.606  0.00  0.00    +0.000 C 
ATOM     11  O   UNL     1       1.439  12.263  21.449  0.00  0.00    +0.000 OA
ATOM     12  C   UNL     1      -0.626  10.972  19.617  0.00  0.00    +0.000 C 
ATOM     13  C   UNL     1       0.169  10.056  19.037  0.00  0.00    +0.000 C 
ATOM     14  C   UNL     1       1.049   9.140  19.794  0.00  0.00    +0.000 C 
ATOM     15  O   UNL     1       1.803   8.392  19.179  0.00  0.00    +0.000 OA
ATOM     16  C   UNL     1       1.034   9.178  21.301  0.00  0.00    +0.000 C 
ATOM     17  C   UNL     1      -0.283   9.731  21.847  0.00  0.00    +0.000 C 
ATOM     18  C   UNL     1      -0.217   9.784  23.381  0.00  0.00    +0.000 C 
ENDROOT
BRANCH   1  20
ATOM     19  C   UNL     1      -4.427  16.344  23.019  0.00  0.00    +0.000 C 
ATOM     20  O   UNL     1      -3.879  15.283  23.791  0.00  0.00    +0.000 OA
ENDBRANCH   1  20
BRANCH   3  21
ATOM     21  O   UNL     1       0.772  15.232  22.886  0.00  0.00    +0.000 OA
ATOM     22  C   UNL     1       0.701  16.603  23.231  0.00  0.00    +0.000 C 
ENDBRANCH   3  21
BRANCH  12  23
ATOM     23  N   UNL     1      -1.373  11.866  18.816  0.00  0.00    +0.000 N 
ATOM     24  C   UNL     1      -2.830  11.963  18.930  0.00  0.00    +0.000 C 
BRANCH  23  25
ATOM     25  C   UNL     1      -0.749  12.813  17.864  0.00  0.00    +0.000 C 
BRANCH  25  26
ATOM     26  C   UNL     1       0.279  13.804  18.406  0.00  0.00    +0.000 A 
ATOM     27  C   UNL     1       1.666  13.611  18.422  0.00  0.00    +0.000 A 
ATOM     28  C   UNL     1       2.523  14.565  18.990  0.00  0.00    +0.000 A 
ATOM     29  C   UNL     1       2.012  15.729  19.559  0.00  0.00    +0.000 A 
ATOM     30  C   UNL     1       0.641  15.951  19.547  0.00  0.00    +0.000 A 
ATOM     31  C   UNL     1      -0.213  14.998  18.976  0.00  0.00    +0.000 A 
ENDBRANCH  25  26
ENDBRANCH  23  25
ENDBRANCH  12  23
TORSDOF 5
ENDMDL
MODEL 4
REMARK VINA RESULT:      -6.1      8.460     11.897
REMARK  Name = 
REMARK  9 active torsions:
REMARK  status: ('A' for Active; 'I' for Inactive)
REMARK    1  A    between atoms: C_1  and  O_2
REMARK    2  A    between atoms: O_2  and  C_3
REMARK    3  A    between atoms: C_5  and  O_6
REMARK    4  A    between atoms: O_6  and  C_7
REMARK    5  A    between atoms: C_16  and  N_17
REMARK    6  A    between atoms: N_17  and  C_18
REMARK    7  A    between atoms: N_17  and  C_19
REMARK    8  A    between atoms: C_19  and  C_20
REMARK    9  A    between atoms: C_30  and  C_31
REMARK                            x       y       z     vdW  Elec       q    Type
REMARK                         _______ _______ _______ _____ _____    ______ ____
ROOT
ATOM      1  C   UNL     1       5.786  13.512  23.092  0.00  0.00    +0.000 A 
ATOM      2  C   UNL     1       5.031  14.689  22.964  0.00  0.00    +0.000 A 
ATOM      3  C   UNL     1       5.442  15.766  22.152  0.00  0.00    +0.000 A 
ATOM      4  C   UNL     1       6.630  15.615  21.449  0.00  0.00    +0.000 A 
ATOM      5  C   UNL     1       7.381  14.449  21.552  0.00  0.00    +0.000 A 
ATOM      6  C   UNL     1       6.992  13.403  22.384  0.00  0.00    +0.000 A 
ATOM      7 CL   UNL     1       7.986  11.995  22.516  0.00  0.00    +0.000 Cl
ATOM      8  O   UNL     1       8.512  14.388  20.763  0.00  0.00    +0.000 OA
ATOM      9  C   UNL     1       8.577  15.632  20.029  0.00  0.00    +0.000 C 
ATOM     10  C   UNL     1       7.375  16.435  20.506  0.00  0.00    +0.000 C 
ATOM     11  O   UNL     1       7.102  17.570  20.159  0.00  0.00    +0.000 OA
ATOM     12  C   UNL     1       8.436  15.389  18.500  0.00  0.00    +0.000 C 
ATOM     13  C   UNL     1       9.105  16.177  17.639  0.00  0.00    +0.000 C 
ATOM     14  C   UNL     1       9.961  17.306  18.061  0.00  0.00    +0.000 C 
ATOM     15  O   UNL     1      10.468  18.023  17.203  0.00  0.00    +0.000 OA
ATOM     16  C   UNL     1      10.153  17.580  19.530  0.00  0.00    +0.000 C 
ATOM     17  C   UNL     1       9.922  16.331  20.381  0.00  0.00    +0.000 C 
ATOM     18  C   UNL     1      10.090  16.686  21.866  0.00  0.00    +0.000 C 
ENDROOT
BRANCH   1  20
ATOM     19  C   UNL     1       5.886  12.405  25.213  0.00  0.00    +0.000 C 
ATOM     20  O   UNL     1       5.422  12.442  23.868  0.00  0.00    +0.000 OA
ENDBRANCH   1  20
BRANCH   3  21
ATOM     21  O   UNL     1       4.542  16.787  22.197  0.00  0.00    +0.000 OA
ATOM     22  C   UNL     1       3.222  16.557  22.654  0.00  0.00    +0.000 C 
ENDBRANCH   3  21
BRANCH  12  23
ATOM     23  N   UNL     1       7.572  14.383  18.010  0.00  0.00    +0.000 N 
ATOM     24  C   UNL     1       6.123  14.584  17.942  0.00  0.00    +0.000 C 
BRANCH  23  25
ATOM     25  C   UNL     1       8.058  13.093  17.468  0.00  0.00    +0.000 C 
BRANCH  25  26
ATOM     26  C   UNL     1       9.345  12.510  18.046  0.00  0.00    +0.000 A 
ATOM     27  C   UNL     1       9.438  11.742  19.215  0.00  0.00    +0.000 A 
ATOM     28  C   UNL     1      10.679  11.294  19.688  0.00  0.00    +0.000 A 
ATOM     29  C   UNL     1      11.854  11.607  19.009  0.00  0.00    +0.000 A 
ATOM     30  C   UNL     1      11.789  12.358  17.842  0.00  0.00    +0.000 A 
ATOM     31  C   UNL     1      10.548  12.802  17.368  0.00  0.00    +0.000 A 
ENDBRANCH  25  26
ENDBRANCH  23  25
ENDBRANCH  12  23
TORSDOF 5
ENDMDL
MODEL 5
REMARK VINA RESULT:      -6.1      0.494      1.011
REMARK  Name = 
REMARK  9 active torsions:
REMARK  status: ('A' for Active; 'I' for Inactive)
REMARK    1  A    between atoms: C_1  and  O_2
REMARK    2  A    between atoms: O_2  and  C_3
REMARK    3  A    between atoms: C_5  and  O_6
REMARK    4  A    between atoms: O_6  and  C_7
REMARK    5  A    between atoms: C_16  and  N_17
REMARK    6  A    between atoms: N_17  and  C_18
REMARK    7  A    between atoms: N_17  and  C_19
REMARK    8  A    between atoms: C_19  and  C_20
REMARK    9  A    between atoms: C_30  and  C_31
REMARK                            x       y       z     vdW  Elec       q    Type
REMARK                         _______ _______ _______ _____ _____    ______ ____
ROOT
ATOM      1  C   UNL     1      -2.074  10.354  17.891  0.00  0.00    +0.000 A 
ATOM      2  C   UNL     1      -0.740   9.981  18.119  0.00  0.00    +0.000 A 
ATOM      3  C   UNL     1       0.109  10.699  18.987  0.00  0.00    +0.000 A 
ATOM      4  C   UNL     1      -0.433  11.798  19.641  0.00  0.00    +0.000 A 
ATOM      5  C   UNL     1      -1.758  12.171  19.439  0.00  0.00    +0.000 A 
ATOM      6  C   UNL     1      -2.581  11.482  18.552  0.00  0.00    +0.000 A 
ATOM      7 CL   UNL     1      -4.206  12.016  18.297  0.00  0.00    +0.000 Cl
ATOM      8  O   UNL     1      -2.204  13.242  20.186  0.00  0.00    +0.000 OA
ATOM      9  C   UNL     1      -1.090  13.677  20.999  0.00  0.00    +0.000 C 
ATOM     10  C   UNL     1       0.062  12.761  20.612  0.00  0.00    +0.000 C 
ATOM     11  O   UNL     1       1.200  12.837  21.042  0.00  0.00    +0.000 OA
ATOM     12  C   UNL     1      -1.390  13.487  22.512  0.00  0.00    +0.000 C 
ATOM     13  C   UNL     1      -0.897  14.367  23.401  0.00  0.00    +0.000 C 
ATOM     14  C   UNL     1      -0.040  15.514  23.028  0.00  0.00    +0.000 C 
ATOM     15  O   UNL     1       0.433  16.217  23.915  0.00  0.00    +0.000 OA
ATOM     16  C   UNL     1       0.270  15.763  21.575  0.00  0.00    +0.000 C 
ATOM     17  C   UNL     1      -0.792  15.164  20.652  0.00  0.00    +0.000 C 
ATOM     18  C   UNL     1      -0.396  15.415  19.189  0.00  0.00    +0.000 C 
ENDROOT
BRANCH   1  20
ATOM     19  C   UNL     1      -2.802   9.895  15.657  0.00  0.00    +0.000 C 
ATOM     20  O   UNL     1      -2.932   9.684  17.058  0.00  0.00    +0.000 OA
ENDBRANCH   1  20
BRANCH   3  21
ATOM     21  O   UNL     1       1.349  10.139  19.037  0.00  0.00    +0.000 OA
ATOM     22  C   UNL     1       1.973   9.675  17.854  0.00  0.00    +0.000 C 
ENDBRANCH   3  21
BRANCH  12  23
ATOM     23  N   UNL     1      -2.131  12.370  22.961  0.00  0.00    +0.000 N 
ATOM     24  C   UNL     1      -1.497  11.069  23.182  0.00  0.00    +0.000 C 
BRANCH  23  25
ATOM     25  C   UNL     1      -3.569  12.441  23.309  0.00  0.00    +0.000 C 
BRANCH  25  26
ATOM     26  C   UNL     1      -4.309  13.750  23.045  0.00  0.00    +0.000 A 
ATOM     27  C   UNL     1      -4.891  14.125  21.827  0.00  0.00    +0.000 A 
ATOM     28  C   UNL     1      -5.507  15.375  21.675  0.00  0.00    +0.000 A 
ATOM     29  C   UNL     1      -5.549  16.280  22.733  0.00  0.00    +0.000 A 
ATOM     30  C   UNL     1      -4.990  15.930  23.955  0.00  0.00    +0.000 A 
ATOM     31  C   UNL     1      -4.378  14.678  24.106  0.00  0.00    +0.000 A 
ENDBRANCH  25  26
ENDBRANCH  23  25
ENDBRANCH  12  23
TORSDOF 5
ENDMDL
MODEL 6
REMARK VINA RESULT:      -6.0      2.058      3.168
REMARK  Name = 
REMARK  9 active torsions:
REMARK  status: ('A' for Active; 'I' for Inactive)
REMARK    1  A    between atoms: C_1  and  O_2
REMARK    2  A    between atoms: O_2  and  C_3
REMARK    3  A    between atoms: C_5  and  O_6
REMARK    4  A    between atoms: O_6  and  C_7
REMARK    5  A    between atoms: C_16  and  N_17
REMARK    6  A    between atoms: N_17  and  C_18
REMARK    7  A    between atoms: N_17  and  C_19
REMARK    8  A    between atoms: C_19  and  C_20
REMARK    9  A    between atoms: C_30  and  C_31
REMARK                            x       y       z     vdW  Elec       q    Type
REMARK                         _______ _______ _______ _____ _____    ______ ____
ROOT
ATOM      1  C   UNL     1      -4.798  11.583  18.374  0.00  0.00    +0.000 A 
ATOM      2  C   UNL     1      -4.035  11.007  17.346  0.00  0.00    +0.000 A 
ATOM      3  C   UNL     1      -2.633  11.147  17.274  0.00  0.00    +0.000 A 
ATOM      4  C   UNL     1      -2.014  11.869  18.285  0.00  0.00    +0.000 A 
ATOM      5  C   UNL     1      -2.754  12.433  19.321  0.00  0.00    +0.000 A 
ATOM      6  C   UNL     1      -4.141  12.323  19.367  0.00  0.00    +0.000 A 
ATOM      7 CL   UNL     1      -5.019  13.084  20.648  0.00  0.00    +0.000 Cl
ATOM      8  O   UNL     1      -2.026  13.077  20.300  0.00  0.00    +0.000 OA
ATOM      9  C   UNL     1      -0.633  12.966  19.927  0.00  0.00    +0.000 C 
ATOM     10  C   UNL     1      -0.638  12.216  18.603  0.00  0.00    +0.000 C 
ATOM     11  O   UNL     1       0.347  11.964  17.932  0.00  0.00    +0.000 OA
ATOM     12  C   UNL     1       0.162  12.132  20.970  0.00  0.00    +0.000 C 
ATOM     13  C   UNL     1       1.444  12.443  21.229  0.00  0.00    +0.000 C 
ATOM     14  C   UNL     1       2.175  13.533  20.548  0.00  0.00    +0.000 C 
ATOM     15  O   UNL     1       3.368  13.692  20.788  0.00  0.00    +0.000 OA
ATOM     16  C   UNL     1       1.452  14.391  19.542  0.00  0.00    +0.000 C 
ATOM     17  C   UNL     1      -0.058  14.404  19.780  0.00  0.00    +0.000 C 
ATOM     18  C   UNL     1      -0.737  15.259  18.699  0.00  0.00    +0.000 C 
ENDROOT
BRANCH   1  20
ATOM     19  C   UNL     1      -6.689  10.235  18.953  0.00  0.00    +0.000 C 
ATOM     20  O   UNL     1      -6.160  11.468  18.482  0.00  0.00    +0.000 OA
ENDBRANCH   1  20
BRANCH   3  21
ATOM     21  O   UNL     1      -2.129  10.499  16.187  0.00  0.00    +0.000 OA
ATOM     22  C   UNL     1      -2.912  10.350  15.016  0.00  0.00    +0.000 C 
ENDBRANCH   3  21
BRANCH  12  23
ATOM     23  N   UNL     1      -0.437  11.020  21.605  0.00  0.00    +0.000 N 
ATOM     24  C   UNL     1      -0.482   9.704  20.964  0.00  0.00    +0.000 C 
BRANCH  23  25
ATOM     25  C   UNL     1      -0.993  11.074  22.977  0.00  0.00    +0.000 C 
BRANCH  25  26
ATOM     26  C   UNL     1      -1.813  12.300  23.371  0.00  0.00    +0.000 A 
ATOM     27  C   UNL     1      -1.305  13.592  23.561  0.00  0.00    +0.000 A 
ATOM     28  C   UNL     1      -2.138  14.643  23.972  0.00  0.00    +0.000 A 
ATOM     29  C   UNL     1      -3.492  14.425  24.208  0.00  0.00    +0.000 A 
ATOM     30  C   UNL     1      -4.025  13.156  24.017  0.00  0.00    +0.000 A 
ATOM     31  C   UNL     1      -3.192  12.108  23.602  0.00  0.00    +0.000 A 
ENDBRANCH  25  26
ENDBRANCH  23  25
ENDBRANCH  12  23
TORSDOF 5
ENDMDL
MODEL 7
REMARK VINA RESULT:      -6.0      2.379      4.950
REMARK  Name = 
REMARK  9 active torsions:
REMARK  status: ('A' for Active; 'I' for Inactive)
REMARK    1  A    between atoms: C_1  and  O_2
REMARK    2  A    between atoms: O_2  and  C_3
REMARK    3  A    between atoms: C_5  and  O_6
REMARK    4  A    between atoms: O_6  and  C_7
REMARK    5  A    between atoms: C_16  and  N_17
REMARK    6  A    between atoms: N_17  and  C_18
REMARK    7  A    between atoms: N_17  and  C_19
REMARK    8  A    between atoms: C_19  and  C_20
REMARK    9  A    between atoms: C_30  and  C_31
REMARK                            x       y       z     vdW  Elec       q    Type
REMARK                         _______ _______ _______ _____ _____    ______ ____
ROOT
ATOM      1  C   UNL     1       0.355   9.767  19.238  0.00  0.00    +0.000 A 
ATOM      2  C   UNL     1      -0.613  10.334  18.394  0.00  0.00    +0.000 A 
ATOM      3  C   UNL     1      -1.354  11.479  18.756  0.00  0.00    +0.000 A 
ATOM      4  C   UNL     1      -1.076  12.053  19.989  0.00  0.00    +0.000 A 
ATOM      5  C   UNL     1      -0.108  11.512  20.830  0.00  0.00    +0.000 A 
ATOM      6  C   UNL     1       0.594  10.361  20.486  0.00  0.00    +0.000 A 
ATOM      7 CL   UNL     1       1.751   9.700  21.587  0.00  0.00    +0.000 Cl
ATOM      8  O   UNL     1       0.124  12.201  22.003  0.00  0.00    +0.000 OA
ATOM      9  C   UNL     1      -0.765  13.341  22.002  0.00  0.00    +0.000 C 
ATOM     10  C   UNL     1      -1.564  13.217  20.712  0.00  0.00    +0.000 C 
ATOM     11  O   UNL     1      -2.461  13.964  20.363  0.00  0.00    +0.000 OA
ATOM     12  C   UNL     1       0.032  14.675  21.966  0.00  0.00    +0.000 C 
ATOM     13  C   UNL     1      -0.449  15.752  22.612  0.00  0.00    +0.000 C 
ATOM     14  C   UNL     1      -1.733  15.761  23.344  0.00  0.00    +0.000 C 
ATOM     15  O   UNL     1      -2.134  16.812  23.834  0.00  0.00    +0.000 OA
ATOM     16  C   UNL     1      -2.543  14.492  23.432  0.00  0.00    +0.000 C 
ATOM     17  C   UNL     1      -1.674  13.246  23.261  0.00  0.00    +0.000 C 
ATOM     18  C   UNL     1      -2.562  11.993  23.318  0.00  0.00    +0.000 C 
ENDROOT
BRANCH   1  20
ATOM     19  C   UNL     1       2.139   8.803  17.966  0.00  0.00    +0.000 C 
ATOM     20  O   UNL     1       1.098   8.658  18.925  0.00  0.00    +0.000 OA
ENDBRANCH   1  20
BRANCH   3  21
ATOM     21  O   UNL     1      -2.226  11.831  17.771  0.00  0.00    +0.000 OA
ATOM     22  C   UNL     1      -2.448  10.969  16.670  0.00  0.00    +0.000 C 
ENDBRANCH   3  21
BRANCH  12  23
ATOM     23  N   UNL     1       1.228  14.776  21.219  0.00  0.00    +0.000 N 
ATOM     24  C   UNL     1       2.531  14.915  21.873  0.00  0.00    +0.000 C 
BRANCH  23  25
ATOM     25  C   UNL     1       1.269  14.679  19.741  0.00  0.00    +0.000 C 
BRANCH  25  26
ATOM     26  C   UNL     1       0.866  15.907  18.930  0.00  0.00    +0.000 A 
ATOM     27  C   UNL     1      -0.444  16.369  18.747  0.00  0.00    +0.000 A 
ATOM     28  C   UNL     1      -0.713  17.484  17.940  0.00  0.00    +0.000 A 
ATOM     29  C   UNL     1       0.320  18.156  17.292  0.00  0.00    +0.000 A 
ATOM     30  C   UNL     1       1.630  17.727  17.464  0.00  0.00    +0.000 A 
ATOM     31  C   UNL     1       1.896  16.615  18.274  0.00  0.00    +0.000 A 
ENDBRANCH  25  26
ENDBRANCH  23  25
ENDBRANCH  12  23
TORSDOF 5
ENDMDL
MODEL 8
REMARK VINA RESULT:      -6.0      2.280      5.520
REMARK  Name = 
REMARK  9 active torsions:
REMARK  status: ('A' for Active; 'I' for Inactive)
REMARK    1  A    between atoms: C_1  and  O_2
REMARK    2  A    between atoms: O_2  and  C_3
REMARK    3  A    between atoms: C_5  and  O_6
REMARK    4  A    between atoms: O_6  and  C_7
REMARK    5  A    between atoms: C_16  and  N_17
REMARK    6  A    between atoms: N_17  and  C_18
REMARK    7  A    between atoms: N_17  and  C_19
REMARK    8  A    between atoms: C_19  and  C_20
REMARK    9  A    between atoms: C_30  and  C_31
REMARK                            x       y       z     vdW  Elec       q    Type
REMARK                         _______ _______ _______ _____ _____    ______ ____
ROOT
ATOM      1  C   UNL     1      -5.296  11.949  20.268  0.00  0.00    +0.000 A 
ATOM      2  C   UNL     1      -4.984  11.707  18.921  0.00  0.00    +0.000 A 
ATOM      3  C   UNL     1      -3.703  11.954  18.385  0.00  0.00    +0.000 A 
ATOM      4  C   UNL     1      -2.732  12.433  19.254  0.00  0.00    +0.000 A 
ATOM      5  C   UNL     1      -3.020  12.663  20.596  0.00  0.00    +0.000 A 
ATOM      6  C   UNL     1      -4.296  12.453  21.112  0.00  0.00    +0.000 A 
ATOM      7 CL   UNL     1      -4.616  12.801  22.775  0.00  0.00    +0.000 Cl
ATOM      8  O   UNL     1      -1.962  13.082  21.376  0.00  0.00    +0.000 OA
ATOM      9  C   UNL     1      -0.808  13.163  20.509  0.00  0.00    +0.000 C 
ATOM     10  C   UNL     1      -1.324  12.777  19.130  0.00  0.00    +0.000 C 
ATOM     11  O   UNL     1      -0.664  12.771  18.106  0.00  0.00    +0.000 OA
ATOM     12  C   UNL     1       0.285  12.144  20.934  0.00  0.00    +0.000 C 
ATOM     13  C   UNL     1       1.583  12.463  20.782  0.00  0.00    +0.000 C 
ATOM     14  C   UNL     1       2.049  13.737  20.193  0.00  0.00    +0.000 C 
ATOM     15  O   UNL     1       3.251  13.908  20.017  0.00  0.00    +0.000 OA
ATOM     16  C   UNL     1       1.036  14.774  19.780  0.00  0.00    +0.000 C 
ATOM     17  C   UNL     1      -0.280  14.626  20.545  0.00  0.00    +0.000 C 
ATOM     18  C   UNL     1      -1.280  15.682  20.049  0.00  0.00    +0.000 C 
ENDROOT
BRANCH   1  20
ATOM     19  C   UNL     1      -7.588  12.605  20.489  0.00  0.00    +0.000 C 
ATOM     20  O   UNL     1      -6.526  11.721  20.829  0.00  0.00    +0.000 OA
ENDBRANCH   1  20
BRANCH   3  21
ATOM     21  O   UNL     1      -3.655  11.640  17.060  0.00  0.00    +0.000 OA
ATOM     22  C   UNL     1      -2.809  10.602  16.601  0.00  0.00    +0.000 C 
ENDBRANCH   3  21
BRANCH  12  23
ATOM     23  N   UNL     1      -0.074  10.869  21.428  0.00  0.00    +0.000 N 
ATOM     24  C   UNL     1      -0.156  10.599  22.865  0.00  0.00    +0.000 C 
BRANCH  23  25
ATOM     25  C   UNL     1      -0.462   9.741  20.549  0.00  0.00    +0.000 C 
BRANCH  25  26
ATOM     26  C   UNL     1       0.643   9.009  19.792  0.00  0.00    +0.000 A 
ATOM     27  C   UNL     1       1.404   7.944  20.291  0.00  0.00    +0.000 A 
ATOM     28  C   UNL     1       2.432   7.370  19.529  0.00  0.00    +0.000 A 
ATOM     29  C   UNL     1       2.726   7.852  18.256  0.00  0.00    +0.000 A 
ATOM     30  C   UNL     1       1.980   8.900  17.732  0.00  0.00    +0.000 A 
ATOM     31  C   UNL     1       0.951   9.469  18.493  0.00  0.00    +0.000 A 
ENDBRANCH  25  26
ENDBRANCH  23  25
ENDBRANCH  12  23
TORSDOF 5
ENDMDL
MODEL 9
REMARK VINA RESULT:      -6.0      2.282      5.865
REMARK  Name = 
REMARK  9 active torsions:
REMARK  status: ('A' for Active; 'I' for Inactive)
REMARK    1  A    between atoms: C_1  and  O_2
REMARK    2  A    between atoms: O_2  and  C_3
REMARK    3  A    between atoms: C_5  and  O_6
REMARK    4  A    between atoms: O_6  and  C_7
REMARK    5  A    between atoms: C_16  and  N_17
REMARK    6  A    between atoms: N_17  and  C_18
REMARK    7  A    between atoms: N_17  and  C_19
REMARK    8  A    between atoms: C_19  and  C_20
REMARK    9  A    between atoms: C_30  and  C_31
REMARK                            x       y       z     vdW  Elec       q    Type
REMARK                         _______ _______ _______ _____ _____    ______ ____
ROOT
ATOM      1  C   UNL     1      -2.449  14.601  22.971  0.00  0.00    +0.000 A 
ATOM      2  C   UNL     1      -1.148  15.124  22.906  0.00  0.00    +0.000 A 
ATOM      3  C   UNL     1      -0.054  14.375  22.425  0.00  0.00    +0.000 A 
ATOM      4  C   UNL     1      -0.312  13.083  21.987  0.00  0.00    +0.000 A 
ATOM      5  C   UNL     1      -1.599  12.555  22.029  0.00  0.00    +0.000 A 
ATOM      6  C   UNL     1      -2.669  13.285  22.539  0.00  0.00    +0.000 A 
ATOM      7 CL   UNL     1      -4.239  12.566  22.617  0.00  0.00    +0.000 Cl
ATOM      8  O   UNL     1      -1.746  11.284  21.513  0.00  0.00    +0.000 OA
ATOM      9  C   UNL     1      -0.438  10.861  21.062  0.00  0.00    +0.000 C 
ATOM     10  C   UNL     1       0.490  12.017  21.406  0.00  0.00    +0.000 C 
ATOM     11  O   UNL     1       1.695  12.031  21.230  0.00  0.00    +0.000 OA
ATOM     12  C   UNL     1      -0.418  10.649  19.522  0.00  0.00    +0.000 C 
ATOM     13  C   UNL     1       0.355   9.681  18.997  0.00  0.00    +0.000 C 
ATOM     14  C   UNL     1       1.231   8.806  19.805  0.00  0.00    +0.000 C 
ATOM     15  O   UNL     1       1.964   8.005  19.233  0.00  0.00    +0.000 OA
ATOM     16  C   UNL     1       1.240   8.950  21.305  0.00  0.00    +0.000 C 
ATOM     17  C   UNL     1      -0.060   9.562  21.829  0.00  0.00    +0.000 C 
ATOM     18  C   UNL     1       0.030   9.720  23.354  0.00  0.00    +0.000 C 
ENDROOT
BRANCH   1  20
ATOM     19  C   UNL     1      -3.583  15.631  24.810  0.00  0.00    +0.000 C 
ATOM     20  O   UNL     1      -3.539  15.295  23.428  0.00  0.00    +0.000 OA
ENDBRANCH   1  20
BRANCH   3  21
ATOM     21  O   UNL     1       1.096  15.103  22.464  0.00  0.00    +0.000 OA
ATOM     22  C   UNL     1       1.050  16.504  22.667  0.00  0.00    +0.000 C 
ENDBRANCH   3  21
BRANCH  12  23
ATOM     23  N   UNL     1      -1.162  11.497  18.671  0.00  0.00    +0.000 N 
ATOM     24  C   UNL     1      -0.888  12.934  18.591  0.00  0.00    +0.000 C 
BRANCH  23  25
ATOM     25  C   UNL     1      -2.213  11.002  17.753  0.00  0.00    +0.000 C 
BRANCH  25  26
ATOM     26  C   UNL     1      -3.618  11.582  17.890  0.00  0.00    +0.000 A 
ATOM     27  C   UNL     1      -4.544  11.728  16.848  0.00  0.00    +0.000 A 
ATOM     28  C   UNL     1      -5.796  12.320  17.071  0.00  0.00    +0.000 A 
ATOM     29  C   UNL     1      -6.147  12.784  18.335  0.00  0.00    +0.000 A 
ATOM     30  C   UNL     1      -5.252  12.643  19.389  0.00  0.00    +0.000 A 
ATOM     31  C   UNL     1      -4.004  12.047  19.165  0.00  0.00    +0.000 A 
ENDBRANCH  25  26
ENDBRANCH  23  25
ENDBRANCH  12  23
TORSDOF 5
ENDMDL
