MODEL 1
REMARK VINA RESULT:      -6.9      0.000      0.000
REMARK  Name = 
REMARK  5 active torsions:
REMARK  status: ('A' for Active; 'I' for Inactive)
REMARK    1  A    between atoms: C_1  and  C_2
REMARK    2  A    between atoms: C_2  and  C_3
REMARK    3  A    between atoms: C_6  and  C_7
REMARK    4  A    between atoms: C_10  and  C_11
REMARK    5  A    between atoms: C_11  and  C_12
REMARK                            x       y       z     vdW  Elec       q    Type
REMARK                         _______ _______ _______ _____ _____    ______ ____
ROOT
ATOM      1  C   UNL     1       4.635   4.913  16.727  0.00  0.00    +0.000 A 
ATOM      2  C   UNL     1       3.759   3.861  17.033  0.00  0.00    +0.000 A 
ATOM      3  C   UNL     1       2.874   3.944  18.118  0.00  0.00    +0.000 A 
ATOM      4  C   UNL     1       2.843   5.090  18.915  0.00  0.00    +0.000 A 
ATOM      5  C   UNL     1       3.714   6.147  18.611  0.00  0.00    +0.000 A 
ATOM      6  C   UNL     1       4.600   6.060  17.530  0.00  0.00    +0.000 A 
ENDROOT
BRANCH   1  10
ATOM      7  C   UNL     1       6.652   4.511  13.854  0.00  0.00    +0.000 A 
ATOM      8  N   UNL     1       7.423   5.376  14.525  0.00  0.00    +0.000 NA
ATOM      9  O   UNL     1       6.706   5.587  15.701  0.00  0.00    +0.000 OA
ATOM     10  C   UNL     1       5.573   4.825  15.615  0.00  0.00    +0.000 A 
ATOM     11  N   UNL     1       5.501   4.135  14.498  0.00  0.00    +0.000 NA
BRANCH   7  13
ATOM     12  C   UNL     1       5.944   3.073  11.959  0.00  0.00    +0.000 C 
ATOM     13  C   UNL     1       6.986   4.046  12.488  0.00  0.00    +0.000 C 
ENDBRANCH   7  13
ENDBRANCH   1  10
BRANCH   4  14
ATOM     14  C   UNL     1       1.931   5.252  20.091  0.00  0.00    +0.000 C 
ATOM     15  C   UNL     1       1.232   4.066  20.710  0.00  0.00    +0.000 C 
ATOM     16  O   UNL     1       1.761   6.375  20.567  0.00  0.00    +0.000 OA
ENDBRANCH   4  14
TORSDOF 3
ENDMDL
MODEL 2
REMARK VINA RESULT:      -6.9      2.389      6.675
REMARK  Name = 
REMARK  5 active torsions:
REMARK  status: ('A' for Active; 'I' for Inactive)
REMARK    1  A    between atoms: C_1  and  C_2
REMARK    2  A    between atoms: C_2  and  C_3
REMARK    3  A    between atoms: C_6  and  C_7
REMARK    4  A    between atoms: C_10  and  C_11
REMARK    5  A    between atoms: C_11  and  C_12
REMARK                            x       y       z     vdW  Elec       q    Type
REMARK                         _______ _______ _______ _____ _____    ______ ____
ROOT
ATOM      1  C   UNL     1       4.320   4.829  17.165  0.00  0.00    +0.000 A 
ATOM      2  C   UNL     1       4.675   6.048  16.569  0.00  0.00    +0.000 A 
ATOM      3  C   UNL     1       5.557   6.095  15.480  0.00  0.00    +0.000 A 
ATOM      4  C   UNL     1       6.097   4.917  14.960  0.00  0.00    +0.000 A 
ATOM      5  C   UNL     1       5.744   3.695  15.550  0.00  0.00    +0.000 A 
ATOM      6  C   UNL     1       4.866   3.651  16.640  0.00  0.00    +0.000 A 
ENDROOT
BRANCH   1  10
ATOM      7  C   UNL     1       2.019   4.378  19.809  0.00  0.00    +0.000 A 
ATOM      8  N   UNL     1       2.693   5.425  20.301  0.00  0.00    +0.000 NA
ATOM      9  O   UNL     1       3.629   5.692  19.304  0.00  0.00    +0.000 OA
ATOM     10  C   UNL     1       3.422   4.773  18.312  0.00  0.00    +0.000 A 
ATOM     11  N   UNL     1       2.433   3.948  18.573  0.00  0.00    +0.000 NA
BRANCH   7  13
ATOM     12  C   UNL     1       1.527   2.737  21.604  0.00  0.00    +0.000 C 
ATOM     13  C   UNL     1       0.951   3.693  20.572  0.00  0.00    +0.000 C 
ENDBRANCH   7  13
ENDBRANCH   1  10
BRANCH   4  14
ATOM     14  C   UNL     1       7.048   4.887  13.804  0.00  0.00    +0.000 C 
ATOM     15  C   UNL     1       6.796   4.005  12.605  0.00  0.00    +0.000 C 
ATOM     16  O   UNL     1       8.047   5.606  13.831  0.00  0.00    +0.000 OA
ENDBRANCH   4  14
TORSDOF 3
ENDMDL
MODEL 3
REMARK VINA RESULT:      -6.9      0.703      1.367
REMARK  Name = 
REMARK  5 active torsions:
REMARK  status: ('A' for Active; 'I' for Inactive)
REMARK    1  A    between atoms: C_1  and  C_2
REMARK    2  A    between atoms: C_2  and  C_3
REMARK    3  A    between atoms: C_6  and  C_7
REMARK    4  A    between atoms: C_10  and  C_11
REMARK    5  A    between atoms: C_11  and  C_12
REMARK                            x       y       z     vdW  Elec       q    Type
REMARK                         _______ _______ _______ _____ _____    ______ ____
ROOT
ATOM      1  C   UNL     1       4.856   4.608  17.159  0.00  0.00    +0.000 A 
ATOM      2  C   UNL     1       5.085   5.500  18.217  0.00  0.00    +0.000 A 
ATOM      3  C   UNL     1       4.262   5.506  19.352  0.00  0.00    +0.000 A 
ATOM      4  C   UNL     1       3.195   4.611  19.454  0.00  0.00    +0.000 A 
ATOM      5  C   UNL     1       2.964   3.714  18.400  0.00  0.00    +0.000 A 
ATOM      6  C   UNL     1       3.785   3.712  17.265  0.00  0.00    +0.000 A 
ENDROOT
BRANCH   1  10
ATOM      7  C   UNL     1       6.608   4.446  14.094  0.00  0.00    +0.000 A 
ATOM      8  N   UNL     1       7.451   5.237  14.769  0.00  0.00    +0.000 NA
ATOM      9  O   UNL     1       6.844   5.348  16.019  0.00  0.00    +0.000 OA
ATOM     10  C   UNL     1       5.693   4.610  15.965  0.00  0.00    +0.000 A 
ATOM     11  N   UNL     1       5.511   4.026  14.802  0.00  0.00    +0.000 NA
BRANCH   7  13
ATOM     12  C   UNL     1       5.723   3.175  12.155  0.00  0.00    +0.000 C 
ATOM     13  C   UNL     1       6.814   4.103  12.668  0.00  0.00    +0.000 C 
ENDBRANCH   7  13
ENDBRANCH   1  10
BRANCH   4  14
ATOM     14  C   UNL     1       2.271   4.560  20.631  0.00  0.00    +0.000 C 
ATOM     15  C   UNL     1       2.140   3.313  21.471  0.00  0.00    +0.000 C 
ATOM     16  O   UNL     1       1.617   5.562  20.922  0.00  0.00    +0.000 OA
ENDBRANCH   4  14
TORSDOF 3
ENDMDL
MODEL 4
REMARK VINA RESULT:      -6.8      2.370      6.577
REMARK  Name = 
REMARK  5 active torsions:
REMARK  status: ('A' for Active; 'I' for Inactive)
REMARK    1  A    between atoms: C_1  and  C_2
REMARK    2  A    between atoms: C_2  and  C_3
REMARK    3  A    between atoms: C_6  and  C_7
REMARK    4  A    between atoms: C_10  and  C_11
REMARK    5  A    between atoms: C_11  and  C_12
REMARK                            x       y       z     vdW  Elec       q    Type
REMARK                         _______ _______ _______ _____ _____    ______ ____
ROOT
ATOM      1  C   UNL     1       4.305   4.817  17.117  0.00  0.00    +0.000 A 
ATOM      2  C   UNL     1       4.814   3.615  16.604  0.00  0.00    +0.000 A 
ATOM      3  C   UNL     1       5.704   3.606  15.520  0.00  0.00    +0.000 A 
ATOM      4  C   UNL     1       6.108   4.806  14.931  0.00  0.00    +0.000 A 
ATOM      5  C   UNL     1       5.605   6.011  15.442  0.00  0.00    +0.000 A 
ATOM      6  C   UNL     1       4.713   6.018  16.522  0.00  0.00    +0.000 A 
ENDROOT
BRANCH   1  10
ATOM      7  C   UNL     1       1.951   4.507  19.733  0.00  0.00    +0.000 A 
ATOM      8  N   UNL     1       2.439   5.715  20.041  0.00  0.00    +0.000 NA
ATOM      9  O   UNL     1       3.382   5.937  19.038  0.00  0.00    +0.000 OA
ATOM     10  C   UNL     1       3.362   4.834  18.228  0.00  0.00    +0.000 A 
ATOM     11  N   UNL     1       2.488   3.930  18.611  0.00  0.00    +0.000 NA
BRANCH   7  13
ATOM     12  C   UNL     1       1.610   2.838  21.537  0.00  0.00    +0.000 C 
ATOM     13  C   UNL     1       0.950   3.818  20.580  0.00  0.00    +0.000 C 
ENDBRANCH   7  13
ENDBRANCH   1  10
BRANCH   4  14
ATOM     14  C   UNL     1       7.050   4.877  13.769  0.00  0.00    +0.000 C 
ATOM     15  C   UNL     1       6.834   4.040  12.533  0.00  0.00    +0.000 C 
ATOM     16  O   UNL     1       8.011   5.646  13.824  0.00  0.00    +0.000 OA
ENDBRANCH   4  14
TORSDOF 3
ENDMDL
MODEL 5
REMARK VINA RESULT:      -6.8      1.568      1.605
REMARK  Name = 
REMARK  5 active torsions:
REMARK  status: ('A' for Active; 'I' for Inactive)
REMARK    1  A    between atoms: C_1  and  C_2
REMARK    2  A    between atoms: C_2  and  C_3
REMARK    3  A    between atoms: C_6  and  C_7
REMARK    4  A    between atoms: C_10  and  C_11
REMARK    5  A    between atoms: C_11  and  C_12
REMARK                            x       y       z     vdW  Elec       q    Type
REMARK                         _______ _______ _______ _____ _____    ______ ____
ROOT
ATOM      1  C   UNL     1       4.987   4.075  17.152  0.00  0.00    +0.000 A 
ATOM      2  C   UNL     1       3.655   3.667  16.986  0.00  0.00    +0.000 A 
ATOM      3  C   UNL     1       2.847   3.360  18.090  0.00  0.00    +0.000 A 
ATOM      4  C   UNL     1       3.355   3.464  19.386  0.00  0.00    +0.000 A 
ATOM      5  C   UNL     1       4.685   3.875  19.558  0.00  0.00    +0.000 A 
ATOM      6  C   UNL     1       5.492   4.177  18.454  0.00  0.00    +0.000 A 
ENDROOT
BRANCH   1  10
ATOM      7  C   UNL     1       6.815   4.617  14.177  0.00  0.00    +0.000 A 
ATOM      8  N   UNL     1       7.506   5.424  14.991  0.00  0.00    +0.000 NA
ATOM      9  O   UNL     1       6.859   5.264  16.215  0.00  0.00    +0.000 OA
ATOM     10  C   UNL     1       5.841   4.374  16.009  0.00  0.00    +0.000 A 
ATOM     11  N   UNL     1       5.781   3.939  14.770  0.00  0.00    +0.000 NA
BRANCH   7  13
ATOM     12  C   UNL     1       6.353   3.358  12.089  0.00  0.00    +0.000 C 
ATOM     13  C   UNL     1       7.106   4.514  12.728  0.00  0.00    +0.000 C 
ENDBRANCH   7  13
ENDBRANCH   1  10
BRANCH   4  14
ATOM     14  C   UNL     1       2.556   3.150  20.613  0.00  0.00    +0.000 C 
ATOM     15  C   UNL     1       1.088   3.490  20.700  0.00  0.00    +0.000 C 
ATOM     16  O   UNL     1       3.109   2.591  21.561  0.00  0.00    +0.000 OA
ENDBRANCH   4  14
TORSDOF 3
ENDMDL
MODEL 6
REMARK VINA RESULT:      -6.8      0.912      1.646
REMARK  Name = 
REMARK  5 active torsions:
REMARK  status: ('A' for Active; 'I' for Inactive)
REMARK    1  A    between atoms: C_1  and  C_2
REMARK    2  A    between atoms: C_2  and  C_3
REMARK    3  A    between atoms: C_6  and  C_7
REMARK    4  A    between atoms: C_10  and  C_11
REMARK    5  A    between atoms: C_11  and  C_12
REMARK                            x       y       z     vdW  Elec       q    Type
REMARK                         _______ _______ _______ _____ _____    ______ ____
ROOT
ATOM      1  C   UNL     1       4.740   5.448  16.656  0.00  0.00    +0.000 A 
ATOM      2  C   UNL     1       4.521   6.783  17.026  0.00  0.00    +0.000 A 
ATOM      3  C   UNL     1       3.676   7.111  18.095  0.00  0.00    +0.000 A 
ATOM      4  C   UNL     1       3.037   6.105  18.822  0.00  0.00    +0.000 A 
ATOM      5  C   UNL     1       3.255   4.768  18.459  0.00  0.00    +0.000 A 
ATOM      6  C   UNL     1       4.097   4.443  17.388  0.00  0.00    +0.000 A 
ENDROOT
BRANCH   1  10
ATOM      7  C   UNL     1       6.540   4.417  13.795  0.00  0.00    +0.000 A 
ATOM      8  N   UNL     1       7.424   5.293  14.287  0.00  0.00    +0.000 NA
ATOM      9  O   UNL     1       6.800   5.751  15.446  0.00  0.00    +0.000 OA
ATOM     10  C   UNL     1       5.600   5.100  15.531  0.00  0.00    +0.000 A 
ATOM     11  N   UNL     1       5.400   4.259  14.541  0.00  0.00    +0.000 NA
BRANCH   7  13
ATOM     12  C   UNL     1       5.447   3.158  11.956  0.00  0.00    +0.000 C 
ATOM     13  C   UNL     1       6.749   3.718  12.505  0.00  0.00    +0.000 C 
ENDBRANCH   7  13
ENDBRANCH   1  10
BRANCH   4  14
ATOM     14  C   UNL     1       2.117   6.376  19.972  0.00  0.00    +0.000 C 
ATOM     15  C   UNL     1       1.730   7.785  20.351  0.00  0.00    +0.000 C 
ATOM     16  O   UNL     1       1.660   5.426  20.610  0.00  0.00    +0.000 OA
ENDBRANCH   4  14
TORSDOF 3
ENDMDL
MODEL 7
REMARK VINA RESULT:      -6.8      0.876      1.120
REMARK  Name = 
REMARK  5 active torsions:
REMARK  status: ('A' for Active; 'I' for Inactive)
REMARK    1  A    between atoms: C_1  and  C_2
REMARK    2  A    between atoms: C_2  and  C_3
REMARK    3  A    between atoms: C_6  and  C_7
REMARK    4  A    between atoms: C_10  and  C_11
REMARK    5  A    between atoms: C_11  and  C_12
REMARK                            x       y       z     vdW  Elec       q    Type
REMARK                         _______ _______ _______ _____ _____    ______ ____
ROOT
ATOM      1  C   UNL     1       4.679   5.303  16.686  0.00  0.00    +0.000 A 
ATOM      2  C   UNL     1       4.155   4.277  17.487  0.00  0.00    +0.000 A 
ATOM      3  C   UNL     1       3.331   4.561  18.585  0.00  0.00    +0.000 A 
ATOM      4  C   UNL     1       3.008   5.882  18.900  0.00  0.00    +0.000 A 
ATOM      5  C   UNL     1       3.526   6.912  18.100  0.00  0.00    +0.000 A 
ATOM      6  C   UNL     1       4.352   6.626  17.006  0.00  0.00    +0.000 A 
ENDROOT
BRANCH   1  10
ATOM      7  C   UNL     1       6.526   4.418  13.806  0.00  0.00    +0.000 A 
ATOM      8  N   UNL     1       7.377   5.310  14.328  0.00  0.00    +0.000 NA
ATOM      9  O   UNL     1       6.733   5.712  15.497  0.00  0.00    +0.000 OA
ATOM     10  C   UNL     1       5.555   5.017  15.557  0.00  0.00    +0.000 A 
ATOM     11  N   UNL     1       5.389   4.199  14.541  0.00  0.00    +0.000 NA
BRANCH   7  13
ATOM     12  C   UNL     1       5.485   3.178  11.926  0.00  0.00    +0.000 C 
ATOM     13  C   UNL     1       6.765   3.765  12.499  0.00  0.00    +0.000 C 
ENDBRANCH   7  13
ENDBRANCH   1  10
BRANCH   4  14
ATOM     14  C   UNL     1       2.139   6.265  20.057  0.00  0.00    +0.000 C 
ATOM     15  C   UNL     1       1.808   7.709  20.344  0.00  0.00    +0.000 C 
ATOM     16  O   UNL     1       1.677   5.379  20.778  0.00  0.00    +0.000 OA
ENDBRANCH   4  14
TORSDOF 3
ENDMDL
MODEL 8
REMARK VINA RESULT:      -6.7      1.175      1.632
REMARK  Name = 
REMARK  5 active torsions:
REMARK  status: ('A' for Active; 'I' for Inactive)
REMARK    1  A    between atoms: C_1  and  C_2
REMARK    2  A    between atoms: C_2  and  C_3
REMARK    3  A    between atoms: C_6  and  C_7
REMARK    4  A    between atoms: C_10  and  C_11
REMARK    5  A    between atoms: C_11  and  C_12
REMARK                            x       y       z     vdW  Elec       q    Type
REMARK                         _______ _______ _______ _____ _____    ______ ____
ROOT
ATOM      1  C   UNL     1       5.273   4.551  16.856  0.00  0.00    +0.000 A 
ATOM      2  C   UNL     1       5.679   5.140  18.063  0.00  0.00    +0.000 A 
ATOM      3  C   UNL     1       4.884   5.057  19.216  0.00  0.00    +0.000 A 
ATOM      4  C   UNL     1       3.667   4.374  19.184  0.00  0.00    +0.000 A 
ATOM      5  C   UNL     1       3.258   3.780  17.981  0.00  0.00    +0.000 A 
ATOM      6  C   UNL     1       4.051   3.868  16.830  0.00  0.00    +0.000 A 
ENDROOT
BRANCH   1  10
ATOM      7  C   UNL     1       6.977   4.597  13.761  0.00  0.00    +0.000 A 
ATOM      8  N   UNL     1       7.733   5.481  14.423  0.00  0.00    +0.000 NA
ATOM      9  O   UNL     1       7.139   5.520  15.683  0.00  0.00    +0.000 OA
ATOM     10  C   UNL     1       6.082   4.652  15.648  0.00  0.00    +0.000 A 
ATOM     11  N   UNL     1       5.949   4.051  14.487  0.00  0.00    +0.000 NA
BRANCH   7  13
ATOM     12  C   UNL     1       6.334   3.112  11.880  0.00  0.00    +0.000 C 
ATOM     13  C   UNL     1       7.196   4.281  12.331  0.00  0.00    +0.000 C 
ENDBRANCH   7  13
ENDBRANCH   1  10
BRANCH   4  14
ATOM     14  C   UNL     1       2.763   4.246  20.370  0.00  0.00    +0.000 C 
ATOM     15  C   UNL     1       1.759   5.321  20.709  0.00  0.00    +0.000 C 
ATOM     16  O   UNL     1       2.835   3.237  21.072  0.00  0.00    +0.000 OA
ENDBRANCH   4  14
TORSDOF 3
ENDMDL
MODEL 9
REMARK VINA RESULT:      -6.7      0.978      1.056
REMARK  Name = 
REMARK  5 active torsions:
REMARK  status: ('A' for Active; 'I' for Inactive)
REMARK    1  A    between atoms: C_1  and  C_2
REMARK    2  A    between atoms: C_2  and  C_3
REMARK    3  A    between atoms: C_6  and  C_7
REMARK    4  A    between atoms: C_10  and  C_11
REMARK    5  A    between atoms: C_11  and  C_12
REMARK                            x       y       z     vdW  Elec       q    Type
REMARK                         _______ _______ _______ _____ _____    ______ ____
ROOT
ATOM      1  C   UNL     1       4.565   4.322  17.121  0.00  0.00    +0.000 A 
ATOM      2  C   UNL     1       4.041   3.059  17.436  0.00  0.00    +0.000 A 
ATOM      3  C   UNL     1       3.128   2.894  18.487  0.00  0.00    +0.000 A 
ATOM      4  C   UNL     1       2.714   3.994  19.241  0.00  0.00    +0.000 A 
ATOM      5  C   UNL     1       3.232   5.260  18.927  0.00  0.00    +0.000 A 
ATOM      6  C   UNL     1       4.147   5.422  17.880  0.00  0.00    +0.000 A 
ENDROOT
BRANCH   1  10
ATOM      7  C   UNL     1       6.654   4.619  14.286  0.00  0.00    +0.000 A 
ATOM      8  N   UNL     1       7.417   5.273  15.171  0.00  0.00    +0.000 NA
ATOM      9  O   UNL     1       6.671   5.195  16.346  0.00  0.00    +0.000 OA
ATOM     10  C   UNL     1       5.532   4.499  16.045  0.00  0.00    +0.000 A 
ATOM     11  N   UNL     1       5.482   4.113  14.789  0.00  0.00    +0.000 NA
BRANCH   7  13
ATOM     12  C   UNL     1       6.260   3.379  12.173  0.00  0.00    +0.000 C 
ATOM     13  C   UNL     1       7.020   4.506  12.856  0.00  0.00    +0.000 C 
ENDBRANCH   7  13
ENDBRANCH   1  10
BRANCH   4  14
ATOM     14  C   UNL     1       1.746   3.897  20.379  0.00  0.00    +0.000 C 
ATOM     15  C   UNL     1       2.134   3.242  21.682  0.00  0.00    +0.000 C 
ATOM     16  O   UNL     1       0.618   4.374  20.249  0.00  0.00    +0.000 OA
ENDBRANCH   4  14
TORSDOF 3
ENDMDL
