MODEL 1
REMARK VINA RESULT:      -8.7      0.000      0.000
REMARK  Name = 
REMARK  1 active torsions:
REMARK  status: ('A' for Active; 'I' for Inactive)
REMARK    1  A    between atoms: C_6  and  C_7
REMARK                            x       y       z     vdW  Elec       q    Type
REMARK                         _______ _______ _______ _____ _____    ______ ____
ROOT
ATOM      1  C   UNL     1       2.984   6.490  19.305  0.00  0.00    +0.000 C 
ATOM      2  C   UNL     1       3.870   6.753  18.060  0.00  0.00    +0.000 C 
ATOM      3  N   UNL     1       4.508   5.496  17.718  0.00  0.00    +0.000 NA
ATOM      4  C   UNL     1       5.686   5.491  16.859  0.00  0.00    +0.000 C 
ATOM      5  C   UNL     1       5.538   4.240  15.981  0.00  0.00    +0.000 C 
ATOM      6  C   UNL     1       4.493   3.421  16.725  0.00  0.00    +0.000 C 
ATOM      7  C   UNL     1       3.554   4.541  17.156  0.00  0.00    +0.000 C 
ATOM      8  C   UNL     1       2.525   4.195  18.203  0.00  0.00    +0.000 A 
ATOM      9  C   UNL     1       1.881   2.950  18.187  0.00  0.00    +0.000 A 
ATOM     10  C   UNL     1       1.023   2.593  19.226  0.00  0.00    +0.000 A 
ATOM     11  C   UNL     1       0.799   3.477  20.283  0.00  0.00    +0.000 A 
ATOM     12  C   UNL     1       1.413   4.735  20.292  0.00  0.00    +0.000 A 
ATOM     13  C   UNL     1       2.266   5.129  19.243  0.00  0.00    +0.000 A 
ENDROOT
BRANCH   1  19
ATOM     14 CL   UNL     1      -0.188   9.319  22.486  0.00  0.00    +0.000 Cl
ATOM     15  C   UNL     1       0.602   9.040  20.944  0.00  0.00    +0.000 A 
ATOM     16  C   UNL     1       0.340   9.892  19.868  0.00  0.00    +0.000 A 
ATOM     17  C   UNL     1       0.950   9.665  18.633  0.00  0.00    +0.000 A 
ATOM     18  C   UNL     1       1.813   8.577  18.467  0.00  0.00    +0.000 A 
ATOM     19  C   UNL     1       2.090   7.706  19.537  0.00  0.00    +0.000 A 
ATOM     20  C   UNL     1       1.481   7.958  20.786  0.00  0.00    +0.000 A 
ENDBRANCH   1  19
TORSDOF 1
ENDMDL
MODEL 2
REMARK VINA RESULT:      -8.4      3.018      5.812
REMARK  Name = 
REMARK  1 active torsions:
REMARK  status: ('A' for Active; 'I' for Inactive)
REMARK    1  A    between atoms: C_6  and  C_7
REMARK                            x       y       z     vdW  Elec       q    Type
REMARK                         _______ _______ _______ _____ _____    ______ ____
ROOT
ATOM      1  C   UNL     1       3.375   5.543  17.656  0.00  0.00    +0.000 C 
ATOM      2  C   UNL     1       3.479   6.975  18.241  0.00  0.00    +0.000 C 
ATOM      3  N   UNL     1       2.264   7.215  18.997  0.00  0.00    +0.000 NA
ATOM      4  C   UNL     1       1.877   8.579  19.334  0.00  0.00    +0.000 C 
ATOM      5  C   UNL     1       1.272   8.490  20.743  0.00  0.00    +0.000 C 
ATOM      6  C   UNL     1       0.987   7.003  20.899  0.00  0.00    +0.000 C 
ATOM      7  C   UNL     1       2.235   6.435  20.234  0.00  0.00    +0.000 C 
ATOM      8  C   UNL     1       2.209   4.966  19.893  0.00  0.00    +0.000 A 
ATOM      9  C   UNL     1       1.613   4.041  20.760  0.00  0.00    +0.000 A 
ATOM     10  C   UNL     1       1.487   2.706  20.381  0.00  0.00    +0.000 A 
ATOM     11  C   UNL     1       1.959   2.286  19.137  0.00  0.00    +0.000 A 
ATOM     12  C   UNL     1       2.584   3.194  18.276  0.00  0.00    +0.000 A 
ATOM     13  C   UNL     1       2.744   4.544  18.645  0.00  0.00    +0.000 A 
ENDROOT
BRANCH   1  19
ATOM     14 CL   UNL     1       6.323   3.819  13.592  0.00  0.00    +0.000 Cl
ATOM     15  C   UNL     1       6.142   4.334  15.259  0.00  0.00    +0.000 A 
ATOM     16  C   UNL     1       7.244   4.295  16.119  0.00  0.00    +0.000 A 
ATOM     17  C   UNL     1       7.102   4.685  17.452  0.00  0.00    +0.000 A 
ATOM     18  C   UNL     1       5.857   5.101  17.933  0.00  0.00    +0.000 A 
ATOM     19  C   UNL     1       4.735   5.147  17.084  0.00  0.00    +0.000 A 
ATOM     20  C   UNL     1       4.895   4.768  15.734  0.00  0.00    +0.000 A 
ENDBRANCH   1  19
TORSDOF 1
ENDMDL
MODEL 3
REMARK VINA RESULT:      -8.1      1.121      1.561
REMARK  Name = 
REMARK  1 active torsions:
REMARK  status: ('A' for Active; 'I' for Inactive)
REMARK    1  A    between atoms: C_6  and  C_7
REMARK                            x       y       z     vdW  Elec       q    Type
REMARK                         _______ _______ _______ _____ _____    ______ ____
ROOT
ATOM      1  C   UNL     1       2.783   6.592  19.583  0.00  0.00    +0.000 C 
ATOM      2  C   UNL     1       3.567   7.009  18.313  0.00  0.00    +0.000 C 
ATOM      3  N   UNL     1       4.266   5.830  17.838  0.00  0.00    +0.000 NA
ATOM      4  C   UNL     1       5.386   5.973  16.914  0.00  0.00    +0.000 C 
ATOM      5  C   UNL     1       5.267   4.782  15.951  0.00  0.00    +0.000 C 
ATOM      6  C   UNL     1       4.329   3.838  16.690  0.00  0.00    +0.000 C 
ATOM      7  C   UNL     1       3.346   4.852  17.260  0.00  0.00    +0.000 C 
ATOM      8  C   UNL     1       2.411   4.356  18.335  0.00  0.00    +0.000 A 
ATOM      9  C   UNL     1       1.854   3.073  18.260  0.00  0.00    +0.000 A 
ATOM     10  C   UNL     1       1.089   2.579  19.316  0.00  0.00    +0.000 A 
ATOM     11  C   UNL     1       0.874   3.364  20.449  0.00  0.00    +0.000 A 
ATOM     12  C   UNL     1       1.399   4.659  20.520  0.00  0.00    +0.000 A 
ATOM     13  C   UNL     1       2.156   5.190  19.458  0.00  0.00    +0.000 A 
ENDROOT
BRANCH   1  19
ATOM     14 CL   UNL     1       0.375  11.169  18.385  0.00  0.00    +0.000 Cl
ATOM     15  C   UNL     1       0.703   9.836  19.478  0.00  0.00    +0.000 A 
ATOM     16  C   UNL     1       0.152   9.844  20.763  0.00  0.00    +0.000 A 
ATOM     17  C   UNL     1       0.425   8.796  21.644  0.00  0.00    +0.000 A 
ATOM     18  C   UNL     1       1.259   7.745  21.250  0.00  0.00    +0.000 A 
ATOM     19  C   UNL     1       1.824   7.719  19.961  0.00  0.00    +0.000 A 
ATOM     20  C   UNL     1       1.526   8.774  19.072  0.00  0.00    +0.000 A 
ENDBRANCH   1  19
TORSDOF 1
ENDMDL
MODEL 4
REMARK VINA RESULT:      -8.0      3.389      6.483
REMARK  Name = 
REMARK  1 active torsions:
REMARK  status: ('A' for Active; 'I' for Inactive)
REMARK    1  A    between atoms: C_6  and  C_7
REMARK                            x       y       z     vdW  Elec       q    Type
REMARK                         _______ _______ _______ _____ _____    ______ ____
ROOT
ATOM      1  C   UNL     1       4.816   4.550  17.237  0.00  0.00    +0.000 C 
ATOM      2  C   UNL     1       4.144   3.166  17.431  0.00  0.00    +0.000 C 
ATOM      3  N   UNL     1       3.264   3.277  18.579  0.00  0.00    +0.000 NA
ATOM      4  C   UNL     1       2.798   2.073  19.255  0.00  0.00    +0.000 C 
ATOM      5  C   UNL     1       1.349   2.376  19.664  0.00  0.00    +0.000 C 
ATOM      6  C   UNL     1       1.272   3.892  19.551  0.00  0.00    +0.000 C 
ATOM      7  C   UNL     1       2.088   4.093  18.280  0.00  0.00    +0.000 C 
ATOM      8  C   UNL     1       2.527   5.503  17.976  0.00  0.00    +0.000 A 
ATOM      9  C   UNL     1       1.675   6.587  18.226  0.00  0.00    +0.000 A 
ATOM     10  C   UNL     1       2.134   7.892  18.056  0.00  0.00    +0.000 A 
ATOM     11  C   UNL     1       3.443   8.123  17.630  0.00  0.00    +0.000 A 
ATOM     12  C   UNL     1       4.292   7.047  17.347  0.00  0.00    +0.000 A 
ATOM     13  C   UNL     1       3.846   5.719  17.489  0.00  0.00    +0.000 A 
ENDROOT
BRANCH   1  19
ATOM     14 CL   UNL     1       4.922   3.329  12.072  0.00  0.00    +0.000 Cl
ATOM     15  C   UNL     1       5.657   4.006  13.514  0.00  0.00    +0.000 A 
ATOM     16  C   UNL     1       6.970   4.483  13.463  0.00  0.00    +0.000 A 
ATOM     17  C   UNL     1       7.567   5.005  14.612  0.00  0.00    +0.000 A 
ATOM     18  C   UNL     1       6.860   5.038  15.818  0.00  0.00    +0.000 A 
ATOM     19  C   UNL     1       5.538   4.560  15.891  0.00  0.00    +0.000 A 
ATOM     20  C   UNL     1       4.939   4.053  14.719  0.00  0.00    +0.000 A 
ENDBRANCH   1  19
TORSDOF 1
ENDMDL
MODEL 5
REMARK VINA RESULT:      -8.0      2.668      5.547
REMARK  Name = 
REMARK  1 active torsions:
REMARK  status: ('A' for Active; 'I' for Inactive)
REMARK    1  A    between atoms: C_6  and  C_7
REMARK                            x       y       z     vdW  Elec       q    Type
REMARK                         _______ _______ _______ _____ _____    ______ ____
ROOT
ATOM      1  C   UNL     1       3.191   5.511  17.653  0.00  0.00    +0.000 C 
ATOM      2  C   UNL     1       3.371   6.947  18.208  0.00  0.00    +0.000 C 
ATOM      3  N   UNL     1       2.172   7.265  18.961  0.00  0.00    +0.000 NA
ATOM      4  C   UNL     1       1.857   8.655  19.270  0.00  0.00    +0.000 C 
ATOM      5  C   UNL     1       1.253   8.625  20.682  0.00  0.00    +0.000 C 
ATOM      6  C   UNL     1       0.891   7.159  20.869  0.00  0.00    +0.000 C 
ATOM      7  C   UNL     1       2.106   6.514  20.214  0.00  0.00    +0.000 C 
ATOM      8  C   UNL     1       2.003   5.041  19.903  0.00  0.00    +0.000 A 
ATOM      9  C   UNL     1       1.362   4.167  20.790  0.00  0.00    +0.000 A 
ATOM     10  C   UNL     1       1.166   2.832  20.439  0.00  0.00    +0.000 A 
ATOM     11  C   UNL     1       1.612   2.362  19.203  0.00  0.00    +0.000 A 
ATOM     12  C   UNL     1       2.281   3.219  18.322  0.00  0.00    +0.000 A 
ATOM     13  C   UNL     1       2.512   4.566  18.663  0.00  0.00    +0.000 A 
ENDROOT
BRANCH   1  19
ATOM     14 CL   UNL     1       8.375   4.560  18.292  0.00  0.00    +0.000 Cl
ATOM     15  C   UNL     1       6.920   4.596  17.310  0.00  0.00    +0.000 A 
ATOM     16  C   UNL     1       6.994   4.271  15.953  0.00  0.00    +0.000 A 
ATOM     17  C   UNL     1       5.844   4.317  15.162  0.00  0.00    +0.000 A 
ATOM     18  C   UNL     1       4.621   4.700  15.722  0.00  0.00    +0.000 A 
ATOM     19  C   UNL     1       4.527   5.032  17.087  0.00  0.00    +0.000 A 
ATOM     20  C   UNL     1       5.692   4.965  17.880  0.00  0.00    +0.000 A 
ENDBRANCH   1  19
TORSDOF 1
ENDMDL
MODEL 6
REMARK VINA RESULT:      -7.9      1.486      3.429
REMARK  Name = 
REMARK  1 active torsions:
REMARK  status: ('A' for Active; 'I' for Inactive)
REMARK    1  A    between atoms: C_6  and  C_7
REMARK                            x       y       z     vdW  Elec       q    Type
REMARK                         _______ _______ _______ _____ _____    ______ ____
ROOT
ATOM      1  C   UNL     1       2.712   6.246  17.863  0.00  0.00    +0.000 C 
ATOM      2  C   UNL     1       1.960   5.041  18.485  0.00  0.00    +0.000 C 
ATOM      3  N   UNL     1       2.643   3.840  18.045  0.00  0.00    +0.000 NA
ATOM      4  C   UNL     1       1.967   2.550  18.123  0.00  0.00    +0.000 C 
ATOM      5  C   UNL     1       3.060   1.547  18.520  0.00  0.00    +0.000 C 
ATOM      6  C   UNL     1       4.345   2.302  18.211  0.00  0.00    +0.000 C 
ATOM      7  C   UNL     1       3.945   3.690  18.693  0.00  0.00    +0.000 C 
ATOM      8  C   UNL     1       4.839   4.832  18.279  0.00  0.00    +0.000 A 
ATOM      9  C   UNL     1       6.230   4.673  18.242  0.00  0.00    +0.000 A 
ATOM     10  C   UNL     1       7.039   5.693  17.743  0.00  0.00    +0.000 A 
ATOM     11  C   UNL     1       6.463   6.879  17.283  0.00  0.00    +0.000 A 
ATOM     12  C   UNL     1       5.077   7.061  17.345  0.00  0.00    +0.000 A 
ATOM     13  C   UNL     1       4.240   6.054  17.866  0.00  0.00    +0.000 A 
ENDROOT
BRANCH   1  19
ATOM     14 CL   UNL     1       1.072   8.883  22.169  0.00  0.00    +0.000 Cl
ATOM     15  C   UNL     1       1.415   8.793  20.451  0.00  0.00    +0.000 A 
ATOM     16  C   UNL     1       1.127   9.887  19.630  0.00  0.00    +0.000 A 
ATOM     17  C   UNL     1       1.379   9.815  18.259  0.00  0.00    +0.000 A 
ATOM     18  C   UNL     1       1.905   8.645  17.702  0.00  0.00    +0.000 A 
ATOM     19  C   UNL     1       2.200   7.531  18.511  0.00  0.00    +0.000 A 
ATOM     20  C   UNL     1       1.959   7.623  19.898  0.00  0.00    +0.000 A 
ENDBRANCH   1  19
TORSDOF 1
ENDMDL
MODEL 7
REMARK VINA RESULT:      -7.3      2.585      5.414
REMARK  Name = 
REMARK  1 active torsions:
REMARK  status: ('A' for Active; 'I' for Inactive)
REMARK    1  A    between atoms: C_6  and  C_7
REMARK                            x       y       z     vdW  Elec       q    Type
REMARK                         _______ _______ _______ _____ _____    ______ ____
ROOT
ATOM      1  C   UNL     1       2.979   6.183  17.870  0.00  0.00    +0.000 C 
ATOM      2  C   UNL     1       2.988   7.601  18.496  0.00  0.00    +0.000 C 
ATOM      3  N   UNL     1       1.766   7.735  19.265  0.00  0.00    +0.000 NA
ATOM      4  C   UNL     1       1.287   9.059  19.644  0.00  0.00    +0.000 C 
ATOM      5  C   UNL     1       0.701   8.887  21.053  0.00  0.00    +0.000 C 
ATOM      6  C   UNL     1       0.520   7.380  21.167  0.00  0.00    +0.000 C 
ATOM      7  C   UNL     1       1.799   6.920  20.479  0.00  0.00    +0.000 C 
ATOM      8  C   UNL     1       1.872   5.463  20.095  0.00  0.00    +0.000 A 
ATOM      9  C   UNL     1       1.348   4.475  20.938  0.00  0.00    +0.000 A 
ATOM     10  C   UNL     1       1.311   3.145  20.521  0.00  0.00    +0.000 A 
ATOM     11  C   UNL     1       1.802   2.794  19.262  0.00  0.00    +0.000 A 
ATOM     12  C   UNL     1       2.357   3.769  18.425  0.00  0.00    +0.000 A 
ATOM     13  C   UNL     1       2.426   5.115  18.832  0.00  0.00    +0.000 A 
ENDROOT
BRANCH   1  19
ATOM     14 CL   UNL     1       8.083   7.516  17.268  0.00  0.00    +0.000 Cl
ATOM     15  C   UNL     1       6.711   6.471  16.945  0.00  0.00    +0.000 A 
ATOM     16  C   UNL     1       6.850   5.404  16.053  0.00  0.00    +0.000 A 
ATOM     17  C   UNL     1       5.757   4.580  15.776  0.00  0.00    +0.000 A 
ATOM     18  C   UNL     1       4.520   4.829  16.379  0.00  0.00    +0.000 A 
ATOM     19  C   UNL     1       4.359   5.899  17.279  0.00  0.00    +0.000 A 
ATOM     20  C   UNL     1       5.476   6.713  17.565  0.00  0.00    +0.000 A 
ENDBRANCH   1  19
TORSDOF 1
ENDMDL
MODEL 8
REMARK VINA RESULT:      -7.1      3.598      6.750
REMARK  Name = 
REMARK  1 active torsions:
REMARK  status: ('A' for Active; 'I' for Inactive)
REMARK    1  A    between atoms: C_6  and  C_7
REMARK                            x       y       z     vdW  Elec       q    Type
REMARK                         _______ _______ _______ _____ _____    ______ ____
ROOT
ATOM      1  C   UNL     1       5.232   4.239  16.707  0.00  0.00    +0.000 C 
ATOM      2  C   UNL     1       4.522   2.886  16.969  0.00  0.00    +0.000 C 
ATOM      3  N   UNL     1       3.791   3.022  18.215  0.00  0.00    +0.000 NA
ATOM      4  C   UNL     1       3.352   1.832  18.934  0.00  0.00    +0.000 C 
ATOM      5  C   UNL     1       1.978   2.198  19.515  0.00  0.00    +0.000 C 
ATOM      6  C   UNL     1       1.962   3.717  19.424  0.00  0.00    +0.000 C 
ATOM      7  C   UNL     1       2.628   3.896  18.066  0.00  0.00    +0.000 C 
ATOM      8  C   UNL     1       3.096   5.288  17.722  0.00  0.00    +0.000 A 
ATOM      9  C   UNL     1       2.333   6.407  18.081  0.00  0.00    +0.000 A 
ATOM     10  C   UNL     1       2.829   7.692  17.867  0.00  0.00    +0.000 A 
ATOM     11  C   UNL     1       4.088   7.866  17.289  0.00  0.00    +0.000 A 
ATOM     12  C   UNL     1       4.845   6.756  16.898  0.00  0.00    +0.000 A 
ATOM     13  C   UNL     1       4.355   5.449  17.083  0.00  0.00    +0.000 A 
ENDROOT
BRANCH   1  19
ATOM     14 CL   UNL     1       8.854   5.867  13.184  0.00  0.00    +0.000 Cl
ATOM     15  C   UNL     1       7.410   4.965  13.610  0.00  0.00    +0.000 A 
ATOM     16  C   UNL     1       6.690   4.301  12.613  0.00  0.00    +0.000 A 
ATOM     17  C   UNL     1       5.530   3.598  12.943  0.00  0.00    +0.000 A 
ATOM     18  C   UNL     1       5.077   3.570  14.266  0.00  0.00    +0.000 A 
ATOM     19  C   UNL     1       5.787   4.234  15.284  0.00  0.00    +0.000 A 
ATOM     20  C   UNL     1       6.969   4.925  14.942  0.00  0.00    +0.000 A 
ENDBRANCH   1  19
TORSDOF 1
ENDMDL
MODEL 9
REMARK VINA RESULT:      -7.0      1.732      3.688
REMARK  Name = 
REMARK  1 active torsions:
REMARK  status: ('A' for Active; 'I' for Inactive)
REMARK    1  A    between atoms: C_6  and  C_7
REMARK                            x       y       z     vdW  Elec       q    Type
REMARK                         _______ _______ _______ _____ _____    ______ ____
ROOT
ATOM      1  C   UNL     1       2.526   6.122  18.113  0.00  0.00    +0.000 C 
ATOM      2  C   UNL     1       1.913   4.833  18.718  0.00  0.00    +0.000 C 
ATOM      3  N   UNL     1       2.606   3.709  18.117  0.00  0.00    +0.000 NA
ATOM      4  C   UNL     1       2.012   2.379  18.170  0.00  0.00    +0.000 C 
ATOM      5  C   UNL     1       3.194   1.419  18.370  0.00  0.00    +0.000 C 
ATOM      6  C   UNL     1       4.396   2.270  17.985  0.00  0.00    +0.000 C 
ATOM      7  C   UNL     1       3.978   3.595  18.610  0.00  0.00    +0.000 C 
ATOM      8  C   UNL     1       4.758   4.815  18.191  0.00  0.00    +0.000 A 
ATOM      9  C   UNL     1       6.144   4.745  17.994  0.00  0.00    +0.000 A 
ATOM     10  C   UNL     1       6.837   5.845  17.491  0.00  0.00    +0.000 A 
ATOM     11  C   UNL     1       6.152   7.022  17.186  0.00  0.00    +0.000 A 
ATOM     12  C   UNL     1       4.773   7.114  17.409  0.00  0.00    +0.000 A 
ATOM     13  C   UNL     1       4.054   6.024  17.938  0.00  0.00    +0.000 A 
ENDROOT
BRANCH   1  19
ATOM     14 CL   UNL     1       1.227  11.265  18.330  0.00  0.00    +0.000 Cl
ATOM     15  C   UNL     1       1.430   9.690  19.077  0.00  0.00    +0.000 A 
ATOM     16  C   UNL     1       1.219   9.544  20.451  0.00  0.00    +0.000 A 
ATOM     17  C   UNL     1       1.398   8.299  21.055  0.00  0.00    +0.000 A 
ATOM     18  C   UNL     1       1.803   7.199  20.291  0.00  0.00    +0.000 A 
ATOM     19  C   UNL     1       2.022   7.326  18.907  0.00  0.00    +0.000 A 
ATOM     20  C   UNL     1       1.820   8.586  18.304  0.00  0.00    +0.000 A 
ENDBRANCH   1  19
TORSDOF 1
ENDMDL
