MODEL 1
REMARK VINA RESULT:      -7.8      0.000      0.000
REMARK  Name = 
REMARK  6 active torsions:
REMARK  status: ('A' for Active; 'I' for Inactive)
REMARK    1  A    between atoms: C_1  and  C_2
REMARK    2  A    between atoms: C_2  and  N_3
REMARK    3  A    between atoms: C_7  and  C_8
REMARK    4  A    between atoms: C_17  and  N_18
REMARK    5  A    between atoms: C_19  and  C_21
REMARK    6  A    between atoms: C_27  and  N_28
REMARK                            x       y       z     vdW  Elec       q    Type
REMARK                         _______ _______ _______ _____ _____    ______ ____
ROOT
ATOM      1  C   UNL     1      -0.466   7.655  21.047  0.00  0.00    +0.000 C 
ATOM      2  C   UNL     1       0.642   8.721  21.002  0.00  0.00    +0.000 C 
ATOM      3  C   UNL     1       1.385   8.849  22.344  0.00  0.00    +0.000 C 
ATOM      4  C   UNL     1       0.506   9.721  23.227  0.00  0.00    +0.000 C 
ATOM      5  C   UNL     1      -0.282  10.615  22.289  0.00  0.00    +0.000 C 
ATOM      6  C   UNL     1       0.017  10.158  20.846  0.00  0.00    +0.000 C 
ENDROOT
BRANCH   2   7
ATOM      7  N   UNL     1       1.584   8.479  19.883  0.00  0.00    +0.000 N 
ATOM      8  C   UNL     1       2.205   7.234  19.714  0.00  0.00    +0.000 A 
ATOM      9  C   UNL     1       3.059   7.040  18.622  0.00  0.00    +0.000 A 
ATOM     10  N   UNL     1       3.602   5.843  18.273  0.00  0.00    +0.000 NA
ATOM     11  C   UNL     1       3.263   4.788  19.064  0.00  0.00    +0.000 A 
ATOM     12  C   UNL     1       2.469   4.984  20.184  0.00  0.00    +0.000 A 
ATOM     13  N   UNL     1       1.931   6.190  20.518  0.00  0.00    +0.000 NA
ATOM     14  H   UNL     1       2.293   9.209  19.827  0.00  0.00    +0.000 HD
BRANCH  11  15
ATOM     15  C   UNL     1       3.682   3.378  18.715  0.00  0.00    +0.000 C 
ATOM     16  F   UNL     1       2.688   2.451  18.814  0.00  0.00    +0.000 F 
ATOM     17  F   UNL     1       4.167   3.269  17.441  0.00  0.00    +0.000 F 
ATOM     18  F   UNL     1       4.687   2.922  19.520  0.00  0.00    +0.000 F 
ENDBRANCH  11  15
ENDBRANCH   2   7
BRANCH   6  19
ATOM     19  N   UNL     1      -1.176  10.279  20.001  0.00  0.00    +0.000 N 
ATOM     20  C   UNL     1      -1.039  10.482  18.648  0.00  0.00    +0.000 C 
ATOM     21  O   UNL     1       0.070  10.442  18.113  0.00  0.00    +0.000 OA
ATOM     22  H   UNL     1      -2.072   9.920  20.334  0.00  0.00    +0.000 HD
BRANCH  20  23
ATOM     23  C   UNL     1      -2.201  10.883  17.791  0.00  0.00    +0.000 A 
ATOM     24  C   UNL     1      -2.026  10.421  16.460  0.00  0.00    +0.000 A 
ATOM     25  C   UNL     1      -3.039  10.489  15.515  0.00  0.00    +0.000 A 
ATOM     26  F   UNL     1      -2.831  10.012  14.280  0.00  0.00    +0.000 F 
ATOM     27  C   UNL     1      -4.266  11.019  15.845  0.00  0.00    +0.000 A 
ATOM     28  C   UNL     1      -4.451  11.539  17.125  0.00  0.00    +0.000 A 
ATOM     29  C   UNL     1      -3.421  11.511  18.110  0.00  0.00    +0.000 A 
BRANCH  29  30
ATOM     30  N   UNL     1      -3.731  12.156  19.340  0.00  0.00    +0.000 N 
ATOM     31  N   UNL     1      -5.026  12.249  19.773  0.00  0.00    +0.000 NA
ATOM     32  C   UNL     1      -4.933  13.047  20.833  0.00  0.00    +0.000 A 
ATOM     33  C   UNL     1      -3.600  13.402  21.036  0.00  0.00    +0.000 A 
ATOM     34  N   UNL     1      -2.828  12.830  20.098  0.00  0.00    +0.000 NA
ENDBRANCH  29  30
ENDBRANCH  20  23
ENDBRANCH   6  19
TORSDOF 5
ENDMDL
MODEL 2
REMARK VINA RESULT:      -7.7      2.956      9.329
REMARK  Name = 
REMARK  6 active torsions:
REMARK  status: ('A' for Active; 'I' for Inactive)
REMARK    1  A    between atoms: C_1  and  C_2
REMARK    2  A    between atoms: C_2  and  N_3
REMARK    3  A    between atoms: C_7  and  C_8
REMARK    4  A    between atoms: C_17  and  N_18
REMARK    5  A    between atoms: C_19  and  C_21
REMARK    6  A    between atoms: C_27  and  N_28
REMARK                            x       y       z     vdW  Elec       q    Type
REMARK                         _______ _______ _______ _____ _____    ______ ____
ROOT
ATOM      1  C   UNL     1       1.988  10.816  18.323  0.00  0.00    +0.000 C 
ATOM      2  C   UNL     1       0.835   9.870  18.697  0.00  0.00    +0.000 C 
ATOM      3  C   UNL     1       0.114  10.306  19.987  0.00  0.00    +0.000 C 
ATOM      4  C   UNL     1       0.974   9.803  21.136  0.00  0.00    +0.000 C 
ATOM      5  C   UNL     1       1.703   8.579  20.615  0.00  0.00    +0.000 C 
ATOM      6  C   UNL     1       1.393   8.456  19.109  0.00  0.00    +0.000 C 
ENDROOT
BRANCH   2   7
ATOM      7  N   UNL     1      -0.119   9.705  17.575  0.00  0.00    +0.000 N 
ATOM      8  C   UNL     1      -1.441  10.158  17.673  0.00  0.00    +0.000 A 
ATOM      9  C   UNL     1      -2.296  10.015  16.574  0.00  0.00    +0.000 A 
ATOM     10  N   UNL     1      -3.548  10.542  16.498  0.00  0.00    +0.000 NA
ATOM     11  C   UNL     1      -3.955  11.252  17.586  0.00  0.00    +0.000 A 
ATOM     12  C   UNL     1      -3.139  11.346  18.703  0.00  0.00    +0.000 A 
ATOM     13  N   UNL     1      -1.887  10.814  18.761  0.00  0.00    +0.000 NA
ATOM     14  H   UNL     1      -0.127   8.746  17.228  0.00  0.00    +0.000 HD
BRANCH  11  15
ATOM     15  C   UNL     1      -5.265  12.008  17.584  0.00  0.00    +0.000 C 
ATOM     16  F   UNL     1      -5.429  12.858  18.636  0.00  0.00    +0.000 F 
ATOM     17  F   UNL     1      -5.439  12.767  16.460  0.00  0.00    +0.000 F 
ATOM     18  F   UNL     1      -6.345  11.171  17.620  0.00  0.00    +0.000 F 
ENDBRANCH  11  15
ENDBRANCH   2   7
BRANCH   6  19
ATOM     19  N   UNL     1       2.563   7.961  18.374  0.00  0.00    +0.000 N 
ATOM     20  C   UNL     1       2.905   6.632  18.450  0.00  0.00    +0.000 C 
ATOM     21  O   UNL     1       2.177   5.823  19.028  0.00  0.00    +0.000 OA
ATOM     22  H   UNL     1       2.932   8.497  17.588  0.00  0.00    +0.000 HD
BRANCH  20  23
ATOM     23  C   UNL     1       4.228   6.131  17.952  0.00  0.00    +0.000 A 
ATOM     24  C   UNL     1       5.087   7.216  17.631  0.00  0.00    +0.000 A 
ATOM     25  C   UNL     1       6.429   7.032  17.333  0.00  0.00    +0.000 A 
ATOM     26  F   UNL     1       7.203   8.092  17.066  0.00  0.00    +0.000 F 
ATOM     27  C   UNL     1       6.977   5.768  17.336  0.00  0.00    +0.000 A 
ATOM     28  C   UNL     1       6.147   4.676  17.583  0.00  0.00    +0.000 A 
ATOM     29  C   UNL     1       4.758   4.829  17.865  0.00  0.00    +0.000 A 
BRANCH  29  30
ATOM     30  N   UNL     1       4.025   3.618  18.011  0.00  0.00    +0.000 N 
ATOM     31  N   UNL     1       3.039   3.287  17.121  0.00  0.00    +0.000 NA
ATOM     32  C   UNL     1       2.483   2.212  17.673  0.00  0.00    +0.000 A 
ATOM     33  C   UNL     1       3.147   1.899  18.860  0.00  0.00    +0.000 A 
ATOM     34  N   UNL     1       4.135   2.781  19.076  0.00  0.00    +0.000 NA
ENDBRANCH  29  30
ENDBRANCH  20  23
ENDBRANCH   6  19
TORSDOF 5
ENDMDL
MODEL 3
REMARK VINA RESULT:      -7.6      4.304      9.272
REMARK  Name = 
REMARK  6 active torsions:
REMARK  status: ('A' for Active; 'I' for Inactive)
REMARK    1  A    between atoms: C_1  and  C_2
REMARK    2  A    between atoms: C_2  and  N_3
REMARK    3  A    between atoms: C_7  and  C_8
REMARK    4  A    between atoms: C_17  and  N_18
REMARK    5  A    between atoms: C_19  and  C_21
REMARK    6  A    between atoms: C_27  and  N_28
REMARK                            x       y       z     vdW  Elec       q    Type
REMARK                         _______ _______ _______ _____ _____    ______ ____
ROOT
ATOM      1  C   UNL     1       3.578   5.013  20.355  0.00  0.00    +0.000 C 
ATOM      2  C   UNL     1       2.323   5.352  19.533  0.00  0.00    +0.000 C 
ATOM      3  C   UNL     1       1.025   4.927  20.243  0.00  0.00    +0.000 C 
ATOM      4  C   UNL     1       0.868   3.439  19.972  0.00  0.00    +0.000 C 
ATOM      5  C   UNL     1       1.564   3.174  18.651  0.00  0.00    +0.000 C 
ATOM      6  C   UNL     1       2.269   4.478  18.224  0.00  0.00    +0.000 C 
ENDROOT
BRANCH   2   7
ATOM      7  N   UNL     1       2.290   6.786  19.158  0.00  0.00    +0.000 N 
ATOM      8  C   UNL     1       1.498   7.703  19.863  0.00  0.00    +0.000 A 
ATOM      9  C   UNL     1       1.526   9.053  19.498  0.00  0.00    +0.000 A 
ATOM     10  N   UNL     1       0.918  10.052  20.192  0.00  0.00    +0.000 NA
ATOM     11  C   UNL     1       0.249   9.667  21.314  0.00  0.00    +0.000 A 
ATOM     12  C   UNL     1       0.163   8.324  21.648  0.00  0.00    +0.000 A 
ATOM     13  N   UNL     1       0.781   7.337  20.943  0.00  0.00    +0.000 NA
ATOM     14  H   UNL     1       2.122   6.908  18.160  0.00  0.00    +0.000 HD
BRANCH  11  15
ATOM     15  C   UNL     1      -0.356  10.684  22.255  0.00  0.00    +0.000 C 
ATOM     16  F   UNL     1      -1.655  10.999  21.989  0.00  0.00    +0.000 F 
ATOM     17  F   UNL     1      -0.332  10.280  23.561  0.00  0.00    +0.000 F 
ATOM     18  F   UNL     1       0.318  11.872  22.236  0.00  0.00    +0.000 F 
ENDBRANCH  11  15
ENDBRANCH   2   7
BRANCH   6  19
ATOM     19  N   UNL     1       3.546   4.189  17.561  0.00  0.00    +0.000 N 
ATOM     20  C   UNL     1       4.192   5.180  16.861  0.00  0.00    +0.000 C 
ATOM     21  O   UNL     1       3.779   6.340  16.880  0.00  0.00    +0.000 OA
ATOM     22  H   UNL     1       4.100   3.385  17.857  0.00  0.00    +0.000 HD
BRANCH  20  23
ATOM     23  C   UNL     1       5.341   4.875  15.947  0.00  0.00    +0.000 A 
ATOM     24  C   UNL     1       4.892   4.193  14.785  0.00  0.00    +0.000 A 
ATOM     25  C   UNL     1       5.719   3.967  13.695  0.00  0.00    +0.000 A 
ATOM     26  F   UNL     1       5.236   3.344  12.612  0.00  0.00    +0.000 F 
ATOM     27  C   UNL     1       7.025   4.401  13.709  0.00  0.00    +0.000 A 
ATOM     28  C   UNL     1       7.516   5.017  14.859  0.00  0.00    +0.000 A 
ATOM     29  C   UNL     1       6.701   5.239  16.006  0.00  0.00    +0.000 A 
BRANCH  29  30
ATOM     30  N   UNL     1       7.366   5.801  17.132  0.00  0.00    +0.000 N 
ATOM     31  N   UNL     1       7.563   5.061  18.267  0.00  0.00    +0.000 NA
ATOM     32  C   UNL     1       8.040   5.954  19.130  0.00  0.00    +0.000 A 
ATOM     33  C   UNL     1       8.145   7.198  18.507  0.00  0.00    +0.000 A 
ATOM     34  N   UNL     1       7.729   7.106  17.234  0.00  0.00    +0.000 NA
ENDBRANCH  29  30
ENDBRANCH  20  23
ENDBRANCH   6  19
TORSDOF 5
ENDMDL
MODEL 4
REMARK VINA RESULT:      -7.6      3.827      8.997
REMARK  Name = 
REMARK  6 active torsions:
REMARK  status: ('A' for Active; 'I' for Inactive)
REMARK    1  A    between atoms: C_1  and  C_2
REMARK    2  A    between atoms: C_2  and  N_3
REMARK    3  A    between atoms: C_7  and  C_8
REMARK    4  A    between atoms: C_17  and  N_18
REMARK    5  A    between atoms: C_19  and  C_21
REMARK    6  A    between atoms: C_27  and  N_28
REMARK                            x       y       z     vdW  Elec       q    Type
REMARK                         _______ _______ _______ _____ _____    ______ ____
ROOT
ATOM      1  C   UNL     1      -0.222   9.489  18.081  0.00  0.00    +0.000 C 
ATOM      2  C   UNL     1       0.860   9.945  19.073  0.00  0.00    +0.000 C 
ATOM      3  C   UNL     1       1.176  11.447  18.945  0.00  0.00    +0.000 C 
ATOM      4  C   UNL     1       2.127  11.574  17.764  0.00  0.00    +0.000 C 
ATOM      5  C   UNL     1       2.874  10.257  17.679  0.00  0.00    +0.000 C 
ATOM      6  C   UNL     1       2.248   9.296  18.712  0.00  0.00    +0.000 C 
ENDROOT
BRANCH   2   7
ATOM      7  N   UNL     1       0.506   9.585  20.467  0.00  0.00    +0.000 N 
ATOM      8  C   UNL     1      -0.286  10.430  21.257  0.00  0.00    +0.000 A 
ATOM      9  C   UNL     1      -0.626  10.032  22.555  0.00  0.00    +0.000 A 
ATOM     10  N   UNL     1      -1.501  10.693  23.359  0.00  0.00    +0.000 NA
ATOM     11  C   UNL     1      -2.063  11.812  22.823  0.00  0.00    +0.000 A 
ATOM     12  C   UNL     1      -1.683  12.248  21.563  0.00  0.00    +0.000 A 
ATOM     13  N   UNL     1      -0.808  11.572  20.770  0.00  0.00    +0.000 NA
ATOM     14  H   UNL     1       1.329   9.312  21.003  0.00  0.00    +0.000 HD
BRANCH  11  15
ATOM     15  C   UNL     1      -3.153  12.567  23.550  0.00  0.00    +0.000 C 
ATOM     16  F   UNL     1      -3.828  11.833  24.478  0.00  0.00    +0.000 F 
ATOM     17  F   UNL     1      -2.683  13.666  24.216  0.00  0.00    +0.000 F 
ATOM     18  F   UNL     1      -4.107  13.046  22.698  0.00  0.00    +0.000 F 
ENDBRANCH  11  15
ENDBRANCH   2   7
BRANCH   6  19
ATOM     19  N   UNL     1       2.229   7.921  18.201  0.00  0.00    +0.000 N 
ATOM     20  C   UNL     1       2.351   6.866  19.074  0.00  0.00    +0.000 C 
ATOM     21  O   UNL     1       2.355   7.051  20.292  0.00  0.00    +0.000 OA
ATOM     22  H   UNL     1       1.830   7.726  17.282  0.00  0.00    +0.000 HD
BRANCH  20  23
ATOM     23  C   UNL     1       2.612   5.471  18.591  0.00  0.00    +0.000 A 
ATOM     24  C   UNL     1       1.501   4.630  18.862  0.00  0.00    +0.000 A 
ATOM     25  C   UNL     1       1.404   3.345  18.348  0.00  0.00    +0.000 A 
ATOM     26  F   UNL     1       0.320   2.603  18.611  0.00  0.00    +0.000 F 
ATOM     27  C   UNL     1       2.403   2.837  17.548  0.00  0.00    +0.000 A 
ATOM     28  C   UNL     1       3.537   3.613  17.315  0.00  0.00    +0.000 A 
ATOM     29  C   UNL     1       3.680   4.925  17.851  0.00  0.00    +0.000 A 
BRANCH  29  30
ATOM     30  N   UNL     1       4.928   5.559  17.597  0.00  0.00    +0.000 N 
ATOM     31  N   UNL     1       6.081   5.085  18.165  0.00  0.00    +0.000 NA
ATOM     32  C   UNL     1       6.978   6.014  17.846  0.00  0.00    +0.000 A 
ATOM     33  C   UNL     1       6.369   7.010  17.082  0.00  0.00    +0.000 A 
ATOM     34  N   UNL     1       5.070   6.722  16.909  0.00  0.00    +0.000 NA
ENDBRANCH  29  30
ENDBRANCH  20  23
ENDBRANCH   6  19
TORSDOF 5
ENDMDL
MODEL 5
REMARK VINA RESULT:      -7.4      4.226      9.070
REMARK  Name = 
REMARK  6 active torsions:
REMARK  status: ('A' for Active; 'I' for Inactive)
REMARK    1  A    between atoms: C_1  and  C_2
REMARK    2  A    between atoms: C_2  and  N_3
REMARK    3  A    between atoms: C_7  and  C_8
REMARK    4  A    between atoms: C_17  and  N_18
REMARK    5  A    between atoms: C_19  and  C_21
REMARK    6  A    between atoms: C_27  and  N_28
REMARK                            x       y       z     vdW  Elec       q    Type
REMARK                         _______ _______ _______ _____ _____    ______ ____
ROOT
ATOM      1  C   UNL     1      -0.523   9.652  20.986  0.00  0.00    +0.000 C 
ATOM      2  C   UNL     1       0.222  10.544  19.979  0.00  0.00    +0.000 C 
ATOM      3  C   UNL     1      -0.738  11.269  19.018  0.00  0.00    +0.000 C 
ATOM      4  C   UNL     1      -1.096  10.257  17.941  0.00  0.00    +0.000 C 
ATOM      5  C   UNL     1       0.081   9.304  17.847  0.00  0.00    +0.000 C 
ATOM      6  C   UNL     1       1.064   9.663  18.981  0.00  0.00    +0.000 C 
ENDROOT
BRANCH   2   7
ATOM      7  N   UNL     1       1.126  11.498  20.663  0.00  0.00    +0.000 N 
ATOM      8  C   UNL     1       1.830  12.474  19.944  0.00  0.00    +0.000 A 
ATOM      9  C   UNL     1       2.644  13.378  20.636  0.00  0.00    +0.000 A 
ATOM     10  N   UNL     1       3.258  14.451  20.070  0.00  0.00    +0.000 NA
ATOM     11  C   UNL     1       3.037  14.621  18.737  0.00  0.00    +0.000 A 
ATOM     12  C   UNL     1       2.284  13.694  18.032  0.00  0.00    +0.000 A 
ATOM     13  N   UNL     1       1.673  12.627  18.616  0.00  0.00    +0.000 NA
ATOM     14  H   UNL     1       1.775  11.018  21.286  0.00  0.00    +0.000 HD
BRANCH  11  15
ATOM     15  C   UNL     1       3.543  15.844  18.007  0.00  0.00    +0.000 C 
ATOM     16  F   UNL     1       2.849  16.987  18.269  0.00  0.00    +0.000 F 
ATOM     17  F   UNL     1       4.850  16.129  18.292  0.00  0.00    +0.000 F 
ATOM     18  F   UNL     1       3.498  15.693  16.650  0.00  0.00    +0.000 F 
ENDBRANCH  11  15
ENDBRANCH   2   7
BRANCH   6  19
ATOM     19  N   UNL     1       1.695   8.456  19.526  0.00  0.00    +0.000 N 
ATOM     20  C   UNL     1       2.486   7.674  18.718  0.00  0.00    +0.000 C 
ATOM     21  O   UNL     1       2.772   8.033  17.575  0.00  0.00    +0.000 OA
ATOM     22  H   UNL     1       1.811   8.355  20.535  0.00  0.00    +0.000 HD
BRANCH  20  23
ATOM     23  C   UNL     1       2.926   6.303  19.137  0.00  0.00    +0.000 A 
ATOM     24  C   UNL     1       2.049   5.774  20.122  0.00  0.00    +0.000 A 
ATOM     25  C   UNL     1       2.116   4.452  20.537  0.00  0.00    +0.000 A 
ATOM     26  F   UNL     1       1.246   3.996  21.448  0.00  0.00    +0.000 F 
ATOM     27  C   UNL     1       3.055   3.600  20.001  0.00  0.00    +0.000 A 
ATOM     28  C   UNL     1       3.972   4.104  19.080  0.00  0.00    +0.000 A 
ATOM     29  C   UNL     1       3.948   5.463  18.653  0.00  0.00    +0.000 A 
BRANCH  29  30
ATOM     30  N   UNL     1       4.999   5.850  17.775  0.00  0.00    +0.000 N 
ATOM     31  N   UNL     1       4.892   5.644  16.425  0.00  0.00    +0.000 NA
ATOM     32  C   UNL     1       6.103   5.961  15.976  0.00  0.00    +0.000 A 
ATOM     33  C   UNL     1       6.906   6.370  17.042  0.00  0.00    +0.000 A 
ATOM     34  N   UNL     1       6.208   6.313  18.186  0.00  0.00    +0.000 NA
ENDBRANCH  29  30
ENDBRANCH  20  23
ENDBRANCH   6  19
TORSDOF 5
ENDMDL
MODEL 6
REMARK VINA RESULT:      -7.4      3.256      4.698
REMARK  Name = 
REMARK  6 active torsions:
REMARK  status: ('A' for Active; 'I' for Inactive)
REMARK    1  A    between atoms: C_1  and  C_2
REMARK    2  A    between atoms: C_2  and  N_3
REMARK    3  A    between atoms: C_7  and  C_8
REMARK    4  A    between atoms: C_17  and  N_18
REMARK    5  A    between atoms: C_19  and  C_21
REMARK    6  A    between atoms: C_27  and  N_28
REMARK                            x       y       z     vdW  Elec       q    Type
REMARK                         _______ _______ _______ _____ _____    ______ ____
ROOT
ATOM      1  C   UNL     1       1.639   5.522  17.931  0.00  0.00    +0.000 C 
ATOM      2  C   UNL     1       2.774   6.082  18.804  0.00  0.00    +0.000 C 
ATOM      3  C   UNL     1       3.351   5.025  19.763  0.00  0.00    +0.000 C 
ATOM      4  C   UNL     1       2.396   4.966  20.945  0.00  0.00    +0.000 C 
ATOM      5  C   UNL     1       1.754   6.337  21.040  0.00  0.00    +0.000 C 
ATOM      6  C   UNL     1       2.214   7.154  19.814  0.00  0.00    +0.000 C 
ENDROOT
BRANCH   2   7
ATOM      7  N   UNL     1       3.837   6.703  17.980  0.00  0.00    +0.000 N 
ATOM      8  C   UNL     1       4.505   5.974  16.987  0.00  0.00    +0.000 A 
ATOM      9  C   UNL     1       5.477   6.612  16.208  0.00  0.00    +0.000 A 
ATOM     10  N   UNL     1       6.085   6.054  15.127  0.00  0.00    +0.000 NA
ATOM     11  C   UNL     1       5.690   4.790  14.815  0.00  0.00    +0.000 A 
ATOM     12  C   UNL     1       4.774   4.127  15.619  0.00  0.00    +0.000 A 
ATOM     13  N   UNL     1       4.172   4.702  16.697  0.00  0.00    +0.000 NA
ATOM     14  H   UNL     1       4.530   7.178  18.559  0.00  0.00    +0.000 HD
BRANCH  11  15
ATOM     15  C   UNL     1       6.180   4.100  13.562  0.00  0.00    +0.000 C 
ATOM     16  F   UNL     1       7.201   4.740  12.926  0.00  0.00    +0.000 F 
ATOM     17  F   UNL     1       6.626   2.828  13.795  0.00  0.00    +0.000 F 
ATOM     18  F   UNL     1       5.194   3.967  12.625  0.00  0.00    +0.000 F 
ENDBRANCH  11  15
ENDBRANCH   2   7
BRANCH   6  19
ATOM     19  N   UNL     1       1.136   8.025  19.333  0.00  0.00    +0.000 N 
ATOM     20  C   UNL     1       1.443   9.179  18.652  0.00  0.00    +0.000 C 
ATOM     21  O   UNL     1       2.605   9.435  18.332  0.00  0.00    +0.000 OA
ATOM     22  H   UNL     1       0.193   7.652  19.223  0.00  0.00    +0.000 HD
BRANCH  20  23
ATOM     23  C   UNL     1       0.409  10.231  18.382  0.00  0.00    +0.000 A 
ATOM     24  C   UNL     1      -0.706   9.676  17.699  0.00  0.00    +0.000 A 
ATOM     25  C   UNL     1      -1.880  10.388  17.502  0.00  0.00    +0.000 A 
ATOM     26  F   UNL     1      -2.912   9.807  16.876  0.00  0.00    +0.000 F 
ATOM     27  C   UNL     1      -2.000  11.678  17.968  0.00  0.00    +0.000 A 
ATOM     28  C   UNL     1      -0.902  12.275  18.586  0.00  0.00    +0.000 A 
ATOM     29  C   UNL     1       0.328  11.581  18.779  0.00  0.00    +0.000 A 
BRANCH  29  30
ATOM     30  N   UNL     1       1.383  12.348  19.347  0.00  0.00    +0.000 N 
ATOM     31  N   UNL     1       1.472  12.516  20.703  0.00  0.00    +0.000 NA
ATOM     32  C   UNL     1       2.449  13.409  20.833  0.00  0.00    +0.000 A 
ATOM     33  C   UNL     1       2.945  13.746  19.573  0.00  0.00    +0.000 A 
ATOM     34  N   UNL     1       2.281  13.067  18.625  0.00  0.00    +0.000 NA
ENDBRANCH  29  30
ENDBRANCH  20  23
ENDBRANCH   6  19
TORSDOF 5
ENDMDL
MODEL 7
REMARK VINA RESULT:      -7.2      2.569      3.930
REMARK  Name = 
REMARK  6 active torsions:
REMARK  status: ('A' for Active; 'I' for Inactive)
REMARK    1  A    between atoms: C_1  and  C_2
REMARK    2  A    between atoms: C_2  and  N_3
REMARK    3  A    between atoms: C_7  and  C_8
REMARK    4  A    between atoms: C_17  and  N_18
REMARK    5  A    between atoms: C_19  and  C_21
REMARK    6  A    between atoms: C_27  and  N_28
REMARK                            x       y       z     vdW  Elec       q    Type
REMARK                         _______ _______ _______ _____ _____    ______ ____
ROOT
ATOM      1  C   UNL     1       0.085  13.262  21.558  0.00  0.00    +0.000 C 
ATOM      2  C   UNL     1       0.379  12.210  20.475  0.00  0.00    +0.000 C 
ATOM      3  C   UNL     1       1.578  12.599  19.590  0.00  0.00    +0.000 C 
ATOM      4  C   UNL     1       1.038  13.584  18.565  0.00  0.00    +0.000 C 
ATOM      5  C   UNL     1      -0.430  13.245  18.384  0.00  0.00    +0.000 C 
ATOM      6  C   UNL     1      -0.790  12.162  19.422  0.00  0.00    +0.000 C 
ENDROOT
BRANCH   2   7
ATOM      7  N   UNL     1       0.556  10.861  21.063  0.00  0.00    +0.000 N 
ATOM      8  C   UNL     1       1.041   9.793  20.296  0.00  0.00    +0.000 A 
ATOM      9  C   UNL     1       1.228   8.545  20.902  0.00  0.00    +0.000 A 
ATOM     10  N   UNL     1       1.824   7.479  20.304  0.00  0.00    +0.000 NA
ATOM     11  C   UNL     1       2.257   7.685  19.029  0.00  0.00    +0.000 A 
ATOM     12  C   UNL     1       2.019   8.898  18.399  0.00  0.00    +0.000 A 
ATOM     13  N   UNL     1       1.423   9.955  19.015  0.00  0.00    +0.000 NA
ATOM     14  H   UNL     1      -0.281  10.555  21.557  0.00  0.00    +0.000 HD
BRANCH  11  15
ATOM     15  C   UNL     1       3.057   6.634  18.293  0.00  0.00    +0.000 C 
ATOM     16  F   UNL     1       3.721   7.095  17.195  0.00  0.00    +0.000 F 
ATOM     17  F   UNL     1       4.006   6.042  19.080  0.00  0.00    +0.000 F 
ATOM     18  F   UNL     1       2.275   5.609  17.843  0.00  0.00    +0.000 F 
ENDBRANCH  11  15
ENDBRANCH   2   7
BRANCH   6  19
ATOM     19  N   UNL     1      -2.154  12.358  19.929  0.00  0.00    +0.000 N 
ATOM     20  C   UNL     1      -3.228  11.928  19.186  0.00  0.00    +0.000 C 
ATOM     21  O   UNL     1      -3.062  11.272  18.156  0.00  0.00    +0.000 OA
ATOM     22  H   UNL     1      -2.306  12.519  20.925  0.00  0.00    +0.000 HD
BRANCH  20  23
ATOM     23  C   UNL     1      -4.630  12.342  19.518  0.00  0.00    +0.000 A 
ATOM     24  C   UNL     1      -5.452  12.303  18.361  0.00  0.00    +0.000 A 
ATOM     25  C   UNL     1      -6.830  12.452  18.428  0.00  0.00    +0.000 A 
ATOM     26  F   UNL     1      -7.562  12.378  17.309  0.00  0.00    +0.000 F 
ATOM     27  C   UNL     1      -7.451  12.649  19.641  0.00  0.00    +0.000 A 
ATOM     28  C   UNL     1      -6.667  12.756  20.788  0.00  0.00    +0.000 A 
ATOM     29  C   UNL     1      -5.247  12.636  20.749  0.00  0.00    +0.000 A 
BRANCH  29  30
ATOM     30  N   UNL     1      -4.579  12.854  21.987  0.00  0.00    +0.000 N 
ATOM     31  N   UNL     1      -5.061  12.307  23.146  0.00  0.00    +0.000 NA
ATOM     32  C   UNL     1      -4.295  12.862  24.082  0.00  0.00    +0.000 A 
ATOM     33  C   UNL     1      -3.360  13.705  23.482  0.00  0.00    +0.000 A 
ATOM     34  N   UNL     1      -3.526  13.697  22.150  0.00  0.00    +0.000 NA
ENDBRANCH  29  30
ENDBRANCH  20  23
ENDBRANCH   6  19
TORSDOF 5
ENDMDL
MODEL 8
REMARK VINA RESULT:      -7.1      1.070      1.337
REMARK  Name = 
REMARK  6 active torsions:
REMARK  status: ('A' for Active; 'I' for Inactive)
REMARK    1  A    between atoms: C_1  and  C_2
REMARK    2  A    between atoms: C_2  and  N_3
REMARK    3  A    between atoms: C_7  and  C_8
REMARK    4  A    between atoms: C_17  and  N_18
REMARK    5  A    between atoms: C_19  and  C_21
REMARK    6  A    between atoms: C_27  and  N_28
REMARK                            x       y       z     vdW  Elec       q    Type
REMARK                         _______ _______ _______ _____ _____    ______ ____
ROOT
ATOM      1  C   UNL     1      -0.361   7.678  20.867  0.00  0.00    +0.000 C 
ATOM      2  C   UNL     1       0.677   8.813  20.863  0.00  0.00    +0.000 C 
ATOM      3  C   UNL     1       1.461   8.893  22.186  0.00  0.00    +0.000 C 
ATOM      4  C   UNL     1       0.563   9.641  23.159  0.00  0.00    +0.000 C 
ATOM      5  C   UNL     1      -0.313  10.548  22.316  0.00  0.00    +0.000 C 
ATOM      6  C   UNL     1      -0.040  10.215  20.834  0.00  0.00    +0.000 C 
ENDROOT
BRANCH   2   7
ATOM      7  N   UNL     1       1.589   8.711  19.700  0.00  0.00    +0.000 N 
ATOM      8  C   UNL     1       2.238   7.509  19.388  0.00  0.00    +0.000 A 
ATOM      9  C   UNL     1       3.062   7.450  18.258  0.00  0.00    +0.000 A 
ATOM     10  N   UNL     1       3.625   6.310  17.775  0.00  0.00    +0.000 NA
ATOM     11  C   UNL     1       3.340   5.173  18.467  0.00  0.00    +0.000 A 
ATOM     12  C   UNL     1       2.577   5.233  19.623  0.00  0.00    +0.000 A 
ATOM     13  N   UNL     1       2.018   6.382  20.091  0.00  0.00    +0.000 NA
ATOM     14  H   UNL     1       2.276   9.465  19.696  0.00  0.00    +0.000 HD
BRANCH  11  15
ATOM     15  C   UNL     1       3.785   3.817  17.966  0.00  0.00    +0.000 C 
ATOM     16  F   UNL     1       2.789   2.892  17.875  0.00  0.00    +0.000 F 
ATOM     17  F   UNL     1       4.356   3.872  16.724  0.00  0.00    +0.000 F 
ATOM     18  F   UNL     1       4.734   3.254  18.771  0.00  0.00    +0.000 F 
ENDBRANCH  11  15
ENDBRANCH   2   7
BRANCH   6  19
ATOM     19  N   UNL     1      -1.270  10.319  20.040  0.00  0.00    +0.000 N 
ATOM     20  C   UNL     1      -1.529  11.467  19.329  0.00  0.00    +0.000 C 
ATOM     21  O   UNL     1      -0.689  12.364  19.249  0.00  0.00    +0.000 OA
ATOM     22  H   UNL     1      -1.769   9.473  19.764  0.00  0.00    +0.000 HD
BRANCH  20  23
ATOM     23  C   UNL     1      -2.878  11.734  18.732  0.00  0.00    +0.000 A 
ATOM     24  C   UNL     1      -2.918  11.315  17.376  0.00  0.00    +0.000 A 
ATOM     25  C   UNL     1      -4.100  11.271  16.651  0.00  0.00    +0.000 A 
ATOM     26  F   UNL     1      -4.088  10.839  15.383  0.00  0.00    +0.000 F 
ATOM     27  C   UNL     1      -5.291  11.643  17.235  0.00  0.00    +0.000 A 
ATOM     28  C   UNL     1      -5.276  12.120  18.545  0.00  0.00    +0.000 A 
ATOM     29  C   UNL     1      -4.075  12.204  19.307  0.00  0.00    +0.000 A 
BRANCH  29  30
ATOM     30  N   UNL     1      -4.207  12.791  20.597  0.00  0.00    +0.000 N 
ATOM     31  N   UNL     1      -3.385  13.815  20.985  0.00  0.00    +0.000 NA
ATOM     32  C   UNL     1      -3.685  13.970  22.272  0.00  0.00    +0.000 A 
ATOM     33  C   UNL     1      -4.685  13.067  22.632  0.00  0.00    +0.000 A 
ATOM     34  N   UNL     1      -5.030  12.321  21.570  0.00  0.00    +0.000 NA
ENDBRANCH  29  30
ENDBRANCH  20  23
ENDBRANCH   6  19
TORSDOF 5
ENDMDL
MODEL 9
REMARK VINA RESULT:      -7.1      3.682      9.107
REMARK  Name = 
REMARK  6 active torsions:
REMARK  status: ('A' for Active; 'I' for Inactive)
REMARK    1  A    between atoms: C_1  and  C_2
REMARK    2  A    between atoms: C_2  and  N_3
REMARK    3  A    between atoms: C_7  and  C_8
REMARK    4  A    between atoms: C_17  and  N_18
REMARK    5  A    between atoms: C_19  and  C_21
REMARK    6  A    between atoms: C_27  and  N_28
REMARK                            x       y       z     vdW  Elec       q    Type
REMARK                         _______ _______ _______ _____ _____    ______ ____
ROOT
ATOM      1  C   UNL     1      -0.608   9.734  18.562  0.00  0.00    +0.000 C 
ATOM      2  C   UNL     1       0.461  10.410  19.437  0.00  0.00    +0.000 C 
ATOM      3  C   UNL     1       0.713  11.873  19.027  0.00  0.00    +0.000 C 
ATOM      4  C   UNL     1       1.649  11.816  17.830  0.00  0.00    +0.000 C 
ATOM      5  C   UNL     1       2.451  10.536  17.980  0.00  0.00    +0.000 C 
ATOM      6  C   UNL     1       1.872   9.761  19.182  0.00  0.00    +0.000 C 
ENDROOT
BRANCH   2   7
ATOM      7  N   UNL     1       0.131  10.302  20.877  0.00  0.00    +0.000 N 
ATOM      8  C   UNL     1      -0.852  11.112  21.461  0.00  0.00    +0.000 A 
ATOM      9  C   UNL     1      -1.156  10.949  22.817  0.00  0.00    +0.000 A 
ATOM     10  N   UNL     1      -2.183  11.570  23.456  0.00  0.00    +0.000 NA
ATOM     11  C   UNL     1      -2.944  12.395  22.685  0.00  0.00    +0.000 A 
ATOM     12  C   UNL     1      -2.611  12.611  21.357  0.00  0.00    +0.000 A 
ATOM     13  N   UNL     1      -1.581  11.978  20.731  0.00  0.00    +0.000 NA
ATOM     14  H   UNL     1       0.970  10.337  21.456  0.00  0.00    +0.000 HD
BRANCH  11  15
ATOM     15  C   UNL     1      -4.198  13.043  23.230  0.00  0.00    +0.000 C 
ATOM     16  F   UNL     1      -5.299  12.895  22.441  0.00  0.00    +0.000 F 
ATOM     17  F   UNL     1      -4.553  12.561  24.459  0.00  0.00    +0.000 F 
ATOM     18  F   UNL     1      -4.051  14.390  23.402  0.00  0.00    +0.000 F 
ENDBRANCH  11  15
ENDBRANCH   2   7
BRANCH   6  19
ATOM     19  N   UNL     1       1.908   8.315  18.936  0.00  0.00    +0.000 N 
ATOM     20  C   UNL     1       2.027   7.444  19.993  0.00  0.00    +0.000 C 
ATOM     21  O   UNL     1       1.982   7.852  21.155  0.00  0.00    +0.000 OA
ATOM     22  H   UNL     1       1.547   7.940  18.058  0.00  0.00    +0.000 HD
BRANCH  20  23
ATOM     23  C   UNL     1       2.341   5.993  19.786  0.00  0.00    +0.000 A 
ATOM     24  C   UNL     1       1.427   5.175  20.501  0.00  0.00    +0.000 A 
ATOM     25  C   UNL     1       1.375   3.799  20.327  0.00  0.00    +0.000 A 
ATOM     26  F   UNL     1       0.474   3.077  21.006  0.00  0.00    +0.000 F 
ATOM     27  C   UNL     1       2.227   3.176  19.443  0.00  0.00    +0.000 A 
ATOM     28  C   UNL     1       3.178   3.942  18.773  0.00  0.00    +0.000 A 
ATOM     29  C   UNL     1       3.277   5.353  18.950  0.00  0.00    +0.000 A 
BRANCH  29  30
ATOM     30  N   UNL     1       4.352   5.984  18.264  0.00  0.00    +0.000 N 
ATOM     31  N   UNL     1       4.109   6.837  17.221  0.00  0.00    +0.000 NA
ATOM     32  C   UNL     1       5.326   7.078  16.740  0.00  0.00    +0.000 A 
ATOM     33  C   UNL     1       6.274   6.396  17.503  0.00  0.00    +0.000 A 
ATOM     34  N   UNL     1       5.665   5.708  18.480  0.00  0.00    +0.000 NA
ENDBRANCH  29  30
ENDBRANCH  20  23
ENDBRANCH   6  19
TORSDOF 5
ENDMDL
