MODEL 1
REMARK VINA RESULT:      -8.1      0.000      0.000
REMARK  Name = 
REMARK  9 active torsions:
REMARK  status: ('A' for Active; 'I' for Inactive)
REMARK    1  A    between atoms: C_1  and  C_2
REMARK    2  A    between atoms: C_2  and  C_3
REMARK    3  A    between atoms: C_3  and  C_4
REMARK    4  A    between atoms: C_4  and  C_5
REMARK    5  A    between atoms: C_5  and  C_7
REMARK    6  A    between atoms: C_11  and  C_12
REMARK    7  A    between atoms: C_13  and  C_14
REMARK    8  A    between atoms: C_14  and  O_16
REMARK    9  A    between atoms: C_19  and  C_20
REMARK                            x       y       z     vdW  Elec       q    Type
REMARK                         _______ _______ _______ _____ _____    ______ ____
ROOT
ATOM      1  C   UNL     1       3.922   5.818  17.715  0.00  0.00    +0.000 A 
ATOM      2  N   UNL     1       3.609   7.099  17.284  0.00  0.00    +0.000 N 
ATOM      3  C   UNL     1       2.797   7.742  18.181  0.00  0.00    +0.000 A 
ATOM      4  C   UNL     1       2.200   9.028  18.130  0.00  0.00    +0.000 A 
ATOM      5  C   UNL     1       1.372   9.466  19.204  0.00  0.00    +0.000 A 
ATOM      6  C   UNL     1       0.716  10.808  19.067  0.00  0.00    +0.000 C 
ATOM      7  C   UNL     1       1.167   8.620  20.301  0.00  0.00    +0.000 A 
ATOM      8  C   UNL     1       1.770   7.358  20.272  0.00  0.00    +0.000 A 
ATOM      9  C   UNL     1       2.606   6.877  19.240  0.00  0.00    +0.000 A 
ATOM     10  C   UNL     1       3.330   5.653  18.971  0.00  0.00    +0.000 A 
ATOM     11  H   UNL     1       3.907   7.508  16.415  0.00  0.00    +0.000 HD
ENDROOT
BRANCH  10  12
ATOM     12  C   UNL     1       3.453   4.392  19.833  0.00  0.00    +0.000 C 
ATOM     13  C   UNL     1       2.491   4.304  21.019  0.00  0.00    +0.000 C 
ATOM     14  C   UNL     1       1.080   3.892  20.642  0.00  0.00    +0.000 C 
ATOM     15  C   UNL     1       1.031   2.697  19.678  0.00  0.00    +0.000 C 
ATOM     16  C   UNL     1       2.104   2.627  18.580  0.00  0.00    +0.000 C 
ATOM     17  C   UNL     1       3.480   3.072  19.049  0.00  0.00    +0.000 C 
ENDBRANCH  10  12
BRANCH   1  18
ATOM     18  C   UNL     1       4.730   4.851  16.946  0.00  0.00    +0.000 C 
ATOM     19  O   UNL     1       4.277   4.148  16.038  0.00  0.00    +0.000 OA
BRANCH  18  20
ATOM     20  C   UNL     1       6.205   4.697  17.334  0.00  0.00    +0.000 C 
BRANCH  20  21
ATOM     21  C   UNL     1       7.037   5.894  16.872  0.00  0.00    +0.000 C 
BRANCH  21  23
ATOM     22  C   UNL     1       7.856   5.834  19.254  0.00  0.00    +0.000 C 
ATOM     23  C   UNL     1       7.581   6.714  18.047  0.00  0.00    +0.000 C 
ENDBRANCH  21  23
ENDBRANCH  20  21
ENDBRANCH  18  20
ENDBRANCH   1  18
BRANCH   7  24
ATOM     24  C   UNL     1       0.309   8.826  21.522  0.00  0.00    +0.000 C 
ATOM     25  O   UNL     1      -0.713   8.179  21.698  0.00  0.00    +0.000 OA
BRANCH  24  26
ATOM     26  O   UNL     1       0.745   9.679  22.463  0.00  0.00    +0.000 OA
ATOM     27  H   UNL     1       0.091  10.007  23.095  0.00  0.00    +0.000 HD
ENDBRANCH  24  26
ENDBRANCH   7  24
TORSDOF 7
ENDMDL
MODEL 2
REMARK VINA RESULT:      -7.7      0.988      1.531
REMARK  Name = 
REMARK  9 active torsions:
REMARK  status: ('A' for Active; 'I' for Inactive)
REMARK    1  A    between atoms: C_1  and  C_2
REMARK    2  A    between atoms: C_2  and  C_3
REMARK    3  A    between atoms: C_3  and  C_4
REMARK    4  A    between atoms: C_4  and  C_5
REMARK    5  A    between atoms: C_5  and  C_7
REMARK    6  A    between atoms: C_11  and  C_12
REMARK    7  A    between atoms: C_13  and  C_14
REMARK    8  A    between atoms: C_14  and  O_16
REMARK    9  A    between atoms: C_19  and  C_20
REMARK                            x       y       z     vdW  Elec       q    Type
REMARK                         _______ _______ _______ _____ _____    ______ ____
ROOT
ATOM      1  C   UNL     1       3.761   6.036  17.738  0.00  0.00    +0.000 A 
ATOM      2  N   UNL     1       3.405   7.314  17.329  0.00  0.00    +0.000 N 
ATOM      3  C   UNL     1       2.609   7.931  18.257  0.00  0.00    +0.000 A 
ATOM      4  C   UNL     1       1.983   9.204  18.237  0.00  0.00    +0.000 A 
ATOM      5  C   UNL     1       1.182   9.615  19.342  0.00  0.00    +0.000 A 
ATOM      6  C   UNL     1       0.492  10.943  19.238  0.00  0.00    +0.000 C 
ATOM      7  C   UNL     1       1.032   8.756  20.438  0.00  0.00    +0.000 A 
ATOM      8  C   UNL     1       1.661   7.508  20.378  0.00  0.00    +0.000 A 
ATOM      9  C   UNL     1       2.472   7.054  19.314  0.00  0.00    +0.000 A 
ATOM     10  C   UNL     1       3.215   5.849  19.011  0.00  0.00    +0.000 A 
ATOM     11  H   UNL     1       3.665   7.736  16.454  0.00  0.00    +0.000 HD
ENDROOT
BRANCH  10  12
ATOM     12  C   UNL     1       3.394   4.583  19.858  0.00  0.00    +0.000 C 
ATOM     13  C   UNL     1       2.445   4.445  21.050  0.00  0.00    +0.000 C 
ATOM     14  C   UNL     1       1.049   3.982  20.678  0.00  0.00    +0.000 C 
ATOM     15  C   UNL     1       1.039   2.796  19.701  0.00  0.00    +0.000 C 
ATOM     16  C   UNL     1       2.106   2.781  18.594  0.00  0.00    +0.000 C 
ATOM     17  C   UNL     1       3.467   3.275  19.059  0.00  0.00    +0.000 C 
ENDBRANCH  10  12
BRANCH   1  18
ATOM     18  C   UNL     1       4.564   5.094  16.935  0.00  0.00    +0.000 C 
ATOM     19  O   UNL     1       4.077   4.192  16.247  0.00  0.00    +0.000 OA
BRANCH  18  20
ATOM     20  C   UNL     1       6.089   5.233  16.999  0.00  0.00    +0.000 C 
BRANCH  20  21
ATOM     21  C   UNL     1       6.784   4.256  16.050  0.00  0.00    +0.000 C 
BRANCH  21  23
ATOM     22  C   UNL     1       6.297   3.933  13.599  0.00  0.00    +0.000 C 
ATOM     23  C   UNL     1       6.947   4.830  14.638  0.00  0.00    +0.000 C 
ENDBRANCH  21  23
ENDBRANCH  20  21
ENDBRANCH  18  20
ENDBRANCH   1  18
BRANCH   7  24
ATOM     24  C   UNL     1       0.210   8.933  21.688  0.00  0.00    +0.000 C 
ATOM     25  O   UNL     1      -0.790   8.260  21.893  0.00  0.00    +0.000 OA
BRANCH  24  26
ATOM     26  O   UNL     1       0.657   9.789  22.620  0.00  0.00    +0.000 OA
ATOM     27  H   UNL     1       0.235   9.752  23.489  0.00  0.00    +0.000 HD
ENDBRANCH  24  26
ENDBRANCH   7  24
TORSDOF 7
ENDMDL
MODEL 3
REMARK VINA RESULT:      -7.5      1.365      2.063
REMARK  Name = 
REMARK  9 active torsions:
REMARK  status: ('A' for Active; 'I' for Inactive)
REMARK    1  A    between atoms: C_1  and  C_2
REMARK    2  A    between atoms: C_2  and  C_3
REMARK    3  A    between atoms: C_3  and  C_4
REMARK    4  A    between atoms: C_4  and  C_5
REMARK    5  A    between atoms: C_5  and  C_7
REMARK    6  A    between atoms: C_11  and  C_12
REMARK    7  A    between atoms: C_13  and  C_14
REMARK    8  A    between atoms: C_14  and  O_16
REMARK    9  A    between atoms: C_19  and  C_20
REMARK                            x       y       z     vdW  Elec       q    Type
REMARK                         _______ _______ _______ _____ _____    ______ ____
ROOT
ATOM      1  C   UNL     1       4.154   5.841  17.965  0.00  0.00    +0.000 A 
ATOM      2  N   UNL     1       3.865   7.097  17.451  0.00  0.00    +0.000 N 
ATOM      3  C   UNL     1       2.949   7.756  18.227  0.00  0.00    +0.000 A 
ATOM      4  C   UNL     1       2.338   9.025  18.059  0.00  0.00    +0.000 A 
ATOM      5  C   UNL     1       1.391   9.486  19.019  0.00  0.00    +0.000 A 
ATOM      6  C   UNL     1       0.729  10.806  18.758  0.00  0.00    +0.000 C 
ATOM      7  C   UNL     1       1.083   8.679  20.122  0.00  0.00    +0.000 A 
ATOM      8  C   UNL     1       1.709   7.430  20.210  0.00  0.00    +0.000 A 
ATOM      9  C   UNL     1       2.660   6.929  19.294  0.00  0.00    +0.000 A 
ATOM     10  C   UNL     1       3.432   5.712  19.155  0.00  0.00    +0.000 A 
ATOM     11  H   UNL     1       4.249   7.479  16.602  0.00  0.00    +0.000 HD
ENDROOT
BRANCH  10  12
ATOM     12  C   UNL     1       3.483   4.488  20.077  0.00  0.00    +0.000 C 
ATOM     13  C   UNL     1       2.370   4.399  21.122  0.00  0.00    +0.000 C 
ATOM     14  C   UNL     1       1.043   3.913  20.573  0.00  0.00    +0.000 C 
ATOM     15  C   UNL     1       1.174   2.684  19.660  0.00  0.00    +0.000 C 
ATOM     16  C   UNL     1       2.391   2.623  18.723  0.00  0.00    +0.000 C 
ATOM     17  C   UNL     1       3.670   3.145  19.358  0.00  0.00    +0.000 C 
ENDBRANCH  10  12
BRANCH   1  18
ATOM     18  C   UNL     1       5.058   4.864  17.328  0.00  0.00    +0.000 C 
ATOM     19  O   UNL     1       6.121   4.486  17.830  0.00  0.00    +0.000 OA
BRANCH  18  20
ATOM     20  C   UNL     1       4.658   4.326  15.950  0.00  0.00    +0.000 C 
BRANCH  20  21
ATOM     21  C   UNL     1       5.480   4.971  14.834  0.00  0.00    +0.000 C 
BRANCH  21  23
ATOM     22  C   UNL     1       5.736   3.535  12.779  0.00  0.00    +0.000 C 
ATOM     23  C   UNL     1       6.362   3.955  14.098  0.00  0.00    +0.000 C 
ENDBRANCH  21  23
ENDBRANCH  20  21
ENDBRANCH  18  20
ENDBRANCH   1  18
BRANCH   7  24
ATOM     24  C   UNL     1       0.094   8.912  21.234  0.00  0.00    +0.000 C 
ATOM     25  O   UNL     1       0.036   9.984  21.820  0.00  0.00    +0.000 OA
BRANCH  24  26
ATOM     26  O   UNL     1      -0.790   7.939  21.505  0.00  0.00    +0.000 OA
ATOM     27  H   UNL     1      -0.444   7.040  21.578  0.00  0.00    +0.000 HD
ENDBRANCH  24  26
ENDBRANCH   7  24
TORSDOF 7
ENDMDL
MODEL 4
REMARK VINA RESULT:      -7.4      2.223      6.249
REMARK  Name = 
REMARK  9 active torsions:
REMARK  status: ('A' for Active; 'I' for Inactive)
REMARK    1  A    between atoms: C_1  and  C_2
REMARK    2  A    between atoms: C_2  and  C_3
REMARK    3  A    between atoms: C_3  and  C_4
REMARK    4  A    between atoms: C_4  and  C_5
REMARK    5  A    between atoms: C_5  and  C_7
REMARK    6  A    between atoms: C_11  and  C_12
REMARK    7  A    between atoms: C_13  and  C_14
REMARK    8  A    between atoms: C_14  and  O_16
REMARK    9  A    between atoms: C_19  and  C_20
REMARK                            x       y       z     vdW  Elec       q    Type
REMARK                         _______ _______ _______ _____ _____    ______ ____
ROOT
ATOM      1  C   UNL     1       2.703   7.457  18.433  0.00  0.00    +0.000 A 
ATOM      2  N   UNL     1       1.976   6.892  19.471  0.00  0.00    +0.000 N 
ATOM      3  C   UNL     1       2.421   5.630  19.763  0.00  0.00    +0.000 A 
ATOM      4  C   UNL     1       1.950   4.679  20.704  0.00  0.00    +0.000 A 
ATOM      5  C   UNL     1       2.589   3.409  20.806  0.00  0.00    +0.000 A 
ATOM      6  C   UNL     1       2.009   2.420  21.773  0.00  0.00    +0.000 C 
ATOM      7  C   UNL     1       3.683   3.123  19.980  0.00  0.00    +0.000 A 
ATOM      8  C   UNL     1       4.078   4.102  19.060  0.00  0.00    +0.000 A 
ATOM      9  C   UNL     1       3.487   5.377  18.923  0.00  0.00    +0.000 A 
ATOM     10  C   UNL     1       3.694   6.536  18.081  0.00  0.00    +0.000 A 
ATOM     11  H   UNL     1       1.201   7.329  19.941  0.00  0.00    +0.000 HD
ENDROOT
BRANCH  10  12
ATOM     12  C   UNL     1       4.753   6.768  16.997  0.00  0.00    +0.000 C 
ATOM     13  C   UNL     1       6.129   7.208  17.498  0.00  0.00    +0.000 C 
ATOM     14  C   UNL     1       6.973   6.080  18.061  0.00  0.00    +0.000 C 
ATOM     15  C   UNL     1       6.976   4.822  17.178  0.00  0.00    +0.000 C 
ATOM     16  C   UNL     1       5.660   4.441  16.482  0.00  0.00    +0.000 C 
ATOM     17  C   UNL     1       4.880   5.638  15.965  0.00  0.00    +0.000 C 
ENDBRANCH  10  12
BRANCH   1  18
ATOM     18  C   UNL     1       2.431   8.783  17.846  0.00  0.00    +0.000 C 
ATOM     19  O   UNL     1       3.304   9.512  17.365  0.00  0.00    +0.000 OA
BRANCH  18  20
ATOM     20  C   UNL     1       0.984   9.285  17.876  0.00  0.00    +0.000 C 
BRANCH  20  21
ATOM     21  C   UNL     1       0.777  10.345  18.958  0.00  0.00    +0.000 C 
BRANCH  21  23
ATOM     22  C   UNL     1      -0.037   9.393  21.144  0.00  0.00    +0.000 C 
ATOM     23  C   UNL     1      -0.443  10.051  19.837  0.00  0.00    +0.000 C 
ENDBRANCH  21  23
ENDBRANCH  20  21
ENDBRANCH  18  20
ENDBRANCH   1  18
BRANCH   7  24
ATOM     24  C   UNL     1       4.488   1.856  19.861  0.00  0.00    +0.000 C 
ATOM     25  O   UNL     1       5.283   1.523  20.729  0.00  0.00    +0.000 OA
BRANCH  24  26
ATOM     26  O   UNL     1       4.244   1.050  18.815  0.00  0.00    +0.000 OA
ATOM     27  H   UNL     1       4.960   0.932  18.176  0.00  0.00    +0.000 HD
ENDBRANCH  24  26
ENDBRANCH   7  24
TORSDOF 7
ENDMDL
MODEL 5
REMARK VINA RESULT:      -7.4      2.015      4.560
REMARK  Name = 
REMARK  9 active torsions:
REMARK  status: ('A' for Active; 'I' for Inactive)
REMARK    1  A    between atoms: C_1  and  C_2
REMARK    2  A    between atoms: C_2  and  C_3
REMARK    3  A    between atoms: C_3  and  C_4
REMARK    4  A    between atoms: C_4  and  C_5
REMARK    5  A    between atoms: C_5  and  C_7
REMARK    6  A    between atoms: C_11  and  C_12
REMARK    7  A    between atoms: C_13  and  C_14
REMARK    8  A    between atoms: C_14  and  O_16
REMARK    9  A    between atoms: C_19  and  C_20
REMARK                            x       y       z     vdW  Elec       q    Type
REMARK                         _______ _______ _______ _____ _____    ______ ____
ROOT
ATOM      1  C   UNL     1       3.613   4.412  19.248  0.00  0.00    +0.000 A 
ATOM      2  N   UNL     1       2.766   4.899  20.233  0.00  0.00    +0.000 N 
ATOM      3  C   UNL     1       2.344   6.170  19.946  0.00  0.00    +0.000 A 
ATOM      4  C   UNL     1       1.521   7.059  20.683  0.00  0.00    +0.000 A 
ATOM      5  C   UNL     1       1.236   8.355  20.162  0.00  0.00    +0.000 A 
ATOM      6  C   UNL     1       0.413   9.276  21.013  0.00  0.00    +0.000 C 
ATOM      7  C   UNL     1       1.769   8.729  18.922  0.00  0.00    +0.000 A 
ATOM      8  C   UNL     1       2.591   7.807  18.262  0.00  0.00    +0.000 A 
ATOM      9  C   UNL     1       2.898   6.509  18.727  0.00  0.00    +0.000 A 
ATOM     10  C   UNL     1       3.693   5.395  18.257  0.00  0.00    +0.000 A 
ATOM     11  H   UNL     1       2.507   4.406  21.071  0.00  0.00    +0.000 HD
ENDROOT
BRANCH  10  12
ATOM     12  C   UNL     1       4.498   5.260  16.959  0.00  0.00    +0.000 C 
ATOM     13  C   UNL     1       4.872   6.575  16.272  0.00  0.00    +0.000 C 
ATOM     14  C   UNL     1       6.047   7.293  16.909  0.00  0.00    +0.000 C 
ATOM     15  C   UNL     1       7.231   6.365  17.223  0.00  0.00    +0.000 C 
ATOM     16  C   UNL     1       6.909   4.951  17.731  0.00  0.00    +0.000 C 
ATOM     17  C   UNL     1       5.709   4.320  17.043  0.00  0.00    +0.000 C 
ENDBRANCH  10  12
BRANCH   1  18
ATOM     18  C   UNL     1       4.281   3.097  19.293  0.00  0.00    +0.000 C 
ATOM     19  O   UNL     1       5.261   2.851  20.003  0.00  0.00    +0.000 OA
BRANCH  18  20
ATOM     20  C   UNL     1       3.738   1.997  18.375  0.00  0.00    +0.000 C 
BRANCH  20  21
ATOM     21  C   UNL     1       2.346   2.344  17.844  0.00  0.00    +0.000 C 
BRANCH  21  23
ATOM     22  C   UNL     1       0.324   2.960  19.214  0.00  0.00    +0.000 C 
ATOM     23  C   UNL     1       1.229   1.829  18.757  0.00  0.00    +0.000 C 
ENDBRANCH  21  23
ENDBRANCH  20  21
ENDBRANCH  18  20
ENDBRANCH   1  18
BRANCH   7  24
ATOM     24  C   UNL     1       1.660  10.039  18.187  0.00  0.00    +0.000 C 
ATOM     25  O   UNL     1       2.641  10.741  17.989  0.00  0.00    +0.000 OA
BRANCH  24  26
ATOM     26  O   UNL     1       0.466  10.376  17.674  0.00  0.00    +0.000 OA
ATOM     27  H   UNL     1       0.393  10.397  16.710  0.00  0.00    +0.000 HD
ENDBRANCH  24  26
ENDBRANCH   7  24
TORSDOF 7
ENDMDL
MODEL 6
REMARK VINA RESULT:      -7.3      2.282      6.348
REMARK  Name = 
REMARK  9 active torsions:
REMARK  status: ('A' for Active; 'I' for Inactive)
REMARK    1  A    between atoms: C_1  and  C_2
REMARK    2  A    between atoms: C_2  and  C_3
REMARK    3  A    between atoms: C_3  and  C_4
REMARK    4  A    between atoms: C_4  and  C_5
REMARK    5  A    between atoms: C_5  and  C_7
REMARK    6  A    between atoms: C_11  and  C_12
REMARK    7  A    between atoms: C_13  and  C_14
REMARK    8  A    between atoms: C_14  and  O_16
REMARK    9  A    between atoms: C_19  and  C_20
REMARK                            x       y       z     vdW  Elec       q    Type
REMARK                         _______ _______ _______ _____ _____    ______ ____
ROOT
ATOM      1  C   UNL     1       2.689   7.458  18.439  0.00  0.00    +0.000 A 
ATOM      2  N   UNL     1       1.977   6.910  19.497  0.00  0.00    +0.000 N 
ATOM      3  C   UNL     1       2.380   5.627  19.758  0.00  0.00    +0.000 A 
ATOM      4  C   UNL     1       1.903   4.684  20.704  0.00  0.00    +0.000 A 
ATOM      5  C   UNL     1       2.493   3.388  20.768  0.00  0.00    +0.000 A 
ATOM      6  C   UNL     1       1.908   2.410  21.743  0.00  0.00    +0.000 C 
ATOM      7  C   UNL     1       3.544   3.068  19.898  0.00  0.00    +0.000 A 
ATOM      8  C   UNL     1       3.946   4.042  18.977  0.00  0.00    +0.000 A 
ATOM      9  C   UNL     1       3.403   5.342  18.876  0.00  0.00    +0.000 A 
ATOM     10  C   UNL     1       3.628   6.503  18.041  0.00  0.00    +0.000 A 
ATOM     11  H   UNL     1       1.238   7.372  19.999  0.00  0.00    +0.000 HD
ENDROOT
BRANCH  10  12
ATOM     12  C   UNL     1       4.656   6.705  16.922  0.00  0.00    +0.000 C 
ATOM     13  C   UNL     1       6.030   7.207  17.367  0.00  0.00    +0.000 C 
ATOM     14  C   UNL     1       6.917   6.133  17.968  0.00  0.00    +0.000 C 
ATOM     15  C   UNL     1       6.936   4.831  17.151  0.00  0.00    +0.000 C 
ATOM     16  C   UNL     1       5.616   4.379  16.507  0.00  0.00    +0.000 C 
ATOM     17  C   UNL     1       4.791   5.527  15.947  0.00  0.00    +0.000 C 
ENDBRANCH  10  12
BRANCH   1  18
ATOM     18  C   UNL     1       2.452   8.803  17.878  0.00  0.00    +0.000 C 
ATOM     19  O   UNL     1       3.355   9.577  17.550  0.00  0.00    +0.000 OA
BRANCH  18  20
ATOM     20  C   UNL     1       0.997   9.261  17.737  0.00  0.00    +0.000 C 
BRANCH  20  21
ATOM     21  C   UNL     1       0.543  10.078  18.948  0.00  0.00    +0.000 C 
BRANCH  21  23
ATOM     22  C   UNL     1      -1.533  10.081  17.521  0.00  0.00    +0.000 C 
ATOM     23  C   UNL     1      -0.925  10.505  18.847  0.00  0.00    +0.000 C 
ENDBRANCH  21  23
ENDBRANCH  20  21
ENDBRANCH  18  20
ENDBRANCH   1  18
BRANCH   7  24
ATOM     24  C   UNL     1       4.291   1.770  19.735  0.00  0.00    +0.000 C 
ATOM     25  O   UNL     1       4.015   0.985  18.840  0.00  0.00    +0.000 OA
BRANCH  24  26
ATOM     26  O   UNL     1       5.334   1.537  20.548  0.00  0.00    +0.000 OA
ATOM     27  H   UNL     1       5.149   1.079  21.379  0.00  0.00    +0.000 HD
ENDBRANCH  24  26
ENDBRANCH   7  24
TORSDOF 7
ENDMDL
MODEL 7
REMARK VINA RESULT:      -7.2      2.318      3.216
REMARK  Name = 
REMARK  9 active torsions:
REMARK  status: ('A' for Active; 'I' for Inactive)
REMARK    1  A    between atoms: C_1  and  C_2
REMARK    2  A    between atoms: C_2  and  C_3
REMARK    3  A    between atoms: C_3  and  C_4
REMARK    4  A    between atoms: C_4  and  C_5
REMARK    5  A    between atoms: C_5  and  C_7
REMARK    6  A    between atoms: C_11  and  C_12
REMARK    7  A    between atoms: C_13  and  C_14
REMARK    8  A    between atoms: C_14  and  O_16
REMARK    9  A    between atoms: C_19  and  C_20
REMARK                            x       y       z     vdW  Elec       q    Type
REMARK                         _______ _______ _______ _____ _____    ______ ____
ROOT
ATOM      1  C   UNL     1       5.199   5.374  16.347  0.00  0.00    +0.000 A 
ATOM      2  N   UNL     1       4.803   6.699  16.225  0.00  0.00    +0.000 N 
ATOM      3  C   UNL     1       3.929   7.052  17.219  0.00  0.00    +0.000 A 
ATOM      4  C   UNL     1       3.243   8.271  17.455  0.00  0.00    +0.000 A 
ATOM      5  C   UNL     1       2.364   8.382  18.572  0.00  0.00    +0.000 A 
ATOM      6  C   UNL     1       1.617   9.672  18.737  0.00  0.00    +0.000 C 
ATOM      7  C   UNL     1       2.198   7.285  19.426  0.00  0.00    +0.000 A 
ATOM      8  C   UNL     1       2.891   6.108  19.118  0.00  0.00    +0.000 A 
ATOM      9  C   UNL     1       3.779   5.946  18.031  0.00  0.00    +0.000 A 
ATOM     10  C   UNL     1       4.595   4.874  17.504  0.00  0.00    +0.000 A 
ATOM     11  H   UNL     1       5.089   7.324  15.490  0.00  0.00    +0.000 HD
ENDROOT
BRANCH  10  12
ATOM     12  C   UNL     1       4.790   3.451  18.042  0.00  0.00    +0.000 C 
ATOM     13  C   UNL     1       4.732   3.306  19.564  0.00  0.00    +0.000 C 
ATOM     14  C   UNL     1       3.327   3.313  20.133  0.00  0.00    +0.000 C 
ATOM     15  C   UNL     1       2.350   2.415  19.359  0.00  0.00    +0.000 C 
ATOM     16  C   UNL     1       2.492   2.366  17.829  0.00  0.00    +0.000 C 
ATOM     17  C   UNL     1       3.936   2.377  17.355  0.00  0.00    +0.000 C 
ENDBRANCH  10  12
BRANCH   1  18
ATOM     18  C   UNL     1       6.089   4.677  15.399  0.00  0.00    +0.000 C 
ATOM     19  O   UNL     1       7.320   4.675  15.490  0.00  0.00    +0.000 OA
BRANCH  18  20
ATOM     20  C   UNL     1       5.434   3.949  14.220  0.00  0.00    +0.000 C 
BRANCH  20  21
ATOM     21  C   UNL     1       6.390   3.828  13.032  0.00  0.00    +0.000 C 
BRANCH  21  23
ATOM     22  C   UNL     1       4.418   3.323  11.547  0.00  0.00    +0.000 C 
ATOM     23  C   UNL     1       5.834   2.924  11.927  0.00  0.00    +0.000 C 
ENDBRANCH  21  23
ENDBRANCH  20  21
ENDBRANCH  18  20
ENDBRANCH   1  18
BRANCH   7  24
ATOM     24  C   UNL     1       1.303   7.133  20.628  0.00  0.00    +0.000 C 
ATOM     25  O   UNL     1       0.892   8.107  21.243  0.00  0.00    +0.000 OA
BRANCH  24  26
ATOM     26  O   UNL     1       0.891   5.898  20.955  0.00  0.00    +0.000 OA
ATOM     27  H   UNL     1       1.331   5.158  20.515  0.00  0.00    +0.000 HD
ENDBRANCH  24  26
ENDBRANCH   7  24
TORSDOF 7
ENDMDL
MODEL 8
REMARK VINA RESULT:      -6.8      2.373      6.241
REMARK  Name = 
REMARK  9 active torsions:
REMARK  status: ('A' for Active; 'I' for Inactive)
REMARK    1  A    between atoms: C_1  and  C_2
REMARK    2  A    between atoms: C_2  and  C_3
REMARK    3  A    between atoms: C_3  and  C_4
REMARK    4  A    between atoms: C_4  and  C_5
REMARK    5  A    between atoms: C_5  and  C_7
REMARK    6  A    between atoms: C_11  and  C_12
REMARK    7  A    between atoms: C_13  and  C_14
REMARK    8  A    between atoms: C_14  and  O_16
REMARK    9  A    between atoms: C_19  and  C_20
REMARK                            x       y       z     vdW  Elec       q    Type
REMARK                         _______ _______ _______ _____ _____    ______ ____
ROOT
ATOM      1  C   UNL     1       2.656   7.313  18.587  0.00  0.00    +0.000 A 
ATOM      2  N   UNL     1       1.874   6.703  19.558  0.00  0.00    +0.000 N 
ATOM      3  C   UNL     1       2.365   5.468  19.891  0.00  0.00    +0.000 A 
ATOM      4  C   UNL     1       1.868   4.488  20.787  0.00  0.00    +0.000 A 
ATOM      5  C   UNL     1       2.570   3.258  20.950  0.00  0.00    +0.000 A 
ATOM      6  C   UNL     1       1.966   2.233  21.862  0.00  0.00    +0.000 C 
ATOM      7  C   UNL     1       3.749   3.040  20.225  0.00  0.00    +0.000 A 
ATOM      8  C   UNL     1       4.167   4.043  19.343  0.00  0.00    +0.000 A 
ATOM      9  C   UNL     1       3.515   5.282  19.150  0.00  0.00    +0.000 A 
ATOM     10  C   UNL     1       3.728   6.454  18.329  0.00  0.00    +0.000 A 
ATOM     11  H   UNL     1       1.035   7.091  19.954  0.00  0.00    +0.000 HD
ENDROOT
BRANCH  10  12
ATOM     12  C   UNL     1       4.864   6.752  17.343  0.00  0.00    +0.000 C 
ATOM     13  C   UNL     1       6.271   6.773  17.942  0.00  0.00    +0.000 C 
ATOM     14  C   UNL     1       6.862   5.397  18.185  0.00  0.00    +0.000 C 
ATOM     15  C   UNL     1       6.676   4.436  17.001  0.00  0.00    +0.000 C 
ATOM     16  C   UNL     1       5.349   4.509  16.230  0.00  0.00    +0.000 C 
ATOM     17  C   UNL     1       4.831   5.926  16.049  0.00  0.00    +0.000 C 
ENDBRANCH  10  12
BRANCH   1  18
ATOM     18  C   UNL     1       2.360   8.623  17.976  0.00  0.00    +0.000 C 
ATOM     19  O   UNL     1       2.929   9.053  16.968  0.00  0.00    +0.000 OA
BRANCH  18  20
ATOM     20  C   UNL     1       1.310   9.502  18.663  0.00  0.00    +0.000 C 
BRANCH  20  21
ATOM     21  C   UNL     1       1.654  10.987  18.545  0.00  0.00    +0.000 C 
BRANCH  21  23
ATOM     22  C   UNL     1       1.561  13.218  19.713  0.00  0.00    +0.000 C 
ATOM     23  C   UNL     1       0.937  11.837  19.600  0.00  0.00    +0.000 C 
ENDBRANCH  21  23
ENDBRANCH  20  21
ENDBRANCH  18  20
ENDBRANCH   1  18
BRANCH   7  24
ATOM     24  C   UNL     1       4.636   1.823  20.182  0.00  0.00    +0.000 C 
ATOM     25  O   UNL     1       5.331   1.508  21.137  0.00  0.00    +0.000 OA
BRANCH  24  26
ATOM     26  O   UNL     1       4.575   1.037  19.095  0.00  0.00    +0.000 OA
ATOM     27  H   UNL     1       4.594   1.477  18.234  0.00  0.00    +0.000 HD
ENDBRANCH  24  26
ENDBRANCH   7  24
TORSDOF 7
ENDMDL
MODEL 9
REMARK VINA RESULT:      -6.8      0.940      1.436
REMARK  Name = 
REMARK  9 active torsions:
REMARK  status: ('A' for Active; 'I' for Inactive)
REMARK    1  A    between atoms: C_1  and  C_2
REMARK    2  A    between atoms: C_2  and  C_3
REMARK    3  A    between atoms: C_3  and  C_4
REMARK    4  A    between atoms: C_4  and  C_5
REMARK    5  A    between atoms: C_5  and  C_7
REMARK    6  A    between atoms: C_11  and  C_12
REMARK    7  A    between atoms: C_13  and  C_14
REMARK    8  A    between atoms: C_14  and  O_16
REMARK    9  A    between atoms: C_19  and  C_20
REMARK                            x       y       z     vdW  Elec       q    Type
REMARK                         _______ _______ _______ _____ _____    ______ ____
ROOT
ATOM      1  C   UNL     1       3.419   6.713  17.915  0.00  0.00    +0.000 A 
ATOM      2  N   UNL     1       2.955   7.990  17.635  0.00  0.00    +0.000 N 
ATOM      3  C   UNL     1       2.204   8.486  18.667  0.00  0.00    +0.000 A 
ATOM      4  C   UNL     1       1.503   9.713  18.795  0.00  0.00    +0.000 A 
ATOM      5  C   UNL     1       0.773   9.989  19.987  0.00  0.00    +0.000 A 
ATOM      6  C   UNL     1      -0.000  11.273  20.041  0.00  0.00    +0.000 C 
ATOM      7  C   UNL     1       0.766   9.046  21.022  0.00  0.00    +0.000 A 
ATOM      8  C   UNL     1       1.462   7.849  20.817  0.00  0.00    +0.000 A 
ATOM      9  C   UNL     1       2.207   7.527  19.661  0.00  0.00    +0.000 A 
ATOM     10  C   UNL     1       2.992   6.399  19.208  0.00  0.00    +0.000 A 
ATOM     11  H   UNL     1       3.116   8.490  16.777  0.00  0.00    +0.000 HD
ENDROOT
BRANCH  10  12
ATOM     12  C   UNL     1       3.316   5.090  19.939  0.00  0.00    +0.000 C 
ATOM     13  C   UNL     1       2.424   4.762  21.137  0.00  0.00    +0.000 C 
ATOM     14  C   UNL     1       1.065   4.201  20.762  0.00  0.00    +0.000 C 
ATOM     15  C   UNL     1       1.134   3.105  19.686  0.00  0.00    +0.000 C 
ATOM     16  C   UNL     1       2.161   3.285  18.557  0.00  0.00    +0.000 C 
ATOM     17  C   UNL     1       3.484   3.866  19.028  0.00  0.00    +0.000 C 
ENDBRANCH  10  12
BRANCH   1  18
ATOM     18  C   UNL     1       4.207   5.885  16.981  0.00  0.00    +0.000 C 
ATOM     19  O   UNL     1       3.835   4.787  16.557  0.00  0.00    +0.000 OA
BRANCH  18  20
ATOM     20  C   UNL     1       5.579   6.417  16.552  0.00  0.00    +0.000 C 
BRANCH  20  21
ATOM     21  C   UNL     1       6.669   6.037  17.555  0.00  0.00    +0.000 C 
BRANCH  21  23
ATOM     22  C   UNL     1       7.253   4.341  15.786  0.00  0.00    +0.000 C 
ATOM     23  C   UNL     1       7.264   4.653  17.272  0.00  0.00    +0.000 C 
ENDBRANCH  21  23
ENDBRANCH  20  21
ENDBRANCH  18  20
ENDBRANCH   1  18
BRANCH   7  24
ATOM     24  C   UNL     1       0.042   9.078  22.343  0.00  0.00    +0.000 C 
ATOM     25  O   UNL     1       0.360   9.864  23.224  0.00  0.00    +0.000 OA
BRANCH  24  26
ATOM     26  O   UNL     1      -1.026   8.280  22.495  0.00  0.00    +0.000 OA
ATOM     27  H   UNL     1      -1.612   8.180  21.732  0.00  0.00    +0.000 HD
ENDBRANCH  24  26
ENDBRANCH   7  24
TORSDOF 7
ENDMDL
