MODEL 1
REMARK VINA RESULT:      -8.2      0.000      0.000
REMARK  Name = 
REMARK  10 active torsions:
REMARK  status: ('A' for Active; 'I' for Inactive)
REMARK    1  A    between atoms: C_2  and  O_3
REMARK    2  A    between atoms: C_2  and  C_4
REMARK    3  A    between atoms: C_7  and  C_8
REMARK    4  A    between atoms: C_11  and  O_12
REMARK    5  A    between atoms: O_12  and  C_13
REMARK    6  A    between atoms: C_15  and  C_16
REMARK    7  A    between atoms: C_16  and  O_17
REMARK    8  A    between atoms: C_18  and  O_19
REMARK    9  A    between atoms: C_20  and  O_21
REMARK   10  A    between atoms: C_22  and  O_23
REMARK                            x       y       z     vdW  Elec       q    Type
REMARK                         _______ _______ _______ _____ _____    ______ ____
ROOT
ATOM      1  C   UNL     1       1.305   8.576  19.878  0.00  0.00    +0.000 A 
ATOM      2  C   UNL     1       1.692   8.924  18.570  0.00  0.00    +0.000 A 
ATOM      3  C   UNL     1       2.550   8.104  17.807  0.00  0.00    +0.000 A 
ATOM      4  C   UNL     1       3.056   6.924  18.344  0.00  0.00    +0.000 A 
ATOM      5  C   UNL     1       2.660   6.548  19.623  0.00  0.00    +0.000 A 
ATOM      6  C   UNL     1       1.799   7.354  20.372  0.00  0.00    +0.000 A 
ENDROOT
BRANCH   1  10
ATOM      7  C   UNL     1      -1.166  11.163  22.320  0.00  0.00    +0.000 A 
ATOM      8  C   UNL     1      -0.627   9.991  22.862  0.00  0.00    +0.000 A 
ATOM      9  C   UNL     1       0.147   9.130  22.068  0.00  0.00    +0.000 A 
ATOM     10  C   UNL     1       0.411   9.417  20.717  0.00  0.00    +0.000 A 
ATOM     11  C   UNL     1      -0.170  10.594  20.193  0.00  0.00    +0.000 A 
ATOM     12  C   UNL     1      -0.924  11.470  20.982  0.00  0.00    +0.000 A 
BRANCH   7  14
ATOM     13  O   UNL     1      -3.031  11.805  23.645  0.00  0.00    +0.000 OA
ATOM     14  C   UNL     1      -1.933  12.079  23.207  0.00  0.00    +0.000 C 
BRANCH  14  15
ATOM     15  O   UNL     1      -1.307  13.251  23.449  0.00  0.00    +0.000 OA
ATOM     16  H   UNL     1      -1.818  14.050  23.239  0.00  0.00    +0.000 HD
ENDBRANCH  14  15
ENDBRANCH   7  14
ENDBRANCH   1  10
BRANCH   4  17
ATOM     17  O   UNL     1       3.944   6.063  17.767  0.00  0.00    +0.000 OA
BRANCH  17  18
ATOM     18  C   UNL     1       4.796   6.529  16.720  0.00  0.00    +0.000 C 
ATOM     19  O   UNL     1       6.031   7.108  17.179  0.00  0.00    +0.000 OA
ATOM     20  C   UNL     1       6.824   6.197  17.959  0.00  0.00    +0.000 C 
ATOM     21  C   UNL     1       7.239   4.960  17.143  0.00  0.00    +0.000 C 
ATOM     22  C   UNL     1       5.993   4.307  16.513  0.00  0.00    +0.000 C 
ATOM     23  C   UNL     1       5.131   5.350  15.778  0.00  0.00    +0.000 C 
BRANCH  21  24
ATOM     24  O   UNL     1       7.953   4.018  17.952  0.00  0.00    +0.000 OA
ATOM     25  H   UNL     1       8.860   3.918  17.618  0.00  0.00    +0.000 HD
ENDBRANCH  21  24
BRANCH  22  26
ATOM     26  O   UNL     1       6.382   3.272  15.597  0.00  0.00    +0.000 OA
ATOM     27  H   UNL     1       5.598   2.705  15.465  0.00  0.00    +0.000 HD
ENDBRANCH  22  26
BRANCH  23  28
ATOM     28  O   UNL     1       5.848   5.812  14.614  0.00  0.00    +0.000 OA
ATOM     29  H   UNL     1       6.055   5.034  14.063  0.00  0.00    +0.000 HD
ENDBRANCH  23  28
BRANCH  20  30
ATOM     30  C   UNL     1       8.041   6.975  18.474  0.00  0.00    +0.000 C 
BRANCH  30  31
ATOM     31  O   UNL     1       8.081   8.283  17.909  0.00  0.00    +0.000 OA
ATOM     32  H   UNL     1       7.151   8.539  17.765  0.00  0.00    +0.000 HD
ENDBRANCH  30  31
ENDBRANCH  20  30
ENDBRANCH  17  18
ENDBRANCH   4  17
TORSDOF 10
ENDMDL
MODEL 2
REMARK VINA RESULT:      -8.1      0.588      1.249
REMARK  Name = 
REMARK  10 active torsions:
REMARK  status: ('A' for Active; 'I' for Inactive)
REMARK    1  A    between atoms: C_2  and  O_3
REMARK    2  A    between atoms: C_2  and  C_4
REMARK    3  A    between atoms: C_7  and  C_8
REMARK    4  A    between atoms: C_11  and  O_12
REMARK    5  A    between atoms: O_12  and  C_13
REMARK    6  A    between atoms: C_15  and  C_16
REMARK    7  A    between atoms: C_16  and  O_17
REMARK    8  A    between atoms: C_18  and  O_19
REMARK    9  A    between atoms: C_20  and  O_21
REMARK   10  A    between atoms: C_22  and  O_23
REMARK                            x       y       z     vdW  Elec       q    Type
REMARK                         _______ _______ _______ _____ _____    ______ ____
ROOT
ATOM      1  C   UNL     1       1.353   8.867  19.822  0.00  0.00    +0.000 A 
ATOM      2  C   UNL     1       1.729   9.170  18.500  0.00  0.00    +0.000 A 
ATOM      3  C   UNL     1       2.510   8.284  17.730  0.00  0.00    +0.000 A 
ATOM      4  C   UNL     1       2.949   7.080  18.272  0.00  0.00    +0.000 A 
ATOM      5  C   UNL     1       2.560   6.748  19.565  0.00  0.00    +0.000 A 
ATOM      6  C   UNL     1       1.775   7.621  20.322  0.00  0.00    +0.000 A 
ENDROOT
BRANCH   1  10
ATOM      7  C   UNL     1      -1.153  11.389  22.298  0.00  0.00    +0.000 A 
ATOM      8  C   UNL     1      -0.883  11.752  20.973  0.00  0.00    +0.000 A 
ATOM      9  C   UNL     1      -0.046  10.956  20.174  0.00  0.00    +0.000 A 
ATOM     10  C   UNL     1       0.539   9.778  20.671  0.00  0.00    +0.000 A 
ATOM     11  C   UNL     1       0.270   9.455  22.020  0.00  0.00    +0.000 A 
ATOM     12  C   UNL     1      -0.581  10.228  22.818  0.00  0.00    +0.000 A 
BRANCH   7  14
ATOM     13  O   UNL     1      -1.936  13.418  23.256  0.00  0.00    +0.000 OA
ATOM     14  C   UNL     1      -2.091  12.225  23.096  0.00  0.00    +0.000 C 
BRANCH  14  15
ATOM     15  O   UNL     1      -3.105  11.525  23.647  0.00  0.00    +0.000 OA
ATOM     16  H   UNL     1      -2.841  10.768  24.196  0.00  0.00    +0.000 HD
ENDBRANCH  14  15
ENDBRANCH   7  14
ENDBRANCH   1  10
BRANCH   4  17
ATOM     17  O   UNL     1       3.761   6.153  17.686  0.00  0.00    +0.000 OA
BRANCH  17  18
ATOM     18  C   UNL     1       4.663   6.559  16.655  0.00  0.00    +0.000 C 
ATOM     19  O   UNL     1       5.908   7.096  17.139  0.00  0.00    +0.000 OA
ATOM     20  C   UNL     1       6.638   6.170  17.961  0.00  0.00    +0.000 C 
ATOM     21  C   UNL     1       7.023   4.898  17.184  0.00  0.00    +0.000 C 
ATOM     22  C   UNL     1       5.769   4.284  16.531  0.00  0.00    +0.000 C 
ATOM     23  C   UNL     1       4.974   5.346  15.749  0.00  0.00    +0.000 C 
BRANCH  21  24
ATOM     24  O   UNL     1       7.672   3.945  18.034  0.00  0.00    +0.000 OA
ATOM     25  H   UNL     1       8.628   4.120  18.055  0.00  0.00    +0.000 HD
ENDBRANCH  21  24
BRANCH  22  26
ATOM     26  O   UNL     1       6.139   3.214  15.649  0.00  0.00    +0.000 OA
ATOM     27  H   UNL     1       5.724   2.403  16.001  0.00  0.00    +0.000 HD
ENDBRANCH  22  26
BRANCH  23  28
ATOM     28  O   UNL     1       5.744   5.751  14.597  0.00  0.00    +0.000 OA
ATOM     29  H   UNL     1       6.299   6.509  14.860  0.00  0.00    +0.000 HD
ENDBRANCH  23  28
BRANCH  20  30
ATOM     30  C   UNL     1       7.871   6.906  18.496  0.00  0.00    +0.000 C 
BRANCH  30  31
ATOM     31  O   UNL     1       8.422   6.220  19.618  0.00  0.00    +0.000 OA
ATOM     32  H   UNL     1       9.375   6.131  19.433  0.00  0.00    +0.000 HD
ENDBRANCH  30  31
ENDBRANCH  20  30
ENDBRANCH  17  18
ENDBRANCH   4  17
TORSDOF 10
ENDMDL
MODEL 3
REMARK VINA RESULT:      -8.0      1.295      2.576
REMARK  Name = 
REMARK  10 active torsions:
REMARK  status: ('A' for Active; 'I' for Inactive)
REMARK    1  A    between atoms: C_2  and  O_3
REMARK    2  A    between atoms: C_2  and  C_4
REMARK    3  A    between atoms: C_7  and  C_8
REMARK    4  A    between atoms: C_11  and  O_12
REMARK    5  A    between atoms: O_12  and  C_13
REMARK    6  A    between atoms: C_15  and  C_16
REMARK    7  A    between atoms: C_16  and  O_17
REMARK    8  A    between atoms: C_18  and  O_19
REMARK    9  A    between atoms: C_20  and  O_21
REMARK   10  A    between atoms: C_22  and  O_23
REMARK                            x       y       z     vdW  Elec       q    Type
REMARK                         _______ _______ _______ _____ _____    ______ ____
ROOT
ATOM      1  C   UNL     1       1.253   8.490  20.116  0.00  0.00    +0.000 A 
ATOM      2  C   UNL     1       1.678   7.230  20.576  0.00  0.00    +0.000 A 
ATOM      3  C   UNL     1       2.484   6.385  19.784  0.00  0.00    +0.000 A 
ATOM      4  C   UNL     1       2.869   6.776  18.505  0.00  0.00    +0.000 A 
ATOM      5  C   UNL     1       2.486   8.031  18.046  0.00  0.00    +0.000 A 
ATOM      6  C   UNL     1       1.699   8.872  18.836  0.00  0.00    +0.000 A 
ENDROOT
BRANCH   1  10
ATOM      7  C   UNL     1      -1.106  11.280  22.442  0.00  0.00    +0.000 A 
ATOM      8  C   UNL     1      -0.681  10.075  23.013  0.00  0.00    +0.000 A 
ATOM      9  C   UNL     1       0.056   9.151  22.255  0.00  0.00    +0.000 A 
ATOM     10  C   UNL     1       0.394   9.405  20.914  0.00  0.00    +0.000 A 
ATOM     11  C   UNL     1      -0.074  10.617  20.360  0.00  0.00    +0.000 A 
ATOM     12  C   UNL     1      -0.790  11.556  21.113  0.00  0.00    +0.000 A 
BRANCH   7  14
ATOM     13  O   UNL     1      -2.986  12.101  23.642  0.00  0.00    +0.000 OA
ATOM     14  C   UNL     1      -1.835  12.260  23.293  0.00  0.00    +0.000 C 
BRANCH  14  15
ATOM     15  O   UNL     1      -1.106  13.351  23.609  0.00  0.00    +0.000 OA
ATOM     16  H   UNL     1      -0.142  13.241  23.556  0.00  0.00    +0.000 HD
ENDBRANCH  14  15
ENDBRANCH   7  14
ENDBRANCH   1  10
BRANCH   4  17
ATOM     17  O   UNL     1       3.585   6.052  17.596  0.00  0.00    +0.000 OA
BRANCH  17  18
ATOM     18  C   UNL     1       3.889   4.683  17.870  0.00  0.00    +0.000 C 
ATOM     19  O   UNL     1       4.340   3.939  16.723  0.00  0.00    +0.000 OA
ATOM     20  C   UNL     1       5.521   4.494  16.121  0.00  0.00    +0.000 C 
ATOM     21  C   UNL     1       6.712   4.492  17.095  0.00  0.00    +0.000 C 
ATOM     22  C   UNL     1       6.312   5.183  18.413  0.00  0.00    +0.000 C 
ATOM     23  C   UNL     1       4.987   4.616  18.956  0.00  0.00    +0.000 C 
BRANCH  21  24
ATOM     24  O   UNL     1       7.859   5.127  16.517  0.00  0.00    +0.000 OA
ATOM     25  H   UNL     1       8.015   5.983  16.950  0.00  0.00    +0.000 HD
ENDBRANCH  21  24
BRANCH  22  26
ATOM     26  O   UNL     1       7.344   5.018  19.397  0.00  0.00    +0.000 OA
ATOM     27  H   UNL     1       6.898   4.792  20.236  0.00  0.00    +0.000 HD
ENDBRANCH  22  26
BRANCH  23  28
ATOM     28  O   UNL     1       5.201   3.255  19.385  0.00  0.00    +0.000 OA
ATOM     29  H   UNL     1       6.137   3.169  19.646  0.00  0.00    +0.000 HD
ENDBRANCH  23  28
BRANCH  20  30
ATOM     30  C   UNL     1       5.817   3.679  14.857  0.00  0.00    +0.000 C 
BRANCH  30  31
ATOM     31  O   UNL     1       6.623   4.427  13.950  0.00  0.00    +0.000 OA
ATOM     32  H   UNL     1       6.722   3.868  13.158  0.00  0.00    +0.000 HD
ENDBRANCH  30  31
ENDBRANCH  20  30
ENDBRANCH  17  18
ENDBRANCH   4  17
TORSDOF 10
ENDMDL
MODEL 4
REMARK VINA RESULT:      -8.0      1.129      2.757
REMARK  Name = 
REMARK  10 active torsions:
REMARK  status: ('A' for Active; 'I' for Inactive)
REMARK    1  A    between atoms: C_2  and  O_3
REMARK    2  A    between atoms: C_2  and  C_4
REMARK    3  A    between atoms: C_7  and  C_8
REMARK    4  A    between atoms: C_11  and  O_12
REMARK    5  A    between atoms: O_12  and  C_13
REMARK    6  A    between atoms: C_15  and  C_16
REMARK    7  A    between atoms: C_16  and  O_17
REMARK    8  A    between atoms: C_18  and  O_19
REMARK    9  A    between atoms: C_20  and  O_21
REMARK   10  A    between atoms: C_22  and  O_23
REMARK                            x       y       z     vdW  Elec       q    Type
REMARK                         _______ _______ _______ _____ _____    ______ ____
ROOT
ATOM      1  C   UNL     1       1.341   8.549  20.063  0.00  0.00    +0.000 A 
ATOM      2  C   UNL     1       1.712   7.274  20.531  0.00  0.00    +0.000 A 
ATOM      3  C   UNL     1       2.456   6.379  19.734  0.00  0.00    +0.000 A 
ATOM      4  C   UNL     1       2.831   6.733  18.441  0.00  0.00    +0.000 A 
ATOM      5  C   UNL     1       2.502   8.000  17.973  0.00  0.00    +0.000 A 
ATOM      6  C   UNL     1       1.777   8.891  18.769  0.00  0.00    +0.000 A 
ENDROOT
BRANCH   1  10
ATOM      7  C   UNL     1      -1.101  11.235  22.426  0.00  0.00    +0.000 A 
ATOM      8  C   UNL     1      -0.888  11.493  21.067  0.00  0.00    +0.000 A 
ATOM      9  C   UNL     1      -0.071  10.645  20.302  0.00  0.00    +0.000 A 
ATOM     10  C   UNL     1       0.549   9.517  20.867  0.00  0.00    +0.000 A 
ATOM     11  C   UNL     1       0.335   9.299  22.247  0.00  0.00    +0.000 A 
ATOM     12  C   UNL     1      -0.495  10.125  23.014  0.00  0.00    +0.000 A 
BRANCH   7  14
ATOM     13  O   UNL     1      -3.166  11.816  23.449  0.00  0.00    +0.000 OA
ATOM     14  C   UNL     1      -2.020  12.122  23.190  0.00  0.00    +0.000 C 
BRANCH  14  15
ATOM     15  O   UNL     1      -1.469  13.305  23.535  0.00  0.00    +0.000 OA
ATOM     16  H   UNL     1      -0.688  13.251  24.110  0.00  0.00    +0.000 HD
ENDBRANCH  14  15
ENDBRANCH   7  14
ENDBRANCH   1  10
BRANCH   4  17
ATOM     17  O   UNL     1       3.488   5.962  17.527  0.00  0.00    +0.000 OA
BRANCH  17  18
ATOM     18  C   UNL     1       4.271   4.853  17.974  0.00  0.00    +0.000 C 
ATOM     19  O   UNL     1       4.764   4.015  16.914  0.00  0.00    +0.000 OA
ATOM     20  C   UNL     1       5.585   4.724  15.971  0.00  0.00    +0.000 C 
ATOM     21  C   UNL     1       6.842   5.311  16.637  0.00  0.00    +0.000 C 
ATOM     22  C   UNL     1       6.439   6.158  17.861  0.00  0.00    +0.000 C 
ATOM     23  C   UNL     1       5.479   5.381  18.781  0.00  0.00    +0.000 C 
BRANCH  21  24
ATOM     24  O   UNL     1       7.608   6.089  15.710  0.00  0.00    +0.000 OA
ATOM     25  H   UNL     1       7.021   6.468  15.035  0.00  0.00    +0.000 HD
ENDBRANCH  21  24
BRANCH  22  26
ATOM     26  O   UNL     1       7.604   6.550  18.602  0.00  0.00    +0.000 OA
ATOM     27  H   UNL     1       7.285   6.991  19.413  0.00  0.00    +0.000 HD
ENDBRANCH  22  26
BRANCH  23  28
ATOM     28  O   UNL     1       6.200   4.292  19.396  0.00  0.00    +0.000 OA
ATOM     29  H   UNL     1       5.894   3.463  18.984  0.00  0.00    +0.000 HD
ENDBRANCH  23  28
BRANCH  20  30
ATOM     30  C   UNL     1       5.941   3.745  14.846  0.00  0.00    +0.000 C 
BRANCH  30  31
ATOM     31  O   UNL     1       6.340   4.448  13.672  0.00  0.00    +0.000 OA
ATOM     32  H   UNL     1       7.288   4.643  13.788  0.00  0.00    +0.000 HD
ENDBRANCH  30  31
ENDBRANCH  20  30
ENDBRANCH  17  18
ENDBRANCH   4  17
TORSDOF 10
ENDMDL
MODEL 5
REMARK VINA RESULT:      -8.0      1.878      3.022
REMARK  Name = 
REMARK  10 active torsions:
REMARK  status: ('A' for Active; 'I' for Inactive)
REMARK    1  A    between atoms: C_2  and  O_3
REMARK    2  A    between atoms: C_2  and  C_4
REMARK    3  A    between atoms: C_7  and  C_8
REMARK    4  A    between atoms: C_11  and  O_12
REMARK    5  A    between atoms: O_12  and  C_13
REMARK    6  A    between atoms: C_15  and  C_16
REMARK    7  A    between atoms: C_16  and  O_17
REMARK    8  A    between atoms: C_18  and  O_19
REMARK    9  A    between atoms: C_20  and  O_21
REMARK   10  A    between atoms: C_22  and  O_23
REMARK                            x       y       z     vdW  Elec       q    Type
REMARK                         _______ _______ _______ _____ _____    ______ ____
ROOT
ATOM      1  C   UNL     1       0.403   9.555  20.569  0.00  0.00    +0.000 A 
ATOM      2  C   UNL     1       0.906   9.666  19.260  0.00  0.00    +0.000 A 
ATOM      3  C   UNL     1       1.784   8.703  18.718  0.00  0.00    +0.000 A 
ATOM      4  C   UNL     1       2.192   7.614  19.482  0.00  0.00    +0.000 A 
ATOM      5  C   UNL     1       1.680   7.470  20.767  0.00  0.00    +0.000 A 
ATOM      6  C   UNL     1       0.801   8.418  21.298  0.00  0.00    +0.000 A 
ENDROOT
BRANCH   1  10
ATOM      7  C   UNL     1      -2.390  12.321  22.390  0.00  0.00    +0.000 A 
ATOM      8  C   UNL     1      -2.150  12.371  21.011  0.00  0.00    +0.000 A 
ATOM      9  C   UNL     1      -1.221  11.499  20.419  0.00  0.00    +0.000 A 
ATOM     10  C   UNL     1      -0.514  10.553  21.181  0.00  0.00    +0.000 A 
ATOM     11  C   UNL     1      -0.759  10.547  22.572  0.00  0.00    +0.000 A 
ATOM     12  C   UNL     1      -1.698  11.395  23.170  0.00  0.00    +0.000 A 
BRANCH   7  14
ATOM     13  O   UNL     1      -3.293  14.426  23.023  0.00  0.00    +0.000 OA
ATOM     14  C   UNL     1      -3.423  13.220  22.972  0.00  0.00    +0.000 C 
BRANCH  14  15
ATOM     15  O   UNL     1      -4.495  12.566  23.466  0.00  0.00    +0.000 OA
ATOM     16  H   UNL     1      -5.273  12.539  22.884  0.00  0.00    +0.000 HD
ENDBRANCH  14  15
ENDBRANCH   7  14
ENDBRANCH   1  10
BRANCH   4  17
ATOM     17  O   UNL     1       3.082   6.641  19.132  0.00  0.00    +0.000 OA
BRANCH  17  18
ATOM     18  C   UNL     1       2.815   5.822  17.992  0.00  0.00    +0.000 C 
ATOM     19  O   UNL     1       3.991   5.425  17.263  0.00  0.00    +0.000 OA
ATOM     20  C   UNL     1       4.930   4.691  18.067  0.00  0.00    +0.000 C 
ATOM     21  C   UNL     1       4.324   3.379  18.597  0.00  0.00    +0.000 C 
ATOM     22  C   UNL     1       2.994   3.672  19.319  0.00  0.00    +0.000 C 
ATOM     23  C   UNL     1       2.071   4.546  18.449  0.00  0.00    +0.000 C 
BRANCH  21  24
ATOM     24  O   UNL     1       5.236   2.699  19.467  0.00  0.00    +0.000 OA
ATOM     25  H   UNL     1       6.126   2.698  19.077  0.00  0.00    +0.000 HD
ENDBRANCH  21  24
BRANCH  22  26
ATOM     26  O   UNL     1       2.324   2.445  19.647  0.00  0.00    +0.000 OA
ATOM     27  H   UNL     1       1.372   2.653  19.706  0.00  0.00    +0.000 HD
ENDBRANCH  22  26
BRANCH  23  28
ATOM     28  O   UNL     1       1.631   3.774  17.312  0.00  0.00    +0.000 OA
ATOM     29  H   UNL     1       1.722   4.334  16.518  0.00  0.00    +0.000 HD
ENDBRANCH  23  28
BRANCH  20  30
ATOM     30  C   UNL     1       6.171   4.437  17.204  0.00  0.00    +0.000 C 
BRANCH  30  31
ATOM     31  O   UNL     1       7.311   4.180  18.021  0.00  0.00    +0.000 OA
ATOM     32  H   UNL     1       8.021   3.911  17.410  0.00  0.00    +0.000 HD
ENDBRANCH  30  31
ENDBRANCH  20  30
ENDBRANCH  17  18
ENDBRANCH   4  17
TORSDOF 10
ENDMDL
MODEL 6
REMARK VINA RESULT:      -7.9      1.086      2.697
REMARK  Name = 
REMARK  10 active torsions:
REMARK  status: ('A' for Active; 'I' for Inactive)
REMARK    1  A    between atoms: C_2  and  O_3
REMARK    2  A    between atoms: C_2  and  C_4
REMARK    3  A    between atoms: C_7  and  C_8
REMARK    4  A    between atoms: C_11  and  O_12
REMARK    5  A    between atoms: O_12  and  C_13
REMARK    6  A    between atoms: C_15  and  C_16
REMARK    7  A    between atoms: C_16  and  O_17
REMARK    8  A    between atoms: C_18  and  O_19
REMARK    9  A    between atoms: C_20  and  O_21
REMARK   10  A    between atoms: C_22  and  O_23
REMARK                            x       y       z     vdW  Elec       q    Type
REMARK                         _______ _______ _______ _____ _____    ______ ____
ROOT
ATOM      1  C   UNL     1       1.267   8.377  20.194  0.00  0.00    +0.000 A 
ATOM      2  C   UNL     1       1.599   7.086  20.646  0.00  0.00    +0.000 A 
ATOM      3  C   UNL     1       2.422   6.225  19.890  0.00  0.00    +0.000 A 
ATOM      4  C   UNL     1       2.918   6.631  18.655  0.00  0.00    +0.000 A 
ATOM      5  C   UNL     1       2.628   7.915  18.207  0.00  0.00    +0.000 A 
ATOM      6  C   UNL     1       1.824   8.772  18.963  0.00  0.00    +0.000 A 
ENDROOT
BRANCH   1  10
ATOM      7  C   UNL     1      -1.140  11.228  22.396  0.00  0.00    +0.000 A 
ATOM      8  C   UNL     1      -0.627  10.096  23.041  0.00  0.00    +0.000 A 
ATOM      9  C   UNL     1       0.127   9.151  22.327  0.00  0.00    +0.000 A 
ATOM     10  C   UNL     1       0.394   9.310  20.956  0.00  0.00    +0.000 A 
ATOM     11  C   UNL     1      -0.160  10.448  20.328  0.00  0.00    +0.000 A 
ATOM     12  C   UNL     1      -0.894  11.408  21.036  0.00  0.00    +0.000 A 
BRANCH   7  14
ATOM     13  O   UNL     1      -1.397  13.295  23.540  0.00  0.00    +0.000 OA
ATOM     14  C   UNL     1      -1.884  12.236  23.199  0.00  0.00    +0.000 C 
BRANCH  14  15
ATOM     15  O   UNL     1      -3.132  11.848  23.536  0.00  0.00    +0.000 OA
ATOM     16  H   UNL     1      -3.193  10.998  24.003  0.00  0.00    +0.000 HD
ENDBRANCH  14  15
ENDBRANCH   7  14
ENDBRANCH   1  10
BRANCH   4  17
ATOM     17  O   UNL     1       3.665   5.899  17.778  0.00  0.00    +0.000 OA
BRANCH  17  18
ATOM     18  C   UNL     1       4.562   4.905  18.278  0.00  0.00    +0.000 C 
ATOM     19  O   UNL     1       5.016   3.968  17.285  0.00  0.00    +0.000 OA
ATOM     20  C   UNL     1       5.696   4.598  16.186  0.00  0.00    +0.000 C 
ATOM     21  C   UNL     1       6.963   5.339  16.648  0.00  0.00    +0.000 C 
ATOM     22  C   UNL     1       6.613   6.311  17.792  0.00  0.00    +0.000 C 
ATOM     23  C   UNL     1       5.798   5.604  18.891  0.00  0.00    +0.000 C 
BRANCH  21  24
ATOM     24  O   UNL     1       7.584   6.036  15.561  0.00  0.00    +0.000 OA
ATOM     25  H   UNL     1       6.947   6.649  15.156  0.00  0.00    +0.000 HD
ENDBRANCH  21  24
BRANCH  22  26
ATOM     26  O   UNL     1       7.809   6.864  18.360  0.00  0.00    +0.000 OA
ATOM     27  H   UNL     1       8.447   6.966  17.627  0.00  0.00    +0.000 HD
ENDBRANCH  22  26
BRANCH  23  28
ATOM     28  O   UNL     1       6.648   4.647  19.560  0.00  0.00    +0.000 OA
ATOM     29  H   UNL     1       6.137   4.255  20.292  0.00  0.00    +0.000 HD
ENDBRANCH  23  28
BRANCH  20  30
ATOM     30  C   UNL     1       6.017   3.505  15.160  0.00  0.00    +0.000 C 
BRANCH  30  31
ATOM     31  O   UNL     1       6.435   4.080  13.924  0.00  0.00    +0.000 OA
ATOM     32  H   UNL     1       6.791   4.960  14.147  0.00  0.00    +0.000 HD
ENDBRANCH  30  31
ENDBRANCH  20  30
ENDBRANCH  17  18
ENDBRANCH   4  17
TORSDOF 10
ENDMDL
MODEL 7
REMARK VINA RESULT:      -7.9      0.651      1.272
REMARK  Name = 
REMARK  10 active torsions:
REMARK  status: ('A' for Active; 'I' for Inactive)
REMARK    1  A    between atoms: C_2  and  O_3
REMARK    2  A    between atoms: C_2  and  C_4
REMARK    3  A    between atoms: C_7  and  C_8
REMARK    4  A    between atoms: C_11  and  O_12
REMARK    5  A    between atoms: O_12  and  C_13
REMARK    6  A    between atoms: C_15  and  C_16
REMARK    7  A    between atoms: C_16  and  O_17
REMARK    8  A    between atoms: C_18  and  O_19
REMARK    9  A    between atoms: C_20  and  O_21
REMARK   10  A    between atoms: C_22  and  O_23
REMARK                            x       y       z     vdW  Elec       q    Type
REMARK                         _______ _______ _______ _____ _____    ______ ____
ROOT
ATOM      1  C   UNL     1       1.478   8.335  19.968  0.00  0.00    +0.000 A 
ATOM      2  C   UNL     1       1.928   7.125  20.527  0.00  0.00    +0.000 A 
ATOM      3  C   UNL     1       2.756   6.237  19.807  0.00  0.00    +0.000 A 
ATOM      4  C   UNL     1       3.137   6.533  18.502  0.00  0.00    +0.000 A 
ATOM      5  C   UNL     1       2.728   7.739  17.944  0.00  0.00    +0.000 A 
ATOM      6  C   UNL     1       1.920   8.623  18.663  0.00  0.00    +0.000 A 
ENDROOT
BRANCH   1  10
ATOM      7  C   UNL     1      -0.963  11.258  22.032  0.00  0.00    +0.000 A 
ATOM      8  C   UNL     1      -0.350  10.224  22.749  0.00  0.00    +0.000 A 
ATOM      9  C   UNL     1       0.415   9.254  22.082  0.00  0.00    +0.000 A 
ATOM     10  C   UNL     1       0.596   9.292  20.689  0.00  0.00    +0.000 A 
ATOM     11  C   UNL     1      -0.058  10.332  19.992  0.00  0.00    +0.000 A 
ATOM     12  C   UNL     1      -0.804  11.317  20.648  0.00  0.00    +0.000 A 
BRANCH   7  14
ATOM     13  O   UNL     1      -1.192  13.051  23.575  0.00  0.00    +0.000 OA
ATOM     14  C   UNL     1      -1.718  12.301  22.779  0.00  0.00    +0.000 C 
BRANCH  14  15
ATOM     15  O   UNL     1      -3.041  12.307  22.513  0.00  0.00    +0.000 OA
ATOM     16  H   UNL     1      -3.376  11.529  22.038  0.00  0.00    +0.000 HD
ENDBRANCH  14  15
ENDBRANCH   7  14
ENDBRANCH   1  10
BRANCH   4  17
ATOM     17  O   UNL     1       3.871   5.755  17.655  0.00  0.00    +0.000 OA
BRANCH  17  18
ATOM     18  C   UNL     1       4.743   6.376  16.708  0.00  0.00    +0.000 C 
ATOM     19  O   UNL     1       5.929   6.949  17.288  0.00  0.00    +0.000 OA
ATOM     20  C   UNL     1       6.731   5.988  17.995  0.00  0.00    +0.000 C 
ATOM     21  C   UNL     1       7.238   4.873  17.064  0.00  0.00    +0.000 C 
ATOM     22  C   UNL     1       6.052   4.245  16.306  0.00  0.00    +0.000 C 
ATOM     23  C   UNL     1       5.173   5.328  15.655  0.00  0.00    +0.000 C 
BRANCH  21  24
ATOM     24  O   UNL     1       7.961   3.875  17.793  0.00  0.00    +0.000 OA
ATOM     25  H   UNL     1       8.790   3.664  17.330  0.00  0.00    +0.000 HD
ENDBRANCH  21  24
BRANCH  22  26
ATOM     26  O   UNL     1       6.527   3.341  15.297  0.00  0.00    +0.000 OA
ATOM     27  H   UNL     1       6.628   2.469  15.727  0.00  0.00    +0.000 HD
ENDBRANCH  22  26
BRANCH  23  28
ATOM     28  O   UNL     1       5.915   5.952  14.586  0.00  0.00    +0.000 OA
ATOM     29  H   UNL     1       5.308   6.071  13.831  0.00  0.00    +0.000 HD
ENDBRANCH  23  28
BRANCH  20  30
ATOM     30  C   UNL     1       7.887   6.752  18.652  0.00  0.00    +0.000 C 
BRANCH  30  31
ATOM     31  O   UNL     1       8.422   6.013  19.747  0.00  0.00    +0.000 OA
ATOM     32  H   UNL     1       9.366   6.252  19.794  0.00  0.00    +0.000 HD
ENDBRANCH  30  31
ENDBRANCH  20  30
ENDBRANCH  17  18
ENDBRANCH   4  17
TORSDOF 10
ENDMDL
MODEL 8
REMARK VINA RESULT:      -7.9      1.272      2.466
REMARK  Name = 
REMARK  10 active torsions:
REMARK  status: ('A' for Active; 'I' for Inactive)
REMARK    1  A    between atoms: C_2  and  O_3
REMARK    2  A    between atoms: C_2  and  C_4
REMARK    3  A    between atoms: C_7  and  C_8
REMARK    4  A    between atoms: C_11  and  O_12
REMARK    5  A    between atoms: O_12  and  C_13
REMARK    6  A    between atoms: C_15  and  C_16
REMARK    7  A    between atoms: C_16  and  O_17
REMARK    8  A    between atoms: C_18  and  O_19
REMARK    9  A    between atoms: C_20  and  O_21
REMARK   10  A    between atoms: C_22  and  O_23
REMARK                            x       y       z     vdW  Elec       q    Type
REMARK                         _______ _______ _______ _____ _____    ______ ____
ROOT
ATOM      1  C   UNL     1       1.035   9.079  19.878  0.00  0.00    +0.000 A 
ATOM      2  C   UNL     1       1.358   9.456  18.561  0.00  0.00    +0.000 A 
ATOM      3  C   UNL     1       2.220   8.681  17.757  0.00  0.00    +0.000 A 
ATOM      4  C   UNL     1       2.794   7.518  18.261  0.00  0.00    +0.000 A 
ATOM      5  C   UNL     1       2.462   7.112  19.549  0.00  0.00    +0.000 A 
ATOM      6  C   UNL     1       1.598   7.874  20.339  0.00  0.00    +0.000 A 
ENDROOT
BRANCH   1  10
ATOM      7  C   UNL     1      -1.452  11.540  22.432  0.00  0.00    +0.000 A 
ATOM      8  C   UNL     1      -0.792  10.424  22.960  0.00  0.00    +0.000 A 
ATOM      9  C   UNL     1      -0.010   9.603  22.131  0.00  0.00    +0.000 A 
ATOM     10  C   UNL     1       0.140   9.874  20.760  0.00  0.00    +0.000 A 
ATOM     11  C   UNL     1      -0.561  10.991  20.253  0.00  0.00    +0.000 A 
ATOM     12  C   UNL     1      -1.325  11.830  21.074  0.00  0.00    +0.000 A 
BRANCH   7  14
ATOM     13  O   UNL     1      -1.837  13.520  23.688  0.00  0.00    +0.000 OA
ATOM     14  C   UNL     1      -2.224  12.420  23.352  0.00  0.00    +0.000 C 
BRANCH  14  15
ATOM     15  O   UNL     1      -3.370  11.865  23.798  0.00  0.00    +0.000 OA
ATOM     16  H   UNL     1      -3.831  12.360  24.495  0.00  0.00    +0.000 HD
ENDBRANCH  14  15
ENDBRANCH   7  14
ENDBRANCH   1  10
BRANCH   4  17
ATOM     17  O   UNL     1       3.694   6.700  17.642  0.00  0.00    +0.000 OA
BRANCH  17  18
ATOM     18  C   UNL     1       3.721   5.309  17.967  0.00  0.00    +0.000 C 
ATOM     19  O   UNL     1       4.163   4.461  16.891  0.00  0.00    +0.000 OA
ATOM     20  C   UNL     1       5.484   4.784  16.426  0.00  0.00    +0.000 C 
ATOM     21  C   UNL     1       6.537   4.610  17.534  0.00  0.00    +0.000 C 
ATOM     22  C   UNL     1       6.115   5.403  18.787  0.00  0.00    +0.000 C 
ATOM     23  C   UNL     1       4.659   5.091  19.177  0.00  0.00    +0.000 C 
BRANCH  21  24
ATOM     24  O   UNL     1       7.836   5.018  17.088  0.00  0.00    +0.000 OA
ATOM     25  H   UNL     1       8.231   5.625  17.736  0.00  0.00    +0.000 HD
ENDBRANCH  21  24
BRANCH  22  26
ATOM     26  O   UNL     1       6.984   5.096  19.888  0.00  0.00    +0.000 OA
ATOM     27  H   UNL     1       7.309   5.949  20.235  0.00  0.00    +0.000 HD
ENDBRANCH  22  26
BRANCH  23  28
ATOM     28  O   UNL     1       4.582   3.728  19.645  0.00  0.00    +0.000 OA
ATOM     29  H   UNL     1       3.743   3.349  19.322  0.00  0.00    +0.000 HD
ENDBRANCH  23  28
BRANCH  20  30
ATOM     30  C   UNL     1       5.775   3.889  15.217  0.00  0.00    +0.000 C 
BRANCH  30  31
ATOM     31  O   UNL     1       6.763   4.481  14.376  0.00  0.00    +0.000 OA
ATOM     32  H   UNL     1       7.091   3.762  13.805  0.00  0.00    +0.000 HD
ENDBRANCH  30  31
ENDBRANCH  20  30
ENDBRANCH  17  18
ENDBRANCH   4  17
TORSDOF 10
ENDMDL
MODEL 9
REMARK VINA RESULT:      -7.8      1.596      3.009
REMARK  Name = 
REMARK  10 active torsions:
REMARK  status: ('A' for Active; 'I' for Inactive)
REMARK    1  A    between atoms: C_2  and  O_3
REMARK    2  A    between atoms: C_2  and  C_4
REMARK    3  A    between atoms: C_7  and  C_8
REMARK    4  A    between atoms: C_11  and  O_12
REMARK    5  A    between atoms: O_12  and  C_13
REMARK    6  A    between atoms: C_15  and  C_16
REMARK    7  A    between atoms: C_16  and  O_17
REMARK    8  A    between atoms: C_18  and  O_19
REMARK    9  A    between atoms: C_20  and  O_21
REMARK   10  A    between atoms: C_22  and  O_23
REMARK                            x       y       z     vdW  Elec       q    Type
REMARK                         _______ _______ _______ _____ _____    ______ ____
ROOT
ATOM      1  C   UNL     1       0.922   9.115  20.234  0.00  0.00    +0.000 A 
ATOM      2  C   UNL     1       1.287   9.356  18.897  0.00  0.00    +0.000 A 
ATOM      3  C   UNL     1       2.099   8.455  18.176  0.00  0.00    +0.000 A 
ATOM      4  C   UNL     1       2.577   7.298  18.784  0.00  0.00    +0.000 A 
ATOM      5  C   UNL     1       2.200   7.027  20.095  0.00  0.00    +0.000 A 
ATOM      6  C   UNL     1       1.386   7.914  20.803  0.00  0.00    +0.000 A 
ENDROOT
BRANCH   1  10
ATOM      7  C   UNL     1      -1.667  11.687  22.570  0.00  0.00    +0.000 A 
ATOM      8  C   UNL     1      -1.416  11.979  21.224  0.00  0.00    +0.000 A 
ATOM      9  C   UNL     1      -0.552  11.169  20.469  0.00  0.00    +0.000 A 
ATOM     10  C   UNL     1       0.078  10.045  21.032  0.00  0.00    +0.000 A 
ATOM     11  C   UNL     1      -0.175   9.793  22.399  0.00  0.00    +0.000 A 
ATOM     12  C   UNL     1      -1.051  10.580  23.154  0.00  0.00    +0.000 A 
BRANCH   7  14
ATOM     13  O   UNL     1      -2.520  13.738  23.412  0.00  0.00    +0.000 OA
ATOM     14  C   UNL     1      -2.633  12.533  23.321  0.00  0.00    +0.000 C 
BRANCH  14  15
ATOM     15  O   UNL     1      -3.621  11.832  23.915  0.00  0.00    +0.000 OA
ATOM     16  H   UNL     1      -3.754  10.929  23.580  0.00  0.00    +0.000 HD
ENDBRANCH  14  15
ENDBRANCH   7  14
ENDBRANCH   1  10
BRANCH   4  17
ATOM     17  O   UNL     1       3.420   6.367  18.250  0.00  0.00    +0.000 OA
BRANCH  17  18
ATOM     18  C   UNL     1       4.231   5.572  19.118  0.00  0.00    +0.000 C 
ATOM     19  O   UNL     1       3.963   4.160  19.043  0.00  0.00    +0.000 OA
ATOM     20  C   UNL     1       4.150   3.621  17.724  0.00  0.00    +0.000 C 
ATOM     21  C   UNL     1       5.603   3.781  17.242  0.00  0.00    +0.000 C 
ATOM     22  C   UNL     1       6.037   5.255  17.372  0.00  0.00    +0.000 C 
ATOM     23  C   UNL     1       5.720   5.806  18.774  0.00  0.00    +0.000 C 
BRANCH  21  24
ATOM     24  O   UNL     1       5.759   3.322  15.895  0.00  0.00    +0.000 OA
ATOM     25  H   UNL     1       4.912   3.395  15.422  0.00  0.00    +0.000 HD
ENDBRANCH  21  24
BRANCH  22  26
ATOM     26  O   UNL     1       7.443   5.385  17.111  0.00  0.00    +0.000 OA
ATOM     27  H   UNL     1       7.527   5.791  16.226  0.00  0.00    +0.000 HD
ENDBRANCH  22  26
BRANCH  23  28
ATOM     28  O   UNL     1       6.576   5.155  19.737  0.00  0.00    +0.000 OA
ATOM     29  H   UNL     1       6.847   5.823  20.394  0.00  0.00    +0.000 HD
ENDBRANCH  23  28
BRANCH  20  30
ATOM     30  C   UNL     1       3.723   2.149  17.766  0.00  0.00    +0.000 C 
BRANCH  30  31
ATOM     31  O   UNL     1       4.203   1.518  18.950  0.00  0.00    +0.000 OA
ATOM     32  H   UNL     1       3.410   1.285  19.467  0.00  0.00    +0.000 HD
ENDBRANCH  30  31
ENDBRANCH  20  30
ENDBRANCH  17  18
ENDBRANCH   4  17
TORSDOF 10
ENDMDL
