MODEL 1
REMARK VINA RESULT:      -6.5      0.000      0.000
REMARK  Name = 
REMARK  1 active torsions:
REMARK  status: ('A' for Active; 'I' for Inactive)
REMARK    1  A    between atoms: C_1  and  N_2
REMARK                            x       y       z     vdW  Elec       q    Type
REMARK                         _______ _______ _______ _____ _____    ______ ____
ROOT
ATOM      1  C   UNL     1       7.127   4.806  15.067  0.00  0.00    +0.000 C 
ATOM      2  N   UNL     1       6.382   4.741  16.305  0.00  0.00    +0.000 N 
ATOM      3  C   UNL     1       7.094   4.617  17.490  0.00  0.00    +0.000 C 
ATOM      4  O   UNL     1       8.255   4.245  17.579  0.00  0.00    +0.000 OA
ATOM      5  C   UNL     1       6.306   4.967  18.740  0.00  0.00    +0.000 C 
ATOM      6  O   UNL     1       6.875   5.310  19.765  0.00  0.00    +0.000 OA
ATOM      7  C   UNL     1       4.840   4.912  18.659  0.00  0.00    +0.000 A 
ATOM      8  C   UNL     1       4.062   5.235  19.777  0.00  0.00    +0.000 A 
ATOM      9  C   UNL     1       2.673   5.152  19.699  0.00  0.00    +0.000 A 
ATOM     10  C   UNL     1       2.065   4.716  18.522  0.00  0.00    +0.000 A 
ATOM     11  C   UNL     1       2.843   4.409  17.404  0.00  0.00    +0.000 A 
ATOM     12  C   UNL     1       4.236   4.541  17.462  0.00  0.00    +0.000 A 
ATOM     13  C   UNL     1       5.039   4.402  16.226  0.00  0.00    +0.000 C 
ATOM     14  O   UNL     1       4.495   4.009  15.197  0.00  0.00    +0.000 OA
ENDROOT
TORSDOF 0
ENDMDL
MODEL 2
REMARK VINA RESULT:      -6.4      2.912      4.511
REMARK  Name = 
REMARK  1 active torsions:
REMARK  status: ('A' for Active; 'I' for Inactive)
REMARK    1  A    between atoms: C_1  and  N_2
REMARK                            x       y       z     vdW  Elec       q    Type
REMARK                         _______ _______ _______ _____ _____    ______ ____
ROOT
ATOM      1  C   UNL     1       2.725   2.713  20.930  0.00  0.00    +0.000 C 
ATOM      2  N   UNL     1       2.958   3.718  19.916  0.00  0.00    +0.000 N 
ATOM      3  C   UNL     1       2.263   4.916  20.012  0.00  0.00    +0.000 C 
ATOM      4  O   UNL     1       1.253   5.093  20.677  0.00  0.00    +0.000 OA
ATOM      5  C   UNL     1       2.844   6.050  19.186  0.00  0.00    +0.000 C 
ATOM      6  O   UNL     1       2.622   7.216  19.479  0.00  0.00    +0.000 OA
ATOM      7  C   UNL     1       3.704   5.695  18.051  0.00  0.00    +0.000 A 
ATOM      8  C   UNL     1       4.276   6.699  17.261  0.00  0.00    +0.000 A 
ATOM      9  C   UNL     1       5.068   6.352  16.168  0.00  0.00    +0.000 A 
ATOM     10  C   UNL     1       5.261   5.009  15.845  0.00  0.00    +0.000 A 
ATOM     11  C   UNL     1       4.702   4.010  16.643  0.00  0.00    +0.000 A 
ATOM     12  C   UNL     1       3.949   4.354  17.772  0.00  0.00    +0.000 A 
ATOM     13  C   UNL     1       3.521   3.300  18.719  0.00  0.00    +0.000 C 
ATOM     14  O   UNL     1       3.689   2.120  18.421  0.00  0.00    +0.000 OA
ENDROOT
TORSDOF 0
ENDMDL
MODEL 3
REMARK VINA RESULT:      -6.3      2.812      4.683
REMARK  Name = 
REMARK  1 active torsions:
REMARK  status: ('A' for Active; 'I' for Inactive)
REMARK    1  A    between atoms: C_1  and  N_2
REMARK                            x       y       z     vdW  Elec       q    Type
REMARK                         _______ _______ _______ _____ _____    ______ ____
ROOT
ATOM      1  C   UNL     1       1.098   4.754  20.449  0.00  0.00    +0.000 C 
ATOM      2  N   UNL     1       2.181   4.575  19.507  0.00  0.00    +0.000 N 
ATOM      3  C   UNL     1       2.763   3.319  19.412  0.00  0.00    +0.000 C 
ATOM      4  O   UNL     1       2.672   2.434  20.251  0.00  0.00    +0.000 OA
ATOM      5  C   UNL     1       3.581   3.096  18.152  0.00  0.00    +0.000 C 
ATOM      6  O   UNL     1       3.788   1.968  17.730  0.00  0.00    +0.000 OA
ATOM      7  C   UNL     1       4.081   4.282  17.445  0.00  0.00    +0.000 A 
ATOM      8  C   UNL     1       4.830   4.137  16.272  0.00  0.00    +0.000 A 
ATOM      9  C   UNL     1       5.325   5.268  15.624  0.00  0.00    +0.000 A 
ATOM     10  C   UNL     1       5.101   6.535  16.163  0.00  0.00    +0.000 A 
ATOM     11  C   UNL     1       4.340   6.677  17.324  0.00  0.00    +0.000 A 
ATOM     12  C   UNL     1       3.797   5.547  17.949  0.00  0.00    +0.000 A 
ATOM     13  C   UNL     1       2.837   5.714  19.064  0.00  0.00    +0.000 C 
ATOM     14  O   UNL     1       2.653   6.833  19.536  0.00  0.00    +0.000 OA
ENDROOT
TORSDOF 0
ENDMDL
MODEL 4
REMARK VINA RESULT:      -6.2      3.151      5.374
REMARK  Name = 
REMARK  1 active torsions:
REMARK  status: ('A' for Active; 'I' for Inactive)
REMARK    1  A    between atoms: C_1  and  N_2
REMARK                            x       y       z     vdW  Elec       q    Type
REMARK                         _______ _______ _______ _____ _____    ______ ____
ROOT
ATOM      1  C   UNL     1       1.406   2.440  21.551  0.00  0.00    +0.000 C 
ATOM      2  N   UNL     1       2.019   2.919  20.330  0.00  0.00    +0.000 N 
ATOM      3  C   UNL     1       1.242   2.953  19.180  0.00  0.00    +0.000 C 
ATOM      4  O   UNL     1       0.200   2.336  19.014  0.00  0.00    +0.000 OA
ATOM      5  C   UNL     1       1.796   3.830  18.071  0.00  0.00    +0.000 C 
ATOM      6  O   UNL     1       1.063   4.288  17.208  0.00  0.00    +0.000 OA
ATOM      7  C   UNL     1       3.233   4.132  18.095  0.00  0.00    +0.000 A 
ATOM      8  C   UNL     1       3.797   4.943  17.104  0.00  0.00    +0.000 A 
ATOM      9  C   UNL     1       5.167   5.201  17.118  0.00  0.00    +0.000 A 
ATOM     10  C   UNL     1       5.975   4.623  18.098  0.00  0.00    +0.000 A 
ATOM     11  C   UNL     1       5.407   3.827  19.093  0.00  0.00    +0.000 A 
ATOM     12  C   UNL     1       4.024   3.609  19.112  0.00  0.00    +0.000 A 
ATOM     13  C   UNL     1       3.404   2.927  20.271  0.00  0.00    +0.000 C 
ATOM     14  O   UNL     1       4.125   2.415  21.124  0.00  0.00    +0.000 OA
ENDROOT
TORSDOF 0
ENDMDL
MODEL 5
REMARK VINA RESULT:      -6.1      2.004      2.838
REMARK  Name = 
REMARK  1 active torsions:
REMARK  status: ('A' for Active; 'I' for Inactive)
REMARK    1  A    between atoms: C_1  and  N_2
REMARK                            x       y       z     vdW  Elec       q    Type
REMARK                         _______ _______ _______ _____ _____    ______ ____
ROOT
ATOM      1  C   UNL     1       7.169   7.517  17.368  0.00  0.00    +0.000 C 
ATOM      2  N   UNL     1       6.208   6.472  17.085  0.00  0.00    +0.000 N 
ATOM      3  C   UNL     1       6.533   5.531  16.118  0.00  0.00    +0.000 C 
ATOM      4  O   UNL     1       7.398   5.666  15.265  0.00  0.00    +0.000 OA
ATOM      5  C   UNL     1       5.698   4.264  16.166  0.00  0.00    +0.000 C 
ATOM      6  O   UNL     1       6.117   3.218  15.692  0.00  0.00    +0.000 OA
ATOM      7  C   UNL     1       4.389   4.334  16.828  0.00  0.00    +0.000 A 
ATOM      8  C   UNL     1       3.581   3.195  16.911  0.00  0.00    +0.000 A 
ATOM      9  C   UNL     1       2.328   3.279  17.517  0.00  0.00    +0.000 A 
ATOM     10  C   UNL     1       1.870   4.502  18.007  0.00  0.00    +0.000 A 
ATOM     11  C   UNL     1       2.685   5.633  17.936  0.00  0.00    +0.000 A 
ATOM     12  C   UNL     1       3.965   5.541  17.375  0.00  0.00    +0.000 A 
ATOM     13  C   UNL     1       4.895   6.689  17.475  0.00  0.00    +0.000 C 
ATOM     14  O   UNL     1       4.479   7.764  17.900  0.00  0.00    +0.000 OA
ENDROOT
TORSDOF 0
ENDMDL
MODEL 6
REMARK VINA RESULT:      -6.0      1.992      2.269
REMARK  Name = 
REMARK  1 active torsions:
REMARK  status: ('A' for Active; 'I' for Inactive)
REMARK    1  A    between atoms: C_1  and  N_2
REMARK                            x       y       z     vdW  Elec       q    Type
REMARK                         _______ _______ _______ _____ _____    ______ ____
ROOT
ATOM      1  C   UNL     1       6.725   5.254  14.772  0.00  0.00    +0.000 C 
ATOM      2  N   UNL     1       5.695   5.268  15.788  0.00  0.00    +0.000 N 
ATOM      3  C   UNL     1       5.553   6.415  16.558  0.00  0.00    +0.000 C 
ATOM      4  O   UNL     1       6.398   7.290  16.682  0.00  0.00    +0.000 OA
ATOM      5  C   UNL     1       4.229   6.521  17.293  0.00  0.00    +0.000 C 
ATOM      6  O   UNL     1       3.792   7.606  17.646  0.00  0.00    +0.000 OA
ATOM      7  C   UNL     1       3.481   5.280  17.532  0.00  0.00    +0.000 A 
ATOM      8  C   UNL     1       2.250   5.318  18.196  0.00  0.00    +0.000 A 
ATOM      9  C   UNL     1       1.561   4.132  18.444  0.00  0.00    +0.000 A 
ATOM     10  C   UNL     1       2.115   2.910  18.062  0.00  0.00    +0.000 A 
ATOM     11  C   UNL     1       3.336   2.877  17.386  0.00  0.00    +0.000 A 
ATOM     12  C   UNL     1       4.006   4.070  17.089  0.00  0.00    +0.000 A 
ATOM     13  C   UNL     1       5.197   4.045  16.210  0.00  0.00    +0.000 C 
ATOM     14  O   UNL     1       5.682   2.963  15.886  0.00  0.00    +0.000 OA
ENDROOT
TORSDOF 0
ENDMDL
MODEL 7
REMARK VINA RESULT:      -6.0      1.840      3.934
REMARK  Name = 
REMARK  1 active torsions:
REMARK  status: ('A' for Active; 'I' for Inactive)
REMARK    1  A    between atoms: C_1  and  N_2
REMARK                            x       y       z     vdW  Elec       q    Type
REMARK                         _______ _______ _______ _____ _____    ______ ____
ROOT
ATOM      1  C   UNL     1       2.038   2.993  19.235  0.00  0.00    +0.000 C 
ATOM      2  N   UNL     1       3.195   3.652  18.668  0.00  0.00    +0.000 N 
ATOM      3  C   UNL     1       3.848   4.603  19.440  0.00  0.00    +0.000 C 
ATOM      4  O   UNL     1       3.374   5.166  20.416  0.00  0.00    +0.000 OA
ATOM      5  C   UNL     1       5.252   4.941  18.970  0.00  0.00    +0.000 C 
ATOM      6  O   UNL     1       6.077   5.407  19.742  0.00  0.00    +0.000 OA
ATOM      7  C   UNL     1       5.590   4.655  17.570  0.00  0.00    +0.000 A 
ATOM      8  C   UNL     1       6.871   4.935  17.084  0.00  0.00    +0.000 A 
ATOM      9  C   UNL     1       7.174   4.688  15.746  0.00  0.00    +0.000 A 
ATOM     10  C   UNL     1       6.190   4.194  14.889  0.00  0.00    +0.000 A 
ATOM     11  C   UNL     1       4.917   3.900  15.380  0.00  0.00    +0.000 A 
ATOM     12  C   UNL     1       4.625   4.099  16.735  0.00  0.00    +0.000 A 
ATOM     13  C   UNL     1       3.342   3.610  17.289  0.00  0.00    +0.000 C 
ATOM     14  O   UNL     1       2.480   3.185  16.525  0.00  0.00    +0.000 OA
ENDROOT
TORSDOF 0
ENDMDL
MODEL 8
REMARK VINA RESULT:      -6.0      2.808      3.771
REMARK  Name = 
REMARK  1 active torsions:
REMARK  status: ('A' for Active; 'I' for Inactive)
REMARK    1  A    between atoms: C_1  and  N_2
REMARK                            x       y       z     vdW  Elec       q    Type
REMARK                         _______ _______ _______ _____ _____    ______ ____
ROOT
ATOM      1  C   UNL     1       2.305   1.804  19.469  0.00  0.00    +0.000 C 
ATOM      2  N   UNL     1       3.034   3.022  19.190  0.00  0.00    +0.000 N 
ATOM      3  C   UNL     1       4.399   3.039  19.438  0.00  0.00    +0.000 C 
ATOM      4  O   UNL     1       4.995   2.247  20.154  0.00  0.00    +0.000 OA
ATOM      5  C   UNL     1       5.152   4.165  18.752  0.00  0.00    +0.000 C 
ATOM      6  O   UNL     1       6.350   4.073  18.527  0.00  0.00    +0.000 OA
ATOM      7  C   UNL     1       4.384   5.347  18.341  0.00  0.00    +0.000 A 
ATOM      8  C   UNL     1       5.023   6.411  17.695  0.00  0.00    +0.000 A 
ATOM      9  C   UNL     1       4.291   7.541  17.335  0.00  0.00    +0.000 A 
ATOM     10  C   UNL     1       2.934   7.622  17.648  0.00  0.00    +0.000 A 
ATOM     11  C   UNL     1       2.296   6.553  18.278  0.00  0.00    +0.000 A 
ATOM     12  C   UNL     1       3.017   5.395  18.595  0.00  0.00    +0.000 A 
ATOM     13  C   UNL     1       2.301   4.195  19.086  0.00  0.00    +0.000 C 
ATOM     14  O   UNL     1       1.108   4.280  19.366  0.00  0.00    +0.000 OA
ENDROOT
TORSDOF 0
ENDMDL
MODEL 9
REMARK VINA RESULT:      -5.9      1.556      3.371
REMARK  Name = 
REMARK  1 active torsions:
REMARK  status: ('A' for Active; 'I' for Inactive)
REMARK    1  A    between atoms: C_1  and  N_2
REMARK                            x       y       z     vdW  Elec       q    Type
REMARK                         _______ _______ _______ _____ _____    ______ ____
ROOT
ATOM      1  C   UNL     1       6.789   4.461  17.610  0.00  0.00    +0.000 C 
ATOM      2  N   UNL     1       5.363   4.354  17.830  0.00  0.00    +0.000 N 
ATOM      3  C   UNL     1       4.554   4.062  16.740  0.00  0.00    +0.000 C 
ATOM      4  O   UNL     1       4.877   4.193  15.568  0.00  0.00    +0.000 OA
ATOM      5  C   UNL     1       3.166   3.564  17.100  0.00  0.00    +0.000 C 
ATOM      6  O   UNL     1       2.518   2.890  16.313  0.00  0.00    +0.000 OA
ATOM      7  C   UNL     1       2.649   3.893  18.434  0.00  0.00    +0.000 A 
ATOM      8  C   UNL     1       1.380   3.451  18.824  0.00  0.00    +0.000 A 
ATOM      9  C   UNL     1       0.885   3.792  20.082  0.00  0.00    +0.000 A 
ATOM     10  C   UNL     1       1.641   4.599  20.933  0.00  0.00    +0.000 A 
ATOM     11  C   UNL     1       2.912   5.025  20.547  0.00  0.00    +0.000 A 
ATOM     12  C   UNL     1       3.434   4.641  19.305  0.00  0.00    +0.000 A 
ATOM     13  C   UNL     1       4.848   4.932  18.980  0.00  0.00    +0.000 C 
ATOM     14  O   UNL     1       5.502   5.651  19.733  0.00  0.00    +0.000 OA
ENDROOT
TORSDOF 0
ENDMDL
