MODEL 1
REMARK VINA RESULT:      -8.1      0.000      0.000
REMARK  Name = 
REMARK  8 active torsions:
REMARK  status: ('A' for Active; 'I' for Inactive)
REMARK    1  A    between atoms: C_1  and  C_2
REMARK    2  A    between atoms: C_4  and  C_5
REMARK    3  A    between atoms: C_5  and  O_7
REMARK    4  A    between atoms: O_7  and  C_8
REMARK    5  A    between atoms: C_8  and  C_9
REMARK    6  A    between atoms: N_11  and  C_12
REMARK    7  A    between atoms: C_18  and  C_19
REMARK    8  A    between atoms: C_20  and  C_21
REMARK                            x       y       z     vdW  Elec       q    Type
REMARK                         _______ _______ _______ _____ _____    ______ ____
ROOT
ATOM      1  C   UNL     1       2.329   5.636  20.175  0.00  0.00    +0.000 C 
ATOM      2  O   UNL     1       1.242   5.180  20.528  0.00  0.00    +0.000 OA
ATOM      3  N   UNL     1       2.623   6.976  19.966  0.00  0.00    +0.000 N 
ATOM      4  H   UNL     1       3.480   7.175  19.449  0.00  0.00    +0.000 HD
ENDROOT
BRANCH   3   5
ATOM      5  C   UNL     1       1.744   8.066  20.208  0.00  0.00    +0.000 A 
ATOM      6  C   UNL     1       1.230   8.308  21.490  0.00  0.00    +0.000 A 
ATOM      7  C   UNL     1       0.336   9.351  21.725  0.00  0.00    +0.000 A 
ATOM      8 CL   UNL     1      -0.309   9.583  23.304  0.00  0.00    +0.000 Cl
ATOM      9  C   UNL     1      -0.039  10.198  20.695  0.00  0.00    +0.000 A 
ATOM     10  C   UNL     1       0.487   9.999  19.419  0.00  0.00    +0.000 A 
ATOM     11  C   UNL     1       1.373   8.934  19.155  0.00  0.00    +0.000 A 
ATOM     12  C   UNL     1       1.866   8.769  17.742  0.00  0.00    +0.000 C 
ENDBRANCH   3   5
BRANCH   1  13
ATOM     13  C   UNL     1       3.482   4.675  19.881  0.00  0.00    +0.000 C 
BRANCH  13  14
ATOM     14  O   UNL     1       4.110   4.953  18.630  0.00  0.00    +0.000 OA
BRANCH  14  15
ATOM     15  C   UNL     1       5.468   5.002  18.689  0.00  0.00    +0.000 C 
ATOM     16  O   UNL     1       6.095   4.980  19.747  0.00  0.00    +0.000 OA
BRANCH  15  20
ATOM     17  C   UNL     1       6.927   4.503  13.813  0.00  0.00    +0.000 C 
ATOM     18  C   UNL     1       6.680   4.844  15.228  0.00  0.00    +0.000 A 
ATOM     19  C   UNL     1       5.897   4.305  16.223  0.00  0.00    +0.000 A 
ATOM     20  C   UNL     1       6.082   5.121  17.383  0.00  0.00    +0.000 A 
ATOM     21  C   UNL     1       6.985   6.102  17.001  0.00  0.00    +0.000 A 
ATOM     22  C   UNL     1       7.615   7.253  17.677  0.00  0.00    +0.000 C 
ATOM     23  O   UNL     1       7.346   5.933  15.700  0.00  0.00    +0.000 OA
ENDBRANCH  15  20
ENDBRANCH  14  15
ENDBRANCH  13  14
ENDBRANCH   1  13
TORSDOF 5
ENDMDL
MODEL 2
REMARK VINA RESULT:      -7.8      3.142      4.818
REMARK  Name = 
REMARK  8 active torsions:
REMARK  status: ('A' for Active; 'I' for Inactive)
REMARK    1  A    between atoms: C_1  and  C_2
REMARK    2  A    between atoms: C_4  and  C_5
REMARK    3  A    between atoms: C_5  and  O_7
REMARK    4  A    between atoms: O_7  and  C_8
REMARK    5  A    between atoms: C_8  and  C_9
REMARK    6  A    between atoms: N_11  and  C_12
REMARK    7  A    between atoms: C_18  and  C_19
REMARK    8  A    between atoms: C_20  and  C_21
REMARK                            x       y       z     vdW  Elec       q    Type
REMARK                         _______ _______ _______ _____ _____    ______ ____
ROOT
ATOM      1  C   UNL     1       6.273   4.543  18.014  0.00  0.00    +0.000 C 
ATOM      2  O   UNL     1       6.658   4.945  19.111  0.00  0.00    +0.000 OA
ATOM      3  N   UNL     1       4.984   4.135  17.700  0.00  0.00    +0.000 N 
ATOM      4  H   UNL     1       4.876   3.608  16.834  0.00  0.00    +0.000 HD
ENDROOT
BRANCH   3   5
ATOM      5  C   UNL     1       3.861   4.193  18.568  0.00  0.00    +0.000 A 
ATOM      6  C   UNL     1       3.381   5.421  19.046  0.00  0.00    +0.000 A 
ATOM      7  C   UNL     1       2.304   5.481  19.929  0.00  0.00    +0.000 A 
ATOM      8 CL   UNL     1       1.776   7.006  20.529  0.00  0.00    +0.000 Cl
ATOM      9  C   UNL     1       1.661   4.322  20.331  0.00  0.00    +0.000 A 
ATOM     10  C   UNL     1       2.099   3.092  19.841  0.00  0.00    +0.000 A 
ATOM     11  C   UNL     1       3.202   3.007  18.966  0.00  0.00    +0.000 A 
ATOM     12  C   UNL     1       3.631   1.637  18.513  0.00  0.00    +0.000 C 
ENDBRANCH   3   5
BRANCH   1  13
ATOM     13  C   UNL     1       7.280   4.418  16.869  0.00  0.00    +0.000 C 
BRANCH  13  14
ATOM     14  O   UNL     1       7.332   5.597  16.067  0.00  0.00    +0.000 OA
BRANCH  14  15
ATOM     15  C   UNL     1       6.278   5.739  15.218  0.00  0.00    +0.000 C 
ATOM     16  O   UNL     1       5.339   6.503  15.437  0.00  0.00    +0.000 OA
BRANCH  15  20
ATOM     17  C   UNL     1       5.579   2.234  11.561  0.00  0.00    +0.000 C 
ATOM     18  C   UNL     1       6.000   3.307  12.484  0.00  0.00    +0.000 A 
ATOM     19  C   UNL     1       5.511   3.797  13.673  0.00  0.00    +0.000 A 
ATOM     20  C   UNL     1       6.368   4.873  14.061  0.00  0.00    +0.000 A 
ATOM     21  C   UNL     1       7.333   4.950  13.067  0.00  0.00    +0.000 A 
ATOM     22  C   UNL     1       8.508   5.811  12.824  0.00  0.00    +0.000 C 
ATOM     23  O   UNL     1       7.109   4.003  12.116  0.00  0.00    +0.000 OA
ENDBRANCH  15  20
ENDBRANCH  14  15
ENDBRANCH  13  14
ENDBRANCH   1  13
TORSDOF 5
ENDMDL
MODEL 3
REMARK VINA RESULT:      -7.7      2.904      4.353
REMARK  Name = 
REMARK  8 active torsions:
REMARK  status: ('A' for Active; 'I' for Inactive)
REMARK    1  A    between atoms: C_1  and  C_2
REMARK    2  A    between atoms: C_4  and  C_5
REMARK    3  A    between atoms: C_5  and  O_7
REMARK    4  A    between atoms: O_7  and  C_8
REMARK    5  A    between atoms: C_8  and  C_9
REMARK    6  A    between atoms: N_11  and  C_12
REMARK    7  A    between atoms: C_18  and  C_19
REMARK    8  A    between atoms: C_20  and  C_21
REMARK                            x       y       z     vdW  Elec       q    Type
REMARK                         _______ _______ _______ _____ _____    ______ ____
ROOT
ATOM      1  C   UNL     1       6.250   5.455  18.630  0.00  0.00    +0.000 C 
ATOM      2  O   UNL     1       6.662   5.340  19.784  0.00  0.00    +0.000 OA
ATOM      3  N   UNL     1       4.922   5.398  18.229  0.00  0.00    +0.000 N 
ATOM      4  H   UNL     1       4.758   5.268  17.230  0.00  0.00    +0.000 HD
ENDROOT
BRANCH   3   5
ATOM      5  C   UNL     1       3.799   5.285  19.091  0.00  0.00    +0.000 A 
ATOM      6  C   UNL     1       3.618   4.152  19.897  0.00  0.00    +0.000 A 
ATOM      7  C   UNL     1       2.497   4.018  20.714  0.00  0.00    +0.000 A 
ATOM      8 CL   UNL     1       2.290   2.589  21.652  0.00  0.00    +0.000 Cl
ATOM      9  C   UNL     1       1.547   5.025  20.772  0.00  0.00    +0.000 A 
ATOM     10  C   UNL     1       1.723   6.177  20.005  0.00  0.00    +0.000 A 
ATOM     11  C   UNL     1       2.838   6.321  19.153  0.00  0.00    +0.000 A 
ATOM     12  C   UNL     1       2.933   7.581  18.334  0.00  0.00    +0.000 C 
ENDBRANCH   3   5
BRANCH   1  13
ATOM     13  C   UNL     1       7.256   5.631  17.491  0.00  0.00    +0.000 C 
BRANCH  13  14
ATOM     14  O   UNL     1       6.958   4.793  16.376  0.00  0.00    +0.000 OA
BRANCH  14  15
ATOM     15  C   UNL     1       6.356   5.439  15.340  0.00  0.00    +0.000 C 
ATOM     16  O   UNL     1       5.814   6.537  15.459  0.00  0.00    +0.000 OA
BRANCH  15  20
ATOM     17  C   UNL     1       5.503   2.252  11.433  0.00  0.00    +0.000 C 
ATOM     18  C   UNL     1       5.959   3.250  12.422  0.00  0.00    +0.000 A 
ATOM     19  C   UNL     1       5.533   3.622  13.676  0.00  0.00    +0.000 A 
ATOM     20  C   UNL     1       6.393   4.680  14.108  0.00  0.00    +0.000 A 
ATOM     21  C   UNL     1       7.295   4.865  13.071  0.00  0.00    +0.000 A 
ATOM     22  C   UNL     1       8.439   5.770  12.839  0.00  0.00    +0.000 C 
ATOM     23  O   UNL     1       7.033   3.999  12.054  0.00  0.00    +0.000 OA
ENDBRANCH  15  20
ENDBRANCH  14  15
ENDBRANCH  13  14
ENDBRANCH   1  13
TORSDOF 5
ENDMDL
MODEL 4
REMARK VINA RESULT:      -7.6      0.957      1.116
REMARK  Name = 
REMARK  8 active torsions:
REMARK  status: ('A' for Active; 'I' for Inactive)
REMARK    1  A    between atoms: C_1  and  C_2
REMARK    2  A    between atoms: C_4  and  C_5
REMARK    3  A    between atoms: C_5  and  O_7
REMARK    4  A    between atoms: O_7  and  C_8
REMARK    5  A    between atoms: C_8  and  C_9
REMARK    6  A    between atoms: N_11  and  C_12
REMARK    7  A    between atoms: C_18  and  C_19
REMARK    8  A    between atoms: C_20  and  C_21
REMARK                            x       y       z     vdW  Elec       q    Type
REMARK                         _______ _______ _______ _____ _____    ______ ____
ROOT
ATOM      1  C   UNL     1       2.493   5.699  20.164  0.00  0.00    +0.000 C 
ATOM      2  O   UNL     1       1.488   5.203  20.673  0.00  0.00    +0.000 OA
ATOM      3  N   UNL     1       2.670   7.038  19.845  0.00  0.00    +0.000 N 
ATOM      4  H   UNL     1       3.445   7.254  19.217  0.00  0.00    +0.000 HD
ENDROOT
BRANCH   3   5
ATOM      5  C   UNL     1       1.756   8.088  20.130  0.00  0.00    +0.000 A 
ATOM      6  C   UNL     1       1.265   8.284  21.429  0.00  0.00    +0.000 A 
ATOM      7  C   UNL     1       0.337   9.287  21.706  0.00  0.00    +0.000 A 
ATOM      8 CL   UNL     1      -0.276   9.463  23.305  0.00  0.00    +0.000 Cl
ATOM      9  C   UNL     1      -0.097  10.137  20.703  0.00  0.00    +0.000 A 
ATOM     10  C   UNL     1       0.404   9.983  19.410  0.00  0.00    +0.000 A 
ATOM     11  C   UNL     1       1.324   8.959  19.104  0.00  0.00    +0.000 A 
ATOM     12  C   UNL     1       1.788   8.841  17.676  0.00  0.00    +0.000 C 
ENDBRANCH   3   5
BRANCH   1  13
ATOM     13  C   UNL     1       3.664   4.791  19.787  0.00  0.00    +0.000 C 
BRANCH  13  14
ATOM     14  O   UNL     1       4.163   5.070  18.480  0.00  0.00    +0.000 OA
BRANCH  14  15
ATOM     15  C   UNL     1       4.539   3.965  17.781  0.00  0.00    +0.000 C 
ATOM     16  O   UNL     1       4.096   2.841  18.014  0.00  0.00    +0.000 OA
BRANCH  15  20
ATOM     17  C   UNL     1       7.143   4.829  13.465  0.00  0.00    +0.000 C 
ATOM     18  C   UNL     1       6.622   4.621  14.831  0.00  0.00    +0.000 A 
ATOM     19  C   UNL     1       5.399   4.256  15.347  0.00  0.00    +0.000 A 
ATOM     20  C   UNL     1       5.536   4.252  16.770  0.00  0.00    +0.000 A 
ATOM     21  C   UNL     1       6.854   4.610  17.013  0.00  0.00    +0.000 A 
ATOM     22  C   UNL     1       7.671   4.800  18.229  0.00  0.00    +0.000 C 
ATOM     23  O   UNL     1       7.508   4.831  15.841  0.00  0.00    +0.000 OA
ENDBRANCH  15  20
ENDBRANCH  14  15
ENDBRANCH  13  14
ENDBRANCH   1  13
TORSDOF 5
ENDMDL
MODEL 5
REMARK VINA RESULT:      -7.5      1.690      2.533
REMARK  Name = 
REMARK  8 active torsions:
REMARK  status: ('A' for Active; 'I' for Inactive)
REMARK    1  A    between atoms: C_1  and  C_2
REMARK    2  A    between atoms: C_4  and  C_5
REMARK    3  A    between atoms: C_5  and  O_7
REMARK    4  A    between atoms: O_7  and  C_8
REMARK    5  A    between atoms: C_8  and  C_9
REMARK    6  A    between atoms: N_11  and  C_12
REMARK    7  A    between atoms: C_18  and  C_19
REMARK    8  A    between atoms: C_20  and  C_21
REMARK                            x       y       z     vdW  Elec       q    Type
REMARK                         _______ _______ _______ _____ _____    ______ ____
ROOT
ATOM      1  C   UNL     1       1.977   5.161  20.653  0.00  0.00    +0.000 C 
ATOM      2  O   UNL     1       0.793   4.913  20.430  0.00  0.00    +0.000 OA
ATOM      3  N   UNL     1       2.609   6.379  20.448  0.00  0.00    +0.000 N 
ATOM      4  H   UNL     1       3.629   6.365  20.448  0.00  0.00    +0.000 HD
ENDROOT
BRANCH   3   5
ATOM      5  C   UNL     1       1.978   7.581  20.027  0.00  0.00    +0.000 A 
ATOM      6  C   UNL     1       1.164   8.313  20.902  0.00  0.00    +0.000 A 
ATOM      7  C   UNL     1       0.510   9.471  20.483  0.00  0.00    +0.000 A 
ATOM      8 CL   UNL     1      -0.519  10.314  21.576  0.00  0.00    +0.000 Cl
ATOM      9  C   UNL     1       0.680   9.943  19.192  0.00  0.00    +0.000 A 
ATOM     10  C   UNL     1       1.513   9.250  18.314  0.00  0.00    +0.000 A 
ATOM     11  C   UNL     1       2.163   8.063  18.711  0.00  0.00    +0.000 A 
ATOM     12  C   UNL     1       3.017   7.359  17.690  0.00  0.00    +0.000 C 
ENDBRANCH   3   5
BRANCH   1  13
ATOM     13  C   UNL     1       2.892   4.044  21.160  0.00  0.00    +0.000 C 
BRANCH  13  14
ATOM     14  O   UNL     1       2.974   2.956  20.240  0.00  0.00    +0.000 OA
BRANCH  14  15
ATOM     15  C   UNL     1       4.236   2.685  19.812  0.00  0.00    +0.000 C 
ATOM     16  O   UNL     1       4.949   1.824  20.327  0.00  0.00    +0.000 OA
BRANCH  15  20
ATOM     17  C   UNL     1       6.687   5.848  16.627  0.00  0.00    +0.000 C 
ATOM     18  C   UNL     1       5.789   4.936  17.364  0.00  0.00    +0.000 A 
ATOM     19  C   UNL     1       5.838   4.333  18.600  0.00  0.00    +0.000 A 
ATOM     20  C   UNL     1       4.655   3.539  18.720  0.00  0.00    +0.000 A 
ATOM     21  C   UNL     1       3.962   3.732  17.533  0.00  0.00    +0.000 A 
ATOM     22  C   UNL     1       2.687   3.231  16.983  0.00  0.00    +0.000 C 
ATOM     23  O   UNL     1       4.648   4.577  16.717  0.00  0.00    +0.000 OA
ENDBRANCH  15  20
ENDBRANCH  14  15
ENDBRANCH  13  14
ENDBRANCH   1  13
TORSDOF 5
ENDMDL
MODEL 6
REMARK VINA RESULT:      -7.5      1.285      2.255
REMARK  Name = 
REMARK  8 active torsions:
REMARK  status: ('A' for Active; 'I' for Inactive)
REMARK    1  A    between atoms: C_1  and  C_2
REMARK    2  A    between atoms: C_4  and  C_5
REMARK    3  A    between atoms: C_5  and  O_7
REMARK    4  A    between atoms: O_7  and  C_8
REMARK    5  A    between atoms: C_8  and  C_9
REMARK    6  A    between atoms: N_11  and  C_12
REMARK    7  A    between atoms: C_18  and  C_19
REMARK    8  A    between atoms: C_20  and  C_21
REMARK                            x       y       z     vdW  Elec       q    Type
REMARK                         _______ _______ _______ _____ _____    ______ ____
ROOT
ATOM      1  C   UNL     1       2.314   4.574  19.784  0.00  0.00    +0.000 C 
ATOM      2  O   UNL     1       1.259   4.383  19.179  0.00  0.00    +0.000 OA
ATOM      3  N   UNL     1       2.842   5.808  20.135  0.00  0.00    +0.000 N 
ATOM      4  H   UNL     1       3.824   5.817  20.412  0.00  0.00    +0.000 HD
ENDROOT
BRANCH   3   5
ATOM      5  C   UNL     1       2.214   7.067  19.936  0.00  0.00    +0.000 A 
ATOM      6  C   UNL     1       1.392   7.627  20.924  0.00  0.00    +0.000 A 
ATOM      7  C   UNL     1       0.741   8.843  20.718  0.00  0.00    +0.000 A 
ATOM      8 CL   UNL     1      -0.296   9.473  21.939  0.00  0.00    +0.000 Cl
ATOM      9  C   UNL     1       0.920   9.543  19.536  0.00  0.00    +0.000 A 
ATOM     10  C   UNL     1       1.761   9.021  18.553  0.00  0.00    +0.000 A 
ATOM     11  C   UNL     1       2.409   7.781  18.732  0.00  0.00    +0.000 A 
ATOM     12  C   UNL     1       3.270   7.274  17.605  0.00  0.00    +0.000 C 
ENDBRANCH   3   5
BRANCH   1  13
ATOM     13  C   UNL     1       3.184   3.374  20.165  0.00  0.00    +0.000 C 
BRANCH  13  14
ATOM     14  O   UNL     1       4.523   3.508  19.692  0.00  0.00    +0.000 OA
BRANCH  14  15
ATOM     15  C   UNL     1       4.634   3.543  18.337  0.00  0.00    +0.000 C 
ATOM     16  O   UNL     1       4.039   2.762  17.595  0.00  0.00    +0.000 OA
BRANCH  15  20
ATOM     17  C   UNL     1       7.876   7.468  17.852  0.00  0.00    +0.000 C 
ATOM     18  C   UNL     1       6.970   6.308  17.731  0.00  0.00    +0.000 A 
ATOM     19  C   UNL     1       6.164   5.625  18.612  0.00  0.00    +0.000 A 
ATOM     20  C   UNL     1       5.548   4.566  17.874  0.00  0.00    +0.000 A 
ATOM     21  C   UNL     1       6.027   4.697  16.579  0.00  0.00    +0.000 A 
ATOM     22  C   UNL     1       5.817   3.961  15.315  0.00  0.00    +0.000 C 
ATOM     23  O   UNL     1       6.884   5.750  16.494  0.00  0.00    +0.000 OA
ENDBRANCH  15  20
ENDBRANCH  14  15
ENDBRANCH  13  14
ENDBRANCH   1  13
TORSDOF 5
ENDMDL
MODEL 7
REMARK VINA RESULT:      -7.4      4.134      5.249
REMARK  Name = 
REMARK  8 active torsions:
REMARK  status: ('A' for Active; 'I' for Inactive)
REMARK    1  A    between atoms: C_1  and  C_2
REMARK    2  A    between atoms: C_4  and  C_5
REMARK    3  A    between atoms: C_5  and  O_7
REMARK    4  A    between atoms: O_7  and  C_8
REMARK    5  A    between atoms: C_8  and  C_9
REMARK    6  A    between atoms: N_11  and  C_12
REMARK    7  A    between atoms: C_18  and  C_19
REMARK    8  A    between atoms: C_20  and  C_21
REMARK                            x       y       z     vdW  Elec       q    Type
REMARK                         _______ _______ _______ _____ _____    ______ ____
ROOT
ATOM      1  C   UNL     1       4.794   5.775  17.295  0.00  0.00    +0.000 C 
ATOM      2  O   UNL     1       5.080   6.368  18.335  0.00  0.00    +0.000 OA
ATOM      3  N   UNL     1       4.130   4.559  17.205  0.00  0.00    +0.000 N 
ATOM      4  H   UNL     1       4.179   4.083  16.303  0.00  0.00    +0.000 HD
ENDROOT
BRANCH   3   5
ATOM      5  C   UNL     1       3.586   3.827  18.294  0.00  0.00    +0.000 A 
ATOM      6  C   UNL     1       4.415   3.101  19.161  0.00  0.00    +0.000 A 
ATOM      7  C   UNL     1       3.884   2.349  20.207  0.00  0.00    +0.000 A 
ATOM      8 CL   UNL     1       4.933   1.433  21.219  0.00  0.00    +0.000 Cl
ATOM      9  C   UNL     1       2.517   2.330  20.434  0.00  0.00    +0.000 A 
ATOM     10  C   UNL     1       1.676   3.073  19.606  0.00  0.00    +0.000 A 
ATOM     11  C   UNL     1       2.192   3.821  18.527  0.00  0.00    +0.000 A 
ATOM     12  C   UNL     1       1.210   4.566  17.661  0.00  0.00    +0.000 C 
ENDBRANCH   3   5
BRANCH   1  13
ATOM     13  C   UNL     1       5.228   6.367  15.953  0.00  0.00    +0.000 C 
BRANCH  13  14
ATOM     14  O   UNL     1       6.645   6.342  15.787  0.00  0.00    +0.000 OA
BRANCH  14  15
ATOM     15  C   UNL     1       7.161   5.097  15.600  0.00  0.00    +0.000 C 
ATOM     16  O   UNL     1       7.836   4.516  16.450  0.00  0.00    +0.000 OA
BRANCH  15  20
ATOM     17  C   UNL     1       5.245   2.605  11.566  0.00  0.00    +0.000 C 
ATOM     18  C   UNL     1       5.969   3.426  12.558  0.00  0.00    +0.000 A 
ATOM     19  C   UNL     1       5.882   3.581  13.922  0.00  0.00    +0.000 A 
ATOM     20  C   UNL     1       6.861   4.555  14.291  0.00  0.00    +0.000 A 
ATOM     21  C   UNL     1       7.485   4.916  13.105  0.00  0.00    +0.000 A 
ATOM     22  C   UNL     1       8.568   5.852  12.745  0.00  0.00    +0.000 C 
ATOM     23  O   UNL     1       6.945   4.232  12.060  0.00  0.00    +0.000 OA
ENDBRANCH  15  20
ENDBRANCH  14  15
ENDBRANCH  13  14
ENDBRANCH   1  13
TORSDOF 5
ENDMDL
MODEL 8
REMARK VINA RESULT:      -7.4      3.128      4.362
REMARK  Name = 
REMARK  8 active torsions:
REMARK  status: ('A' for Active; 'I' for Inactive)
REMARK    1  A    between atoms: C_1  and  C_2
REMARK    2  A    between atoms: C_4  and  C_5
REMARK    3  A    between atoms: C_5  and  O_7
REMARK    4  A    between atoms: O_7  and  C_8
REMARK    5  A    between atoms: C_8  and  C_9
REMARK    6  A    between atoms: N_11  and  C_12
REMARK    7  A    between atoms: C_18  and  C_19
REMARK    8  A    between atoms: C_20  and  C_21
REMARK                            x       y       z     vdW  Elec       q    Type
REMARK                         _______ _______ _______ _____ _____    ______ ____
ROOT
ATOM      1  C   UNL     1       5.689   4.358  18.084  0.00  0.00    +0.000 C 
ATOM      2  O   UNL     1       5.053   3.722  17.245  0.00  0.00    +0.000 OA
ATOM      3  N   UNL     1       5.167   4.962  19.220  0.00  0.00    +0.000 N 
ATOM      4  H   UNL     1       5.765   5.646  19.683  0.00  0.00    +0.000 HD
ENDROOT
BRANCH   3   5
ATOM      5  C   UNL     1       3.818   4.877  19.659  0.00  0.00    +0.000 A 
ATOM      6  C   UNL     1       3.395   3.831  20.491  0.00  0.00    +0.000 A 
ATOM      7  C   UNL     1       2.065   3.721  20.893  0.00  0.00    +0.000 A 
ATOM      8 CL   UNL     1       1.577   2.395  21.876  0.00  0.00    +0.000 Cl
ATOM      9  C   UNL     1       1.133   4.669  20.501  0.00  0.00    +0.000 A 
ATOM     10  C   UNL     1       1.539   5.737  19.701  0.00  0.00    +0.000 A 
ATOM     11  C   UNL     1       2.875   5.853  19.264  0.00  0.00    +0.000 A 
ATOM     12  C   UNL     1       3.220   7.018  18.375  0.00  0.00    +0.000 C 
ENDBRANCH   3   5
BRANCH   1  13
ATOM     13  C   UNL     1       7.190   4.571  17.880  0.00  0.00    +0.000 C 
BRANCH  13  14
ATOM     14  O   UNL     1       7.610   4.219  16.563  0.00  0.00    +0.000 OA
BRANCH  14  15
ATOM     15  C   UNL     1       7.406   5.192  15.635  0.00  0.00    +0.000 C 
ATOM     16  O   UNL     1       7.498   6.392  15.890  0.00  0.00    +0.000 OA
BRANCH  15  20
ATOM     17  C   UNL     1       5.244   2.778  11.679  0.00  0.00    +0.000 C 
ATOM     18  C   UNL     1       6.036   3.570  12.641  0.00  0.00    +0.000 A 
ATOM     19  C   UNL     1       6.008   3.726  14.008  0.00  0.00    +0.000 A 
ATOM     20  C   UNL     1       7.036   4.664  14.338  0.00  0.00    +0.000 A 
ATOM     21  C   UNL     1       7.624   5.003  13.129  0.00  0.00    +0.000 A 
ATOM     22  C   UNL     1       8.725   5.901  12.726  0.00  0.00    +0.000 C 
ATOM     23  O   UNL     1       7.020   4.341  12.105  0.00  0.00    +0.000 OA
ENDBRANCH  15  20
ENDBRANCH  14  15
ENDBRANCH  13  14
ENDBRANCH   1  13
TORSDOF 5
ENDMDL
MODEL 9
REMARK VINA RESULT:      -7.3      2.995      4.491
REMARK  Name = 
REMARK  8 active torsions:
REMARK  status: ('A' for Active; 'I' for Inactive)
REMARK    1  A    between atoms: C_1  and  C_2
REMARK    2  A    between atoms: C_4  and  C_5
REMARK    3  A    between atoms: C_5  and  O_7
REMARK    4  A    between atoms: O_7  and  C_8
REMARK    5  A    between atoms: C_8  and  C_9
REMARK    6  A    between atoms: N_11  and  C_12
REMARK    7  A    between atoms: C_18  and  C_19
REMARK    8  A    between atoms: C_20  and  C_21
REMARK                            x       y       z     vdW  Elec       q    Type
REMARK                         _______ _______ _______ _____ _____    ______ ____
ROOT
ATOM      1  C   UNL     1       4.859   5.941  17.415  0.00  0.00    +0.000 C 
ATOM      2  O   UNL     1       5.615   5.810  18.377  0.00  0.00    +0.000 OA
ATOM      3  N   UNL     1       3.517   5.589  17.378  0.00  0.00    +0.000 N 
ATOM      4  H   UNL     1       3.090   5.532  16.453  0.00  0.00    +0.000 HD
ENDROOT
BRANCH   3   5
ATOM      5  C   UNL     1       2.758   5.095  18.473  0.00  0.00    +0.000 A 
ATOM      6  C   UNL     1       2.517   3.722  18.624  0.00  0.00    +0.000 A 
ATOM      7  C   UNL     1       1.740   3.236  19.674  0.00  0.00    +0.000 A 
ATOM      8 CL   UNL     1       1.430   1.547  19.795  0.00  0.00    +0.000 Cl
ATOM      9  C   UNL     1       1.212   4.103  20.616  0.00  0.00    +0.000 A 
ATOM     10  C   UNL     1       1.467   5.470  20.506  0.00  0.00    +0.000 A 
ATOM     11  C   UNL     1       2.231   5.985  19.437  0.00  0.00    +0.000 A 
ATOM     12  C   UNL     1       2.428   7.477  19.375  0.00  0.00    +0.000 C 
ENDBRANCH   3   5
BRANCH   1  13
ATOM     13  C   UNL     1       5.411   6.496  16.101  0.00  0.00    +0.000 C 
BRANCH  13  14
ATOM     14  O   UNL     1       6.826   6.349  16.006  0.00  0.00    +0.000 OA
BRANCH  14  15
ATOM     15  C   UNL     1       7.238   5.076  15.760  0.00  0.00    +0.000 C 
ATOM     16  O   UNL     1       7.899   4.418  16.563  0.00  0.00    +0.000 OA
BRANCH  15  20
ATOM     17  C   UNL     1       4.992   2.865  11.733  0.00  0.00    +0.000 C 
ATOM     18  C   UNL     1       5.811   3.599  12.718  0.00  0.00    +0.000 A 
ATOM     19  C   UNL     1       5.791   3.710  14.090  0.00  0.00    +0.000 A 
ATOM     20  C   UNL     1       6.848   4.603  14.448  0.00  0.00    +0.000 A 
ATOM     21  C   UNL     1       7.445   4.964  13.249  0.00  0.00    +0.000 A 
ATOM     22  C   UNL     1       8.574   5.839  12.873  0.00  0.00    +0.000 C 
ATOM     23  O   UNL     1       6.818   4.355  12.206  0.00  0.00    +0.000 OA
ENDBRANCH  15  20
ENDBRANCH  14  15
ENDBRANCH  13  14
ENDBRANCH   1  13
TORSDOF 5
ENDMDL
