MODEL 1
REMARK VINA RESULT:      -8.4      0.000      0.000
REMARK  Name = 
REMARK  1 active torsions:
REMARK  status: ('A' for Active; 'I' for Inactive)
REMARK    1  A    between atoms: C_4  and  C_5
REMARK                            x       y       z     vdW  Elec       q    Type
REMARK                         _______ _______ _______ _____ _____    ______ ____
ROOT
ATOM      1  O   UNL     1       2.558   8.948  17.051  0.00  0.00    +0.000 OA
ATOM      2  C   UNL     1       2.130   8.530  18.127  0.00  0.00    +0.000 A 
ATOM      3  C   UNL     1       2.290   7.100  18.467  0.00  0.00    +0.000 A 
ATOM      4  C   UNL     1       2.043   6.581  19.672  0.00  0.00    +0.000 A 
ATOM      5  S   UNL     1       1.594   7.483  21.057  0.00  0.00    +0.000 S 
ATOM      6  C   UNL     1       1.012   9.017  20.350  0.00  0.00    +0.000 A 
ATOM      7  C   UNL     1       1.397   9.425  19.063  0.00  0.00    +0.000 A 
ATOM      8  C   UNL     1       1.074  10.713  18.618  0.00  0.00    +0.000 A 
ATOM      9  C   UNL     1       0.369  11.589  19.443  0.00  0.00    +0.000 A 
ATOM     10  C   UNL     1      -0.069  11.187  20.713  0.00  0.00    +0.000 A 
ATOM     11  C   UNL     1      -0.788  12.075  21.533  0.00  0.00    +0.000 A 
ATOM     12  C   UNL     1      -1.242  11.687  22.794  0.00  0.00    +0.000 A 
ATOM     13  C   UNL     1      -1.002  10.400  23.249  0.00  0.00    +0.000 A 
ATOM     14  C   UNL     1      -0.284   9.514  22.449  0.00  0.00    +0.000 A 
ATOM     15  C   UNL     1       0.224   9.882  21.175  0.00  0.00    +0.000 A 
ENDROOT
BRANCH   4  16
ATOM     16  C   UNL     1       2.243   5.151  19.956  0.00  0.00    +0.000 A 
ATOM     17  C   UNL     1       1.125   4.393  20.343  0.00  0.00    +0.000 A 
ATOM     18  C   UNL     1       1.240   3.023  20.576  0.00  0.00    +0.000 A 
ATOM     19  C   UNL     1       2.466   2.386  20.401  0.00  0.00    +0.000 A 
ATOM     20  C   UNL     1       3.581   3.121  19.997  0.00  0.00    +0.000 A 
ATOM     21  C   UNL     1       3.478   4.499  19.790  0.00  0.00    +0.000 A 
ATOM     22 CL   UNL     1       4.910   5.348  19.320  0.00  0.00    +0.000 Cl
ENDBRANCH   4  16
TORSDOF 1
ENDMDL
MODEL 2
REMARK VINA RESULT:      -7.9      2.872      4.292
REMARK  Name = 
REMARK  1 active torsions:
REMARK  status: ('A' for Active; 'I' for Inactive)
REMARK    1  A    between atoms: C_4  and  C_5
REMARK                            x       y       z     vdW  Elec       q    Type
REMARK                         _______ _______ _______ _____ _____    ______ ____
ROOT
ATOM      1  O   UNL     1       2.135   4.482  21.291  0.00  0.00    +0.000 OA
ATOM      2  C   UNL     1       2.524   5.247  20.408  0.00  0.00    +0.000 A 
ATOM      3  C   UNL     1       3.616   4.820  19.507  0.00  0.00    +0.000 A 
ATOM      4  C   UNL     1       3.983   5.479  18.405  0.00  0.00    +0.000 A 
ATOM      5  S   UNL     1       3.200   6.871  17.786  0.00  0.00    +0.000 S 
ATOM      6  C   UNL     1       2.286   7.464  19.202  0.00  0.00    +0.000 A 
ATOM      7  C   UNL     1       1.960   6.617  20.272  0.00  0.00    +0.000 A 
ATOM      8  C   UNL     1       1.087   7.065  21.271  0.00  0.00    +0.000 A 
ATOM      9  C   UNL     1       0.544   8.348  21.209  0.00  0.00    +0.000 A 
ATOM     10  C   UNL     1       0.892   9.230  20.176  0.00  0.00    +0.000 A 
ATOM     11  C   UNL     1       0.346  10.525  20.128  0.00  0.00    +0.000 A 
ATOM     12  C   UNL     1       0.692  11.419  19.115  0.00  0.00    +0.000 A 
ATOM     13  C   UNL     1       1.604  11.039  18.142  0.00  0.00    +0.000 A 
ATOM     14  C   UNL     1       2.145   9.756  18.172  0.00  0.00    +0.000 A 
ATOM     15  C   UNL     1       1.792   8.807  19.168  0.00  0.00    +0.000 A 
ENDROOT
BRANCH   4  16
ATOM     16  C   UNL     1       5.065   4.991  17.534  0.00  0.00    +0.000 A 
ATOM     17  C   UNL     1       4.721   4.523  16.255  0.00  0.00    +0.000 A 
ATOM     18  C   UNL     1       5.705   4.096  15.365  0.00  0.00    +0.000 A 
ATOM     19  C   UNL     1       7.049   4.155  15.730  0.00  0.00    +0.000 A 
ATOM     20  C   UNL     1       7.408   4.637  16.988  0.00  0.00    +0.000 A 
ATOM     21  C   UNL     1       6.423   5.038  17.895  0.00  0.00    +0.000 A 
ATOM     22 CL   UNL     1       6.943   5.596  19.448  0.00  0.00    +0.000 Cl
ENDBRANCH   4  16
TORSDOF 1
ENDMDL
MODEL 3
REMARK VINA RESULT:      -7.9      1.149      1.233
REMARK  Name = 
REMARK  1 active torsions:
REMARK  status: ('A' for Active; 'I' for Inactive)
REMARK    1  A    between atoms: C_4  and  C_5
REMARK                            x       y       z     vdW  Elec       q    Type
REMARK                         _______ _______ _______ _____ _____    ______ ____
ROOT
ATOM      1  O   UNL     1       2.865   8.606  17.121  0.00  0.00    +0.000 OA
ATOM      2  C   UNL     1       2.325   8.244  18.167  0.00  0.00    +0.000 A 
ATOM      3  C   UNL     1       2.316   6.808  18.519  0.00  0.00    +0.000 A 
ATOM      4  C   UNL     1       1.935   6.327  19.705  0.00  0.00    +0.000 A 
ATOM      5  S   UNL     1       1.486   7.282  21.055  0.00  0.00    +0.000 S 
ATOM      6  C   UNL     1       1.112   8.861  20.306  0.00  0.00    +0.000 A 
ATOM      7  C   UNL     1       1.623   9.216  19.048  0.00  0.00    +0.000 A 
ATOM      8  C   UNL     1       1.465  10.526  18.580  0.00  0.00    +0.000 A 
ATOM      9  C   UNL     1       0.797  11.476  19.353  0.00  0.00    +0.000 A 
ATOM     10  C   UNL     1       0.235  11.132  20.590  0.00  0.00    +0.000 A 
ATOM     11  C   UNL     1      -0.445  12.095  21.357  0.00  0.00    +0.000 A 
ATOM     12  C   UNL     1      -1.021  11.766  22.584  0.00  0.00    +0.000 A 
ATOM     13  C   UNL     1      -0.944  10.465  23.057  0.00  0.00    +0.000 A 
ATOM     14  C   UNL     1      -0.267   9.504  22.310  0.00  0.00    +0.000 A 
ATOM     15  C   UNL     1       0.362   9.808  21.074  0.00  0.00    +0.000 A 
ENDROOT
BRANCH   4  16
ATOM     16  C   UNL     1       1.969   4.886  20.004  0.00  0.00    +0.000 A 
ATOM     17  C   UNL     1       2.269   4.494  21.320  0.00  0.00    +0.000 A 
ATOM     18  C   UNL     1       2.266   3.146  21.679  0.00  0.00    +0.000 A 
ATOM     19  C   UNL     1       1.939   2.174  20.736  0.00  0.00    +0.000 A 
ATOM     20  C   UNL     1       1.619   2.549  19.431  0.00  0.00    +0.000 A 
ATOM     21  C   UNL     1       1.648   3.896  19.059  0.00  0.00    +0.000 A 
ATOM     22 CL   UNL     1       1.269   4.282  17.416  0.00  0.00    +0.000 Cl
ENDBRANCH   4  16
TORSDOF 1
ENDMDL
MODEL 4
REMARK VINA RESULT:      -7.9      3.022      7.409
REMARK  Name = 
REMARK  1 active torsions:
REMARK  status: ('A' for Active; 'I' for Inactive)
REMARK    1  A    between atoms: C_4  and  C_5
REMARK                            x       y       z     vdW  Elec       q    Type
REMARK                         _______ _______ _______ _____ _____    ______ ____
ROOT
ATOM      1  O   UNL     1       1.558   3.509  20.926  0.00  0.00    +0.000 OA
ATOM      2  C   UNL     1       1.939   4.478  20.270  0.00  0.00    +0.000 A 
ATOM      3  C   UNL     1       1.418   5.824  20.592  0.00  0.00    +0.000 A 
ATOM      4  C   UNL     1       1.900   6.960  20.082  0.00  0.00    +0.000 A 
ATOM      5  S   UNL     1       3.262   7.072  19.048  0.00  0.00    +0.000 S 
ATOM      6  C   UNL     1       3.418   5.403  18.430  0.00  0.00    +0.000 A 
ATOM      7  C   UNL     1       2.864   4.311  19.116  0.00  0.00    +0.000 A 
ATOM      8  C   UNL     1       3.166   3.007  18.704  0.00  0.00    +0.000 A 
ATOM      9  C   UNL     1       4.009   2.788  17.615  0.00  0.00    +0.000 A 
ATOM     10  C   UNL     1       4.536   3.863  16.884  0.00  0.00    +0.000 A 
ATOM     11  C   UNL     1       5.378   3.631  15.782  0.00  0.00    +0.000 A 
ATOM     12  C   UNL     1       5.900   4.688  15.036  0.00  0.00    +0.000 A 
ATOM     13  C   UNL     1       5.574   5.994  15.369  0.00  0.00    +0.000 A 
ATOM     14  C   UNL     1       4.749   6.237  16.463  0.00  0.00    +0.000 A 
ATOM     15  C   UNL     1       4.226   5.190  17.267  0.00  0.00    +0.000 A 
ENDROOT
BRANCH   4  16
ATOM     16  C   UNL     1       1.353   8.273  20.459  0.00  0.00    +0.000 A 
ATOM     17  C   UNL     1       1.159   8.538  21.825  0.00  0.00    +0.000 A 
ATOM     18  C   UNL     1       0.692   9.782  22.249  0.00  0.00    +0.000 A 
ATOM     19  C   UNL     1       0.438  10.786  21.318  0.00  0.00    +0.000 A 
ATOM     20  C   UNL     1       0.646  10.545  19.960  0.00  0.00    +0.000 A 
ATOM     21  C   UNL     1       1.086   9.291  19.527  0.00  0.00    +0.000 A 
ATOM     22 CL   UNL     1       1.291   9.057  17.825  0.00  0.00    +0.000 Cl
ENDBRANCH   4  16
TORSDOF 1
ENDMDL
MODEL 5
REMARK VINA RESULT:      -7.6      3.457      4.935
REMARK  Name = 
REMARK  1 active torsions:
REMARK  status: ('A' for Active; 'I' for Inactive)
REMARK    1  A    between atoms: C_4  and  C_5
REMARK                            x       y       z     vdW  Elec       q    Type
REMARK                         _______ _______ _______ _____ _____    ______ ____
ROOT
ATOM      1  O   UNL     1       3.078   3.729  20.426  0.00  0.00    +0.000 OA
ATOM      2  C   UNL     1       3.274   4.639  19.620  0.00  0.00    +0.000 A 
ATOM      3  C   UNL     1       4.273   4.453  18.545  0.00  0.00    +0.000 A 
ATOM      4  C   UNL     1       4.430   5.285  17.512  0.00  0.00    +0.000 A 
ATOM      5  S   UNL     1       3.445   6.650  17.192  0.00  0.00    +0.000 S 
ATOM      6  C   UNL     1       2.674   6.952  18.775  0.00  0.00    +0.000 A 
ATOM      7  C   UNL     1       2.573   5.944  19.746  0.00  0.00    +0.000 A 
ATOM      8  C   UNL     1       1.800   6.162  20.894  0.00  0.00    +0.000 A 
ATOM      9  C   UNL     1       1.136   7.375  21.078  0.00  0.00    +0.000 A 
ATOM     10  C   UNL     1       1.262   8.414  20.145  0.00  0.00    +0.000 A 
ATOM     11  C   UNL     1       0.596   9.636  20.346  0.00  0.00    +0.000 A 
ATOM     12  C   UNL     1       0.721  10.685  19.434  0.00  0.00    +0.000 A 
ATOM     13  C   UNL     1       1.528  10.536  18.317  0.00  0.00    +0.000 A 
ATOM     14  C   UNL     1       2.185   9.328  18.103  0.00  0.00    +0.000 A 
ATOM     15  C   UNL     1       2.057   8.226  18.989  0.00  0.00    +0.000 A 
ENDROOT
BRANCH   4  16
ATOM     16  C   UNL     1       5.428   5.035  16.460  0.00  0.00    +0.000 A 
ATOM     17  C   UNL     1       5.031   4.287  15.338  0.00  0.00    +0.000 A 
ATOM     18  C   UNL     1       5.915   4.061  14.285  0.00  0.00    +0.000 A 
ATOM     19  C   UNL     1       7.200   4.599  14.324  0.00  0.00    +0.000 A 
ATOM     20  C   UNL     1       7.602   5.360  15.421  0.00  0.00    +0.000 A 
ATOM     21  C   UNL     1       6.729   5.566  16.493  0.00  0.00    +0.000 A 
ATOM     22 CL   UNL     1       7.310   6.495  17.832  0.00  0.00    +0.000 Cl
ENDBRANCH   4  16
TORSDOF 1
ENDMDL
MODEL 6
REMARK VINA RESULT:      -7.5      2.859      4.181
REMARK  Name = 
REMARK  1 active torsions:
REMARK  status: ('A' for Active; 'I' for Inactive)
REMARK    1  A    between atoms: C_4  and  C_5
REMARK                            x       y       z     vdW  Elec       q    Type
REMARK                         _______ _______ _______ _____ _____    ______ ____
ROOT
ATOM      1  O   UNL     1       1.893   4.922  21.246  0.00  0.00    +0.000 OA
ATOM      2  C   UNL     1       2.261   5.725  20.389  0.00  0.00    +0.000 A 
ATOM      3  C   UNL     1       3.332   5.340  19.445  0.00  0.00    +0.000 A 
ATOM      4  C   UNL     1       3.674   6.047  18.365  0.00  0.00    +0.000 A 
ATOM      5  S   UNL     1       2.876   7.464  17.826  0.00  0.00    +0.000 S 
ATOM      6  C   UNL     1       1.995   7.993  19.287  0.00  0.00    +0.000 A 
ATOM      7  C   UNL     1       1.694   7.100  20.327  0.00  0.00    +0.000 A 
ATOM      8  C   UNL     1       0.844   7.503  21.364  0.00  0.00    +0.000 A 
ATOM      9  C   UNL     1       0.299   8.786  21.371  0.00  0.00    +0.000 A 
ATOM     10  C   UNL     1       0.624   9.713  20.370  0.00  0.00    +0.000 A 
ATOM     11  C   UNL     1       0.076  11.008  20.392  0.00  0.00    +0.000 A 
ATOM     12  C   UNL     1       0.398  11.946  19.410  0.00  0.00    +0.000 A 
ATOM     13  C   UNL     1       1.288  11.610  18.401  0.00  0.00    +0.000 A 
ATOM     14  C   UNL     1       1.830  10.328  18.363  0.00  0.00    +0.000 A 
ATOM     15  C   UNL     1       1.500   9.336  19.324  0.00  0.00    +0.000 A 
ENDROOT
BRANCH   4  16
ATOM     16  C   UNL     1       4.735   5.599  17.449  0.00  0.00    +0.000 A 
ATOM     17  C   UNL     1       5.900   6.381  17.358  0.00  0.00    +0.000 A 
ATOM     18  C   UNL     1       6.962   5.983  16.546  0.00  0.00    +0.000 A 
ATOM     19  C   UNL     1       6.887   4.786  15.836  0.00  0.00    +0.000 A 
ATOM     20  C   UNL     1       5.746   3.990  15.932  0.00  0.00    +0.000 A 
ATOM     21  C   UNL     1       4.667   4.398  16.721  0.00  0.00    +0.000 A 
ATOM     22 CL   UNL     1       3.275   3.372  16.768  0.00  0.00    +0.000 Cl
ENDBRANCH   4  16
TORSDOF 1
ENDMDL
MODEL 7
REMARK VINA RESULT:      -7.4      3.913      5.730
REMARK  Name = 
REMARK  1 active torsions:
REMARK  status: ('A' for Active; 'I' for Inactive)
REMARK    1  A    between atoms: C_4  and  C_5
REMARK                            x       y       z     vdW  Elec       q    Type
REMARK                         _______ _______ _______ _____ _____    ______ ____
ROOT
ATOM      1  O   UNL     1       3.836   2.304  19.649  0.00  0.00    +0.000 OA
ATOM      2  C   UNL     1       3.886   3.362  19.023  0.00  0.00    +0.000 A 
ATOM      3  C   UNL     1       4.774   3.467  17.845  0.00  0.00    +0.000 A 
ATOM      4  C   UNL     1       4.765   4.488  16.984  0.00  0.00    +0.000 A 
ATOM      5  S   UNL     1       3.666   5.802  17.030  0.00  0.00    +0.000 S 
ATOM      6  C   UNL     1       3.051   5.735  18.707  0.00  0.00    +0.000 A 
ATOM      7  C   UNL     1       3.120   4.557  19.467  0.00  0.00    +0.000 A 
ATOM      8  C   UNL     1       2.462   4.490  20.702  0.00  0.00    +0.000 A 
ATOM      9  C   UNL     1       1.746   5.586  21.181  0.00  0.00    +0.000 A 
ATOM     10  C   UNL     1       1.704   6.790  20.462  0.00  0.00    +0.000 A 
ATOM     11  C   UNL     1       0.986   7.892  20.959  0.00  0.00    +0.000 A 
ATOM     12  C   UNL     1       0.945   9.101  20.264  0.00  0.00    +0.000 A 
ATOM     13  C   UNL     1       1.636   9.233  19.068  0.00  0.00    +0.000 A 
ATOM     14  C   UNL     1       2.343   8.145  18.562  0.00  0.00    +0.000 A 
ATOM     15  C   UNL     1       2.381   6.890  19.223  0.00  0.00    +0.000 A 
ENDROOT
BRANCH   4  16
ATOM     16  C   UNL     1       5.659   4.525  15.816  0.00  0.00    +0.000 A 
ATOM     17  C   UNL     1       5.295   3.777  14.683  0.00  0.00    +0.000 A 
ATOM     18  C   UNL     1       6.073   3.812  13.527  0.00  0.00    +0.000 A 
ATOM     19  C   UNL     1       7.211   4.614  13.476  0.00  0.00    +0.000 A 
ATOM     20  C   UNL     1       7.574   5.379  14.585  0.00  0.00    +0.000 A 
ATOM     21  C   UNL     1       6.813   5.325  15.756  0.00  0.00    +0.000 A 
ATOM     22 CL   UNL     1       7.343   6.277  17.100  0.00  0.00    +0.000 Cl
ENDBRANCH   4  16
TORSDOF 1
ENDMDL
MODEL 8
REMARK VINA RESULT:      -7.3      1.196      1.637
REMARK  Name = 
REMARK  1 active torsions:
REMARK  status: ('A' for Active; 'I' for Inactive)
REMARK    1  A    between atoms: C_4  and  C_5
REMARK                            x       y       z     vdW  Elec       q    Type
REMARK                         _______ _______ _______ _____ _____    ______ ____
ROOT
ATOM      1  O   UNL     1       2.461   9.063  16.870  0.00  0.00    +0.000 OA
ATOM      2  C   UNL     1       2.207   8.530  17.950  0.00  0.00    +0.000 A 
ATOM      3  C   UNL     1       2.624   7.130  18.183  0.00  0.00    +0.000 A 
ATOM      4  C   UNL     1       2.575   6.519  19.369  0.00  0.00    +0.000 A 
ATOM      5  S   UNL     1       2.120   7.267  20.842  0.00  0.00    +0.000 S 
ATOM      6  C   UNL     1       1.237   8.716  20.284  0.00  0.00    +0.000 A 
ATOM      7  C   UNL     1       1.431   9.244  18.998  0.00  0.00    +0.000 A 
ATOM      8  C   UNL     1       0.867  10.482  18.664  0.00  0.00    +0.000 A 
ATOM      9  C   UNL     1       0.111  11.189  19.599  0.00  0.00    +0.000 A 
ATOM     10  C   UNL     1      -0.138  10.659  20.873  0.00  0.00    +0.000 A 
ATOM     11  C   UNL     1      -0.909  11.376  21.805  0.00  0.00    +0.000 A 
ATOM     12  C   UNL     1      -1.177  10.858  23.073  0.00  0.00    +0.000 A 
ATOM     13  C   UNL     1      -0.693   9.606  23.423  0.00  0.00    +0.000 A 
ATOM     14  C   UNL     1       0.080   8.891  22.512  0.00  0.00    +0.000 A 
ATOM     15  C   UNL     1       0.402   9.399  21.226  0.00  0.00    +0.000 A 
ENDROOT
BRANCH   4  16
ATOM     16  C   UNL     1       3.026   5.129  19.545  0.00  0.00    +0.000 A 
ATOM     17  C   UNL     1       4.369   4.830  19.256  0.00  0.00    +0.000 A 
ATOM     18  C   UNL     1       4.869   3.543  19.451  0.00  0.00    +0.000 A 
ATOM     19  C   UNL     1       4.044   2.544  19.962  0.00  0.00    +0.000 A 
ATOM     20  C   UNL     1       2.714   2.830  20.272  0.00  0.00    +0.000 A 
ATOM     21  C   UNL     1       2.200   4.111  20.051  0.00  0.00    +0.000 A 
ATOM     22 CL   UNL     1       0.535   4.382  20.433  0.00  0.00    +0.000 Cl
ENDBRANCH   4  16
TORSDOF 1
ENDMDL
MODEL 9
REMARK VINA RESULT:      -7.3      2.999      7.527
REMARK  Name = 
REMARK  1 active torsions:
REMARK  status: ('A' for Active; 'I' for Inactive)
REMARK    1  A    between atoms: C_4  and  C_5
REMARK                            x       y       z     vdW  Elec       q    Type
REMARK                         _______ _______ _______ _____ _____    ______ ____
ROOT
ATOM      1  O   UNL     1       1.911   4.486  21.216  0.00  0.00    +0.000 OA
ATOM      2  C   UNL     1       2.189   5.296  20.331  0.00  0.00    +0.000 A 
ATOM      3  C   UNL     1       1.551   6.630  20.343  0.00  0.00    +0.000 A 
ATOM      4  C   UNL     1       1.917   7.645  19.556  0.00  0.00    +0.000 A 
ATOM      5  S   UNL     1       3.243   7.619  18.471  0.00  0.00    +0.000 S 
ATOM      6  C   UNL     1       3.542   5.869  18.266  0.00  0.00    +0.000 A 
ATOM      7  C   UNL     1       3.103   4.933  19.215  0.00  0.00    +0.000 A 
ATOM      8  C   UNL     1       3.516   3.599  19.116  0.00  0.00    +0.000 A 
ATOM      9  C   UNL     1       4.356   3.195  18.078  0.00  0.00    +0.000 A 
ATOM     10  C   UNL     1       4.768   4.101  17.090  0.00  0.00    +0.000 A 
ATOM     11  C   UNL     1       5.607   3.682  16.043  0.00  0.00    +0.000 A 
ATOM     12  C   UNL     1       6.015   4.567  15.045  0.00  0.00    +0.000 A 
ATOM     13  C   UNL     1       5.577   5.882  15.068  0.00  0.00    +0.000 A 
ATOM     14  C   UNL     1       4.753   6.312  16.105  0.00  0.00    +0.000 A 
ATOM     15  C   UNL     1       4.343   5.450  17.156  0.00  0.00    +0.000 A 
ENDROOT
BRANCH   4  16
ATOM     16  C   UNL     1       1.259   8.959  19.629  0.00  0.00    +0.000 A 
ATOM     17  C   UNL     1       0.835   9.552  18.428  0.00  0.00    +0.000 A 
ATOM     18  C   UNL     1       0.159  10.772  18.436  0.00  0.00    +0.000 A 
ATOM     19  C   UNL     1      -0.125  11.404  19.644  0.00  0.00    +0.000 A 
ATOM     20  C   UNL     1       0.271  10.818  20.846  0.00  0.00    +0.000 A 
ATOM     21  C   UNL     1       0.974   9.610  20.842  0.00  0.00    +0.000 A 
ATOM     22 CL   UNL     1       1.459   8.960  22.371  0.00  0.00    +0.000 Cl
ENDBRANCH   4  16
TORSDOF 1
ENDMDL
