MODEL 1
REMARK VINA RESULT:      -8.9      0.000      0.000
REMARK  Name = 
REMARK  5 active torsions:
REMARK  status: ('A' for Active; 'I' for Inactive)
REMARK    1  A    between atoms: C_2  and  O_13
REMARK    2  A    between atoms: N_3  and  C_4
REMARK    3  A    between atoms: C_9  and  C_10
REMARK    4  A    between atoms: C_10  and  O_12
REMARK    5  A    between atoms: O_13  and  C_14
REMARK                            x       y       z     vdW  Elec       q    Type
REMARK                         _______ _______ _______ _____ _____    ______ ____
ROOT
ATOM      1  O   UNL     1       1.631   5.939  20.930  0.00  0.00    +0.000 OA
ATOM      2  C   UNL     1       2.176   6.625  20.078  0.00  0.00    +0.000 C 
ATOM      3  N   UNL     1       1.890   7.928  19.746  0.00  0.00    +0.000 N 
ATOM      4  H   UNL     1       2.141   8.175  18.792  0.00  0.00    +0.000 HD
ENDROOT
BRANCH   3   5
ATOM      5  C   UNL     1       1.114   8.841  20.494  0.00  0.00    +0.000 A 
ATOM      6  C   UNL     1       1.161   8.803  21.893  0.00  0.00    +0.000 A 
ATOM      7  C   UNL     1       0.429   9.706  22.664  0.00  0.00    +0.000 A 
ATOM      8  C   UNL     1      -0.389  10.640  22.050  0.00  0.00    +0.000 A 
ATOM      9  C   UNL     1      -0.442  10.710  20.663  0.00  0.00    +0.000 A 
ATOM     10  C   UNL     1       0.342   9.842  19.875  0.00  0.00    +0.000 A 
BRANCH  10  11
ATOM     11  C   UNL     1       0.285   9.978  18.397  0.00  0.00    +0.000 C 
ATOM     12  O   UNL     1      -0.759   9.955  17.766  0.00  0.00    +0.000 OA
BRANCH  11  13
ATOM     13  O   UNL     1       1.495  10.066  17.797  0.00  0.00    +0.000 OA
ATOM     14  H   UNL     1       2.266   9.903  18.371  0.00  0.00    +0.000 HD
ENDBRANCH  11  13
ENDBRANCH  10  11
ENDBRANCH   3   5
BRANCH   2  15
ATOM     15  O   UNL     1       3.159   6.184  19.273  0.00  0.00    +0.000 OA
BRANCH  15  16
ATOM     16  C   UNL     1       2.800   5.791  17.937  0.00  0.00    +0.000 C 
ATOM     17  C   UNL     1       4.124   5.711  17.205  0.00  0.00    +0.000 A 
ATOM     18  C   UNL     1       4.867   6.738  16.644  0.00  0.00    +0.000 A 
ATOM     19  C   UNL     1       6.078   6.405  16.038  0.00  0.00    +0.000 A 
ATOM     20  C   UNL     1       6.523   5.071  16.003  0.00  0.00    +0.000 A 
ATOM     21  C   UNL     1       5.779   4.046  16.595  0.00  0.00    +0.000 A 
ATOM     22  C   UNL     1       4.586   4.376  17.212  0.00  0.00    +0.000 A 
ATOM     23  C   UNL     1       3.575   3.538  17.817  0.00  0.00    +0.000 A 
ATOM     24  C   UNL     1       3.590   2.202  18.167  0.00  0.00    +0.000 A 
ATOM     25  C   UNL     1       2.390   1.615  18.576  0.00  0.00    +0.000 A 
ATOM     26  C   UNL     1       1.194   2.355  18.582  0.00  0.00    +0.000 A 
ATOM     27  C   UNL     1       1.204   3.730  18.329  0.00  0.00    +0.000 A 
ATOM     28  C   UNL     1       2.421   4.320  18.028  0.00  0.00    +0.000 A 
ENDBRANCH  15  16
ENDBRANCH   2  15
TORSDOF 5
ENDMDL
MODEL 2
REMARK VINA RESULT:      -8.8      1.652      3.986
REMARK  Name = 
REMARK  5 active torsions:
REMARK  status: ('A' for Active; 'I' for Inactive)
REMARK    1  A    between atoms: C_2  and  O_13
REMARK    2  A    between atoms: N_3  and  C_4
REMARK    3  A    between atoms: C_9  and  C_10
REMARK    4  A    between atoms: C_10  and  O_12
REMARK    5  A    between atoms: O_13  and  C_14
REMARK                            x       y       z     vdW  Elec       q    Type
REMARK                         _______ _______ _______ _____ _____    ______ ____
ROOT
ATOM      1  O   UNL     1       2.377   9.280  17.449  0.00  0.00    +0.000 OA
ATOM      2  C   UNL     1       1.933   8.469  18.247  0.00  0.00    +0.000 C 
ATOM      3  N   UNL     1       1.251   8.730  19.412  0.00  0.00    +0.000 N 
ATOM      4  H   UNL     1       1.331   7.995  20.110  0.00  0.00    +0.000 HD
ENDROOT
BRANCH   3   5
ATOM      5  C   UNL     1       0.671   9.960  19.794  0.00  0.00    +0.000 A 
ATOM      6  C   UNL     1       0.159  10.817  18.814  0.00  0.00    +0.000 A 
ATOM      7  C   UNL     1      -0.445  12.027  19.156  0.00  0.00    +0.000 A 
ATOM      8  C   UNL     1      -0.517  12.415  20.484  0.00  0.00    +0.000 A 
ATOM      9  C   UNL     1      -0.031  11.576  21.479  0.00  0.00    +0.000 A 
ATOM     10  C   UNL     1       0.525  10.324  21.147  0.00  0.00    +0.000 A 
BRANCH  10  11
ATOM     11  C   UNL     1       0.996   9.441  22.245  0.00  0.00    +0.000 C 
ATOM     12  O   UNL     1       0.686   9.609  23.413  0.00  0.00    +0.000 OA
BRANCH  11  13
ATOM     13  O   UNL     1       1.849   8.467  21.851  0.00  0.00    +0.000 OA
ATOM     14  H   UNL     1       2.275   8.600  20.985  0.00  0.00    +0.000 HD
ENDBRANCH  11  13
ENDBRANCH  10  11
ENDBRANCH   3   5
BRANCH   2  15
ATOM     15  O   UNL     1       2.077   7.137  18.125  0.00  0.00    +0.000 OA
BRANCH  15  16
ATOM     16  C   UNL     1       3.096   6.502  18.916  0.00  0.00    +0.000 C 
ATOM     17  C   UNL     1       2.453   5.214  19.386  0.00  0.00    +0.000 A 
ATOM     18  C   UNL     1       1.584   5.016  20.447  0.00  0.00    +0.000 A 
ATOM     19  C   UNL     1       1.107   3.723  20.661  0.00  0.00    +0.000 A 
ATOM     20  C   UNL     1       1.501   2.662  19.824  0.00  0.00    +0.000 A 
ATOM     21  C   UNL     1       2.358   2.878  18.741  0.00  0.00    +0.000 A 
ATOM     22  C   UNL     1       2.818   4.162  18.516  0.00  0.00    +0.000 A 
ATOM     23  C   UNL     1       3.768   4.666  17.550  0.00  0.00    +0.000 A 
ATOM     24  C   UNL     1       4.325   4.081  16.430  0.00  0.00    +0.000 A 
ATOM     25  C   UNL     1       5.363   4.756  15.782  0.00  0.00    +0.000 A 
ATOM     26  C   UNL     1       5.854   5.972  16.287  0.00  0.00    +0.000 A 
ATOM     27  C   UNL     1       5.219   6.610  17.357  0.00  0.00    +0.000 A 
ATOM     28  C   UNL     1       4.124   5.978  17.923  0.00  0.00    +0.000 A 
ENDBRANCH  15  16
ENDBRANCH   2  15
TORSDOF 5
ENDMDL
MODEL 3
REMARK VINA RESULT:      -8.7      1.653      2.564
REMARK  Name = 
REMARK  5 active torsions:
REMARK  status: ('A' for Active; 'I' for Inactive)
REMARK    1  A    between atoms: C_2  and  O_13
REMARK    2  A    between atoms: N_3  and  C_4
REMARK    3  A    between atoms: C_9  and  C_10
REMARK    4  A    between atoms: C_10  and  O_12
REMARK    5  A    between atoms: O_13  and  C_14
REMARK                            x       y       z     vdW  Elec       q    Type
REMARK                         _______ _______ _______ _____ _____    ______ ____
ROOT
ATOM      1  O   UNL     1       2.366   8.930  17.578  0.00  0.00    +0.000 OA
ATOM      2  C   UNL     1       2.201   8.267  18.591  0.00  0.00    +0.000 C 
ATOM      3  N   UNL     1       1.463   8.605  19.700  0.00  0.00    +0.000 N 
ATOM      4  H   UNL     1       1.770   8.147  20.555  0.00  0.00    +0.000 HD
ENDROOT
BRANCH   3   5
ATOM      5  C   UNL     1       0.513   9.645  19.799  0.00  0.00    +0.000 A 
ATOM      6  C   UNL     1      -0.042  10.188  18.634  0.00  0.00    +0.000 A 
ATOM      7  C   UNL     1      -1.001  11.198  18.693  0.00  0.00    +0.000 A 
ATOM      8  C   UNL     1      -1.398  11.706  19.920  0.00  0.00    +0.000 A 
ATOM      9  C   UNL     1      -0.876  11.175  21.093  0.00  0.00    +0.000 A 
ATOM     10  C   UNL     1       0.048  10.112  21.043  0.00  0.00    +0.000 A 
BRANCH  10  11
ATOM     11  C   UNL     1       0.551   9.547  22.322  0.00  0.00    +0.000 C 
ATOM     12  O   UNL     1       1.738   9.406  22.566  0.00  0.00    +0.000 OA
BRANCH  11  13
ATOM     13  O   UNL     1      -0.419   9.142  23.174  0.00  0.00    +0.000 OA
ATOM     14  H   UNL     1      -0.894   9.851  23.645  0.00  0.00    +0.000 HD
ENDBRANCH  11  13
ENDBRANCH  10  11
ENDBRANCH   3   5
BRANCH   2  15
ATOM     15  O   UNL     1       2.769   7.066  18.804  0.00  0.00    +0.000 OA
BRANCH  15  16
ATOM     16  C   UNL     1       3.087   6.266  17.651  0.00  0.00    +0.000 C 
ATOM     17  C   UNL     1       4.599   6.172  17.671  0.00  0.00    +0.000 A 
ATOM     18  C   UNL     1       5.530   7.094  17.219  0.00  0.00    +0.000 A 
ATOM     19  C   UNL     1       6.880   6.778  17.372  0.00  0.00    +0.000 A 
ATOM     20  C   UNL     1       7.274   5.565  17.966  0.00  0.00    +0.000 A 
ATOM     21  C   UNL     1       6.326   4.654  18.442  0.00  0.00    +0.000 A 
ATOM     22  C   UNL     1       4.987   4.972  18.307  0.00  0.00    +0.000 A 
ATOM     23  C   UNL     1       3.801   4.204  18.613  0.00  0.00    +0.000 A 
ATOM     24  C   UNL     1       3.633   3.036  19.331  0.00  0.00    +0.000 A 
ATOM     25  C   UNL     1       2.378   2.424  19.309  0.00  0.00    +0.000 A 
ATOM     26  C   UNL     1       1.332   2.959  18.537  0.00  0.00    +0.000 A 
ATOM     27  C   UNL     1       1.476   4.195  17.898  0.00  0.00    +0.000 A 
ATOM     28  C   UNL     1       2.695   4.842  18.017  0.00  0.00    +0.000 A 
ENDBRANCH  15  16
ENDBRANCH   2  15
TORSDOF 5
ENDMDL
MODEL 4
REMARK VINA RESULT:      -8.6      4.056      6.033
REMARK  Name = 
REMARK  5 active torsions:
REMARK  status: ('A' for Active; 'I' for Inactive)
REMARK    1  A    between atoms: C_2  and  O_13
REMARK    2  A    between atoms: N_3  and  C_4
REMARK    3  A    between atoms: C_9  and  C_10
REMARK    4  A    between atoms: C_10  and  O_12
REMARK    5  A    between atoms: O_13  and  C_14
REMARK                            x       y       z     vdW  Elec       q    Type
REMARK                         _______ _______ _______ _____ _____    ______ ____
ROOT
ATOM      1  O   UNL     1       2.355   3.172  16.520  0.00  0.00    +0.000 OA
ATOM      2  C   UNL     1       3.227   3.901  16.969  0.00  0.00    +0.000 C 
ATOM      3  N   UNL     1       3.348   4.363  18.258  0.00  0.00    +0.000 N 
ATOM      4  H   UNL     1       3.859   5.239  18.336  0.00  0.00    +0.000 HD
ENDROOT
BRANCH   3   5
ATOM      5  C   UNL     1       2.671   3.876  19.398  0.00  0.00    +0.000 A 
ATOM      6  C   UNL     1       1.517   4.528  19.847  0.00  0.00    +0.000 A 
ATOM      7  C   UNL     1       0.807   4.060  20.953  0.00  0.00    +0.000 A 
ATOM      8  C   UNL     1       1.260   2.951  21.649  0.00  0.00    +0.000 A 
ATOM      9  C   UNL     1       2.394   2.275  21.215  0.00  0.00    +0.000 A 
ATOM     10  C   UNL     1       3.082   2.704  20.062  0.00  0.00    +0.000 A 
BRANCH  10  11
ATOM     11  C   UNL     1       4.266   1.929  19.611  0.00  0.00    +0.000 C 
ATOM     12  O   UNL     1       5.302   1.863  20.251  0.00  0.00    +0.000 OA
BRANCH  11  13
ATOM     13  O   UNL     1       4.124   1.349  18.396  0.00  0.00    +0.000 OA
ATOM     14  H   UNL     1       3.240   1.423  17.991  0.00  0.00    +0.000 HD
ENDBRANCH  11  13
ENDBRANCH  10  11
ENDBRANCH   3   5
BRANCH   2  15
ATOM     15  O   UNL     1       4.228   4.418  16.233  0.00  0.00    +0.000 OA
BRANCH  15  16
ATOM     16  C   UNL     1       5.502   3.752  16.281  0.00  0.00    +0.000 C 
ATOM     17  C   UNL     1       6.095   3.988  14.907  0.00  0.00    +0.000 A 
ATOM     18  C   UNL     1       5.846   3.305  13.727  0.00  0.00    +0.000 A 
ATOM     19  C   UNL     1       6.510   3.734  12.578  0.00  0.00    +0.000 A 
ATOM     20  C   UNL     1       7.400   4.822  12.624  0.00  0.00    +0.000 A 
ATOM     21  C   UNL     1       7.625   5.520  13.815  0.00  0.00    +0.000 A 
ATOM     22  C   UNL     1       6.955   5.108  14.952  0.00  0.00    +0.000 A 
ATOM     23  C   UNL     1       7.051   5.565  16.320  0.00  0.00    +0.000 A 
ATOM     24  C   UNL     1       7.655   6.680  16.867  0.00  0.00    +0.000 A 
ATOM     25  C   UNL     1       7.739   6.768  18.258  0.00  0.00    +0.000 A 
ATOM     26  C   UNL     1       7.265   5.725  19.073  0.00  0.00    +0.000 A 
ATOM     27  C   UNL     1       6.562   4.650  18.521  0.00  0.00    +0.000 A 
ATOM     28  C   UNL     1       6.394   4.630  17.146  0.00  0.00    +0.000 A 
ENDBRANCH  15  16
ENDBRANCH   2  15
TORSDOF 5
ENDMDL
MODEL 5
REMARK VINA RESULT:      -8.5      1.933      2.709
REMARK  Name = 
REMARK  5 active torsions:
REMARK  status: ('A' for Active; 'I' for Inactive)
REMARK    1  A    between atoms: C_2  and  O_13
REMARK    2  A    between atoms: N_3  and  C_4
REMARK    3  A    between atoms: C_9  and  C_10
REMARK    4  A    between atoms: C_10  and  O_12
REMARK    5  A    between atoms: O_13  and  C_14
REMARK                            x       y       z     vdW  Elec       q    Type
REMARK                         _______ _______ _______ _____ _____    ______ ____
ROOT
ATOM      1  O   UNL     1       2.492   9.152  17.101  0.00  0.00    +0.000 OA
ATOM      2  C   UNL     1       2.233   8.572  18.145  0.00  0.00    +0.000 C 
ATOM      3  N   UNL     1       1.313   8.939  19.098  0.00  0.00    +0.000 N 
ATOM      4  H   UNL     1       1.525   8.592  20.031  0.00  0.00    +0.000 HD
ENDROOT
BRANCH   3   5
ATOM      5  C   UNL     1       0.279   9.890  18.954  0.00  0.00    +0.000 A 
ATOM      6  C   UNL     1      -0.629   9.768  17.895  0.00  0.00    +0.000 A 
ATOM      7  C   UNL     1      -1.678  10.673  17.736  0.00  0.00    +0.000 A 
ATOM      8  C   UNL     1      -1.818  11.735  18.615  0.00  0.00    +0.000 A 
ATOM      9  C   UNL     1      -0.940  11.870  19.684  0.00  0.00    +0.000 A 
ATOM     10  C   UNL     1       0.085  10.925  19.888  0.00  0.00    +0.000 A 
BRANCH  10  11
ATOM     11  C   UNL     1       0.976  11.085  21.066  0.00  0.00    +0.000 C 
ATOM     12  O   UNL     1       1.162  10.200  21.885  0.00  0.00    +0.000 OA
BRANCH  11  13
ATOM     13  O   UNL     1       1.519  12.319  21.193  0.00  0.00    +0.000 OA
ATOM     14  H   UNL     1       1.053  13.037  20.727  0.00  0.00    +0.000 HD
ENDBRANCH  11  13
ENDBRANCH  10  11
ENDBRANCH   3   5
BRANCH   2  15
ATOM     15  O   UNL     1       2.857   7.454  18.560  0.00  0.00    +0.000 OA
BRANCH  15  16
ATOM     16  C   UNL     1       3.253   6.502  17.558  0.00  0.00    +0.000 C 
ATOM     17  C   UNL     1       4.754   6.386  17.728  0.00  0.00    +0.000 A 
ATOM     18  C   UNL     1       5.747   7.223  17.245  0.00  0.00    +0.000 A 
ATOM     19  C   UNL     1       7.069   6.909  17.562  0.00  0.00    +0.000 A 
ATOM     20  C   UNL     1       7.374   5.780  18.344  0.00  0.00    +0.000 A 
ATOM     21  C   UNL     1       6.362   4.957  18.848  0.00  0.00    +0.000 A 
ATOM     22  C   UNL     1       5.049   5.276  18.550  0.00  0.00    +0.000 A 
ATOM     23  C   UNL     1       3.820   4.576  18.846  0.00  0.00    +0.000 A 
ATOM     24  C   UNL     1       3.555   3.519  19.694  0.00  0.00    +0.000 A 
ATOM     25  C   UNL     1       2.289   2.930  19.638  0.00  0.00    +0.000 A 
ATOM     26  C   UNL     1       1.332   3.374  18.709  0.00  0.00    +0.000 A 
ATOM     27  C   UNL     1       1.567   4.509  17.928  0.00  0.00    +0.000 A 
ATOM     28  C   UNL     1       2.789   5.146  18.071  0.00  0.00    +0.000 A 
ENDBRANCH  15  16
ENDBRANCH   2  15
TORSDOF 5
ENDMDL
MODEL 6
REMARK VINA RESULT:      -8.5      1.842      2.656
REMARK  Name = 
REMARK  5 active torsions:
REMARK  status: ('A' for Active; 'I' for Inactive)
REMARK    1  A    between atoms: C_2  and  O_13
REMARK    2  A    between atoms: N_3  and  C_4
REMARK    3  A    between atoms: C_9  and  C_10
REMARK    4  A    between atoms: C_10  and  O_12
REMARK    5  A    between atoms: O_13  and  C_14
REMARK                            x       y       z     vdW  Elec       q    Type
REMARK                         _______ _______ _______ _____ _____    ______ ____
ROOT
ATOM      1  O   UNL     1       2.310   8.825  17.990  0.00  0.00    +0.000 OA
ATOM      2  C   UNL     1       2.119   8.202  19.023  0.00  0.00    +0.000 C 
ATOM      3  N   UNL     1       1.363   8.588  20.105  0.00  0.00    +0.000 N 
ATOM      4  H   UNL     1       1.649   8.160  20.982  0.00  0.00    +0.000 HD
ENDROOT
BRANCH   3   5
ATOM      5  C   UNL     1       0.423   9.641  20.147  0.00  0.00    +0.000 A 
ATOM      6  C   UNL     1      -0.168  10.087  18.959  0.00  0.00    +0.000 A 
ATOM      7  C   UNL     1      -1.120  11.107  18.965  0.00  0.00    +0.000 A 
ATOM      8  C   UNL     1      -1.471  11.721  20.156  0.00  0.00    +0.000 A 
ATOM      9  C   UNL     1      -0.912  11.287  21.351  0.00  0.00    +0.000 A 
ATOM     10  C   UNL     1       0.004  10.216  21.362  0.00  0.00    +0.000 A 
BRANCH  10  11
ATOM     11  C   UNL     1       0.547   9.757  22.666  0.00  0.00    +0.000 C 
ATOM     12  O   UNL     1       1.712   9.429  22.824  0.00  0.00    +0.000 OA
BRANCH  11  13
ATOM     13  O   UNL     1      -0.372   9.673  23.656  0.00  0.00    +0.000 OA
ATOM     14  H   UNL     1      -1.154  10.247  23.559  0.00  0.00    +0.000 HD
ENDBRANCH  11  13
ENDBRANCH  10  11
ENDBRANCH   3   5
BRANCH   2  15
ATOM     15  O   UNL     1       2.670   7.004  19.292  0.00  0.00    +0.000 OA
BRANCH  15  16
ATOM     16  C   UNL     1       2.442   5.940  18.351  0.00  0.00    +0.000 C 
ATOM     17  C   UNL     1       3.813   5.658  17.772  0.00  0.00    +0.000 A 
ATOM     18  C   UNL     1       4.483   6.332  16.763  0.00  0.00    +0.000 A 
ATOM     19  C   UNL     1       5.760   5.885  16.423  0.00  0.00    +0.000 A 
ATOM     20  C   UNL     1       6.339   4.787  17.086  0.00  0.00    +0.000 A 
ATOM     21  C   UNL     1       5.665   4.130  18.119  0.00  0.00    +0.000 A 
ATOM     22  C   UNL     1       4.406   4.583  18.471  0.00  0.00    +0.000 A 
ATOM     23  C   UNL     1       3.447   4.059  19.418  0.00  0.00    +0.000 A 
ATOM     24  C   UNL     1       3.574   3.105  20.408  0.00  0.00    +0.000 A 
ATOM     25  C   UNL     1       2.415   2.671  21.056  0.00  0.00    +0.000 A 
ATOM     26  C   UNL     1       1.153   3.158  20.674  0.00  0.00    +0.000 A 
ATOM     27  C   UNL     1       1.040   4.197  19.746  0.00  0.00    +0.000 A 
ATOM     28  C   UNL     1       2.208   4.691  19.188  0.00  0.00    +0.000 A 
ENDBRANCH  15  16
ENDBRANCH   2  15
TORSDOF 5
ENDMDL
MODEL 7
REMARK VINA RESULT:      -8.5      1.828      3.902
REMARK  Name = 
REMARK  5 active torsions:
REMARK  status: ('A' for Active; 'I' for Inactive)
REMARK    1  A    between atoms: C_2  and  O_13
REMARK    2  A    between atoms: N_3  and  C_4
REMARK    3  A    between atoms: C_9  and  C_10
REMARK    4  A    between atoms: C_10  and  O_12
REMARK    5  A    between atoms: O_13  and  C_14
REMARK                            x       y       z     vdW  Elec       q    Type
REMARK                         _______ _______ _______ _____ _____    ______ ____
ROOT
ATOM      1  O   UNL     1       1.852   8.335  20.191  0.00  0.00    +0.000 OA
ATOM      2  C   UNL     1       1.951   8.245  18.977  0.00  0.00    +0.000 C 
ATOM      3  N   UNL     1       1.677   9.215  18.042  0.00  0.00    +0.000 N 
ATOM      4  H   UNL     1       1.426   8.847  17.128  0.00  0.00    +0.000 HD
ENDROOT
BRANCH   3   5
ATOM      5  C   UNL     1       1.500  10.596  18.283  0.00  0.00    +0.000 A 
ATOM      6  C   UNL     1       2.528  11.490  17.964  0.00  0.00    +0.000 A 
ATOM      7  C   UNL     1       2.379  12.863  18.163  0.00  0.00    +0.000 A 
ATOM      8  C   UNL     1       1.211  13.360  18.718  0.00  0.00    +0.000 A 
ATOM      9  C   UNL     1       0.168  12.496  19.030  0.00  0.00    +0.000 A 
ATOM     10  C   UNL     1       0.287  11.115  18.774  0.00  0.00    +0.000 A 
BRANCH  10  11
ATOM     11  C   UNL     1      -0.867  10.232  19.085  0.00  0.00    +0.000 C 
ATOM     12  O   UNL     1      -1.827  10.104  18.343  0.00  0.00    +0.000 OA
BRANCH  11  13
ATOM     13  O   UNL     1      -0.797   9.626  20.293  0.00  0.00    +0.000 OA
ATOM     14  H   UNL     1      -1.326   8.813  20.392  0.00  0.00    +0.000 HD
ENDBRANCH  11  13
ENDBRANCH  10  11
ENDBRANCH   3   5
BRANCH   2  15
ATOM     15  O   UNL     1       2.327   7.124  18.333  0.00  0.00    +0.000 OA
BRANCH  15  16
ATOM     16  C   UNL     1       3.224   6.233  19.018  0.00  0.00    +0.000 C 
ATOM     17  C   UNL     1       2.425   4.957  19.183  0.00  0.00    +0.000 A 
ATOM     18  C   UNL     1       1.475   4.649  20.144  0.00  0.00    +0.000 A 
ATOM     19  C   UNL     1       0.857   3.401  20.066  0.00  0.00    +0.000 A 
ATOM     20  C   UNL     1       1.192   2.493  19.045  0.00  0.00    +0.000 A 
ATOM     21  C   UNL     1       2.134   2.824  18.066  0.00  0.00    +0.000 A 
ATOM     22  C   UNL     1       2.735   4.068  18.130  0.00  0.00    +0.000 A 
ATOM     23  C   UNL     1       3.790   4.646  17.330  0.00  0.00    +0.000 A 
ATOM     24  C   UNL     1       4.355   4.240  16.137  0.00  0.00    +0.000 A 
ATOM     25  C   UNL     1       5.494   4.910  15.685  0.00  0.00    +0.000 A 
ATOM     26  C   UNL     1       6.074   5.937  16.451  0.00  0.00    +0.000 A 
ATOM     27  C   UNL     1       5.441   6.414  17.602  0.00  0.00    +0.000 A 
ATOM     28  C   UNL     1       4.253   5.808  17.980  0.00  0.00    +0.000 A 
ENDBRANCH  15  16
ENDBRANCH   2  15
TORSDOF 5
ENDMDL
MODEL 8
REMARK VINA RESULT:      -8.4      1.812      4.070
REMARK  Name = 
REMARK  5 active torsions:
REMARK  status: ('A' for Active; 'I' for Inactive)
REMARK    1  A    between atoms: C_2  and  O_13
REMARK    2  A    between atoms: N_3  and  C_4
REMARK    3  A    between atoms: C_9  and  C_10
REMARK    4  A    between atoms: C_10  and  O_12
REMARK    5  A    between atoms: O_13  and  C_14
REMARK                            x       y       z     vdW  Elec       q    Type
REMARK                         _______ _______ _______ _____ _____    ______ ____
ROOT
ATOM      1  O   UNL     1       2.565   9.689  17.624  0.00  0.00    +0.000 OA
ATOM      2  C   UNL     1       1.826   8.771  17.945  0.00  0.00    +0.000 C 
ATOM      3  N   UNL     1       0.598   8.862  18.557  0.00  0.00    +0.000 N 
ATOM      4  H   UNL     1       0.343   8.037  19.094  0.00  0.00    +0.000 HD
ENDROOT
BRANCH   3   5
ATOM      5  C   UNL     1      -0.197  10.022  18.688  0.00  0.00    +0.000 A 
ATOM      6  C   UNL     1      -1.142  10.327  17.700  0.00  0.00    +0.000 A 
ATOM      7  C   UNL     1      -1.963  11.449  17.809  0.00  0.00    +0.000 A 
ATOM      8  C   UNL     1      -1.830  12.304  18.890  0.00  0.00    +0.000 A 
ATOM      9  C   UNL     1      -0.912  12.017  19.893  0.00  0.00    +0.000 A 
ATOM     10  C   UNL     1      -0.121  10.852  19.822  0.00  0.00    +0.000 A 
BRANCH  10  11
ATOM     11  C   UNL     1       0.819  10.562  20.935  0.00  0.00    +0.000 C 
ATOM     12  O   UNL     1       1.000   9.440  21.379  0.00  0.00    +0.000 OA
BRANCH  11  13
ATOM     13  O   UNL     1       1.416  11.657  21.463  0.00  0.00    +0.000 OA
ATOM     14  H   UNL     1       1.068  11.957  22.323  0.00  0.00    +0.000 HD
ENDBRANCH  11  13
ENDBRANCH  10  11
ENDBRANCH   3   5
BRANCH   2  15
ATOM     15  O   UNL     1       2.124   7.470  17.776  0.00  0.00    +0.000 OA
BRANCH  15  16
ATOM     16  C   UNL     1       3.129   6.900  18.633  0.00  0.00    +0.000 C 
ATOM     17  C   UNL     1       2.465   5.668  19.214  0.00  0.00    +0.000 A 
ATOM     18  C   UNL     1       1.585   5.581  20.280  0.00  0.00    +0.000 A 
ATOM     19  C   UNL     1       1.091   4.319  20.610  0.00  0.00    +0.000 A 
ATOM     20  C   UNL     1       1.478   3.180  19.880  0.00  0.00    +0.000 A 
ATOM     21  C   UNL     1       2.347   3.284  18.789  0.00  0.00    +0.000 A 
ATOM     22  C   UNL     1       2.825   4.536  18.450  0.00  0.00    +0.000 A 
ATOM     23  C   UNL     1       3.789   4.938  17.451  0.00  0.00    +0.000 A 
ATOM     24  C   UNL     1       4.349   4.244  16.396  0.00  0.00    +0.000 A 
ATOM     25  C   UNL     1       5.400   4.843  15.697  0.00  0.00    +0.000 A 
ATOM     26  C   UNL     1       5.903   6.096  16.092  0.00  0.00    +0.000 A 
ATOM     27  C   UNL     1       5.266   6.838  17.091  0.00  0.00    +0.000 A 
ATOM     28  C   UNL     1       4.158   6.274  17.703  0.00  0.00    +0.000 A 
ENDBRANCH  15  16
ENDBRANCH   2  15
TORSDOF 5
ENDMDL
MODEL 9
REMARK VINA RESULT:      -8.1      2.755      7.567
REMARK  Name = 
REMARK  5 active torsions:
REMARK  status: ('A' for Active; 'I' for Inactive)
REMARK    1  A    between atoms: C_2  and  O_13
REMARK    2  A    between atoms: N_3  and  C_4
REMARK    3  A    between atoms: C_9  and  C_10
REMARK    4  A    between atoms: C_10  and  O_12
REMARK    5  A    between atoms: O_13  and  C_14
REMARK                            x       y       z     vdW  Elec       q    Type
REMARK                         _______ _______ _______ _____ _____    ______ ____
ROOT
ATOM      1  O   UNL     1       4.733   6.725  16.298  0.00  0.00    +0.000 OA
ATOM      2  C   UNL     1       4.492   5.572  16.624  0.00  0.00    +0.000 C 
ATOM      3  N   UNL     1       4.737   4.430  15.898  0.00  0.00    +0.000 N 
ATOM      4  H   UNL     1       4.122   3.654  16.132  0.00  0.00    +0.000 HD
ENDROOT
BRANCH   3   5
ATOM      5  C   UNL     1       5.568   4.312  14.763  0.00  0.00    +0.000 A 
ATOM      6  C   UNL     1       5.015   3.911  13.541  0.00  0.00    +0.000 A 
ATOM      7  C   UNL     1       5.800   3.809  12.392  0.00  0.00    +0.000 A 
ATOM      8  C   UNL     1       7.158   4.072  12.454  0.00  0.00    +0.000 A 
ATOM      9  C   UNL     1       7.730   4.487  13.651  0.00  0.00    +0.000 A 
ATOM     10  C   UNL     1       6.933   4.653  14.802  0.00  0.00    +0.000 A 
BRANCH  10  11
ATOM     11  C   UNL     1       7.578   5.137  16.049  0.00  0.00    +0.000 C 
ATOM     12  O   UNL     1       7.938   4.391  16.945  0.00  0.00    +0.000 OA
BRANCH  11  13
ATOM     13  O   UNL     1       7.679   6.483  16.141  0.00  0.00    +0.000 OA
ATOM     14  H   UNL     1       8.193   6.919  15.437  0.00  0.00    +0.000 HD
ENDBRANCH  11  13
ENDBRANCH  10  11
ENDBRANCH   3   5
BRANCH   2  15
ATOM     15  O   UNL     1       3.892   5.226  17.777  0.00  0.00    +0.000 OA
BRANCH  15  16
ATOM     16  C   UNL     1       2.454   5.192  17.795  0.00  0.00    +0.000 C 
ATOM     17  C   UNL     1       2.122   4.122  18.815  0.00  0.00    +0.000 A 
ATOM     18  C   UNL     1       2.098   2.746  18.650  0.00  0.00    +0.000 A 
ATOM     19  C   UNL     1       1.779   1.966  19.762  0.00  0.00    +0.000 A 
ATOM     20  C   UNL     1       1.494   2.564  21.003  0.00  0.00    +0.000 A 
ATOM     21  C   UNL     1       1.546   3.952  21.165  0.00  0.00    +0.000 A 
ATOM     22  C   UNL     1       1.879   4.726  20.068  0.00  0.00    +0.000 A 
ATOM     23  C   UNL     1       1.923   6.162  19.908  0.00  0.00    +0.000 A 
ATOM     24  C   UNL     1       1.873   7.184  20.836  0.00  0.00    +0.000 A 
ATOM     25  C   UNL     1       1.755   8.494  20.367  0.00  0.00    +0.000 A 
ATOM     26  C   UNL     1       1.641   8.757  18.991  0.00  0.00    +0.000 A 
ATOM     27  C   UNL     1       1.798   7.732  18.053  0.00  0.00    +0.000 A 
ATOM     28  C   UNL     1       2.020   6.451  18.532  0.00  0.00    +0.000 A 
ENDBRANCH  15  16
ENDBRANCH   2  15
TORSDOF 5
ENDMDL
