MODEL 1
REMARK VINA RESULT:      -7.8      0.000      0.000
REMARK  Name = 
REMARK  5 active torsions:
REMARK  status: ('A' for Active; 'I' for Inactive)
REMARK    1  A    between atoms: C_1  and  C_2
REMARK    2  A    between atoms: C_4  and  N_5
REMARK    3  A    between atoms: C_16  and  C_17
REMARK    4  A    between atoms: C_19  and  C_21
REMARK    5  A    between atoms: C_25  and  N_26
REMARK                            x       y       z     vdW  Elec       q    Type
REMARK                         _______ _______ _______ _____ _____    ______ ____
ROOT
ATOM      1  C   UNL     1       0.559  13.368  20.007  0.00  0.00    +0.000 C 
ATOM      2  C   UNL     1      -0.473  12.360  20.533  0.00  0.00    +0.000 C 
ATOM      3  C   UNL     1       0.122  10.987  20.831  0.00  0.00    +0.000 C 
ATOM      4  C   UNL     1       0.448  10.228  19.552  0.00  0.00    +0.000 C 
ATOM      5  C   UNL     1      -0.754  10.172  18.602  0.00  0.00    +0.000 C 
ATOM      6  C   UNL     1      -1.344  11.565  18.336  0.00  0.00    +0.000 C 
ATOM      7  C   UNL     1      -2.465  11.423  17.300  0.00  0.00    +0.000 C 
ATOM      8  N   UNL     1      -1.643  12.251  19.626  0.00  0.00    +0.000 N 
ATOM      9  C   UNL     1      -2.962  12.590  19.996  0.00  0.00    +0.000 C 
ATOM     10  O   UNL     1      -3.957  12.286  19.333  0.00  0.00    +0.000 OA
ENDROOT
BRANCH   4  11
ATOM     11  N   UNL     1       1.008   8.920  19.821  0.00  0.00    +0.000 N 
ATOM     12  C   UNL     1       0.797   8.201  20.987  0.00  0.00    +0.000 A 
ATOM     13  O   UNL     1       0.050   8.521  21.903  0.00  0.00    +0.000 OA
ATOM     14  O   UNL     1       1.566   7.033  21.005  0.00  0.00    +0.000 OA
ATOM     15  C   UNL     1       2.250   7.107  19.804  0.00  0.00    +0.000 A 
ATOM     16  C   UNL     1       3.192   6.199  19.371  0.00  0.00    +0.000 A 
ATOM     17  C   UNL     1       3.800   6.436  18.134  0.00  0.00    +0.000 A 
ATOM     18  C   UNL     1       3.447   7.560  17.366  0.00  0.00    +0.000 A 
ATOM     19  C   UNL     1       2.490   8.467  17.827  0.00  0.00    +0.000 A 
ATOM     20  C   UNL     1       1.919   8.221  19.060  0.00  0.00    +0.000 A 
ENDBRANCH   4  11
BRANCH   9  21
ATOM     21  C   UNL     1      -3.256  13.337  21.255  0.00  0.00    +0.000 A 
ATOM     22  C   UNL     1      -3.181  14.726  21.342  0.00  0.00    +0.000 A 
ATOM     23  C   UNL     1      -3.336  15.374  22.560  0.00  0.00    +0.000 A 
ATOM     24 CL   UNL     1      -2.977  17.067  22.624  0.00  0.00    +0.000 Cl
ATOM     25  C   UNL     1      -3.712  14.677  23.717  0.00  0.00    +0.000 A 
ATOM     26  C   UNL     1      -3.945  13.291  23.583  0.00  0.00    +0.000 A 
ATOM     27 CL   UNL     1      -4.521  12.367  24.927  0.00  0.00    +0.000 Cl
ATOM     28  C   UNL     1      -3.683  12.621  22.381  0.00  0.00    +0.000 A 
BRANCH  25  29
ATOM     29  N   UNL     1      -4.077  15.380  24.884  0.00  0.00    +0.000 N 
ATOM     30  H   UNL     1      -4.369  16.338  24.705  0.00  0.00    +0.000 HD
ATOM     31  H   UNL     1      -3.426  15.276  25.650  0.00  0.00    +0.000 HD
ENDBRANCH  25  29
ENDBRANCH   9  21
TORSDOF 3
ENDMDL
MODEL 2
REMARK VINA RESULT:      -7.8      0.490      1.744
REMARK  Name = 
REMARK  5 active torsions:
REMARK  status: ('A' for Active; 'I' for Inactive)
REMARK    1  A    between atoms: C_1  and  C_2
REMARK    2  A    between atoms: C_4  and  N_5
REMARK    3  A    between atoms: C_16  and  C_17
REMARK    4  A    between atoms: C_19  and  C_21
REMARK    5  A    between atoms: C_25  and  N_26
REMARK                            x       y       z     vdW  Elec       q    Type
REMARK                         _______ _______ _______ _____ _____    ______ ____
ROOT
ATOM      1  C   UNL     1       1.035  13.129  20.482  0.00  0.00    +0.000 C 
ATOM      2  C   UNL     1      -0.073  12.140  20.868  0.00  0.00    +0.000 C 
ATOM      3  C   UNL     1       0.431  10.711  21.052  0.00  0.00    +0.000 C 
ATOM      4  C   UNL     1       0.769  10.060  19.719  0.00  0.00    +0.000 C 
ATOM      5  C   UNL     1      -0.392  10.166  18.723  0.00  0.00    +0.000 C 
ATOM      6  C   UNL     1      -0.892  11.611  18.573  0.00  0.00    +0.000 C 
ATOM      7  C   UNL     1      -1.973  11.636  17.487  0.00  0.00    +0.000 C 
ATOM      8  N   UNL     1      -1.208  12.187  19.911  0.00  0.00    +0.000 N 
ATOM      9  C   UNL     1      -2.520  12.567  20.263  0.00  0.00    +0.000 C 
ATOM     10  O   UNL     1      -3.501  12.388  19.536  0.00  0.00    +0.000 OA
ENDROOT
BRANCH   4  11
ATOM     11  N   UNL     1       1.242   8.701  19.879  0.00  0.00    +0.000 N 
ATOM     12  C   UNL     1       0.966   7.897  20.973  0.00  0.00    +0.000 A 
ATOM     13  O   UNL     1       0.222   8.182  21.904  0.00  0.00    +0.000 OA
ATOM     14  O   UNL     1       1.661   6.686  20.899  0.00  0.00    +0.000 OA
ATOM     15  C   UNL     1       2.372   6.823  19.719  0.00  0.00    +0.000 A 
ATOM     16  C   UNL     1       3.266   5.898  19.221  0.00  0.00    +0.000 A 
ATOM     17  C   UNL     1       3.911   6.204  18.019  0.00  0.00    +0.000 A 
ATOM     18  C   UNL     1       3.642   7.410  17.348  0.00  0.00    +0.000 A 
ATOM     19  C   UNL     1       2.733   8.331  17.873  0.00  0.00    +0.000 A 
ATOM     20  C   UNL     1       2.124   8.016  19.072  0.00  0.00    +0.000 A 
ENDBRANCH   4  11
BRANCH   9  21
ATOM     21  C   UNL     1      -2.826  13.207  21.577  0.00  0.00    +0.000 A 
ATOM     22  C   UNL     1      -3.385  12.507  22.645  0.00  0.00    +0.000 A 
ATOM     23  C   UNL     1      -3.774  13.166  23.805  0.00  0.00    +0.000 A 
ATOM     24 CL   UNL     1      -4.685  12.269  24.973  0.00  0.00    +0.000 Cl
ATOM     25  C   UNL     1      -3.493  14.525  24.003  0.00  0.00    +0.000 A 
ATOM     26  C   UNL     1      -2.781  15.188  22.981  0.00  0.00    +0.000 A 
ATOM     27 CL   UNL     1      -2.291  16.835  23.184  0.00  0.00    +0.000 Cl
ATOM     28  C   UNL     1      -2.486  14.554  21.767  0.00  0.00    +0.000 A 
BRANCH  25  29
ATOM     29  N   UNL     1      -3.697  15.116  25.267  0.00  0.00    +0.000 N 
ATOM     30  H   UNL     1      -3.083  14.746  25.990  0.00  0.00    +0.000 HD
ATOM     31  H   UNL     1      -4.668  15.188  25.539  0.00  0.00    +0.000 HD
ENDBRANCH  25  29
ENDBRANCH   9  21
TORSDOF 3
ENDMDL
MODEL 3
REMARK VINA RESULT:      -7.5      3.745      5.328
REMARK  Name = 
REMARK  5 active torsions:
REMARK  status: ('A' for Active; 'I' for Inactive)
REMARK    1  A    between atoms: C_1  and  C_2
REMARK    2  A    between atoms: C_4  and  N_5
REMARK    3  A    between atoms: C_16  and  C_17
REMARK    4  A    between atoms: C_19  and  C_21
REMARK    5  A    between atoms: C_25  and  N_26
REMARK                            x       y       z     vdW  Elec       q    Type
REMARK                         _______ _______ _______ _____ _____    ______ ____
ROOT
ATOM      1  C   UNL     1      -0.441  10.028  17.810  0.00  0.00    +0.000 C 
ATOM      2  C   UNL     1       0.855  10.296  18.589  0.00  0.00    +0.000 C 
ATOM      3  C   UNL     1       1.884   9.177  18.451  0.00  0.00    +0.000 C 
ATOM      4  C   UNL     1       1.476   7.941  19.240  0.00  0.00    +0.000 C 
ATOM      5  C   UNL     1       1.144   8.280  20.699  0.00  0.00    +0.000 C 
ATOM      6  C   UNL     1       0.122   9.422  20.807  0.00  0.00    +0.000 C 
ATOM      7  C   UNL     1      -0.226   9.618  22.286  0.00  0.00    +0.000 C 
ATOM      8  N   UNL     1       0.583  10.600  20.017  0.00  0.00    +0.000 N 
ATOM      9  C   UNL     1       0.895  11.830  20.634  0.00  0.00    +0.000 C 
ATOM     10  O   UNL     1       0.883  12.003  21.856  0.00  0.00    +0.000 OA
ENDROOT
BRANCH   4  11
ATOM     11  N   UNL     1       2.447   6.874  19.124  0.00  0.00    +0.000 N 
ATOM     12  C   UNL     1       3.497   6.863  18.219  0.00  0.00    +0.000 A 
ATOM     13  O   UNL     1       3.803   7.778  17.463  0.00  0.00    +0.000 OA
ATOM     14  O   UNL     1       4.188   5.648  18.261  0.00  0.00    +0.000 OA
ATOM     15  C   UNL     1       3.485   4.939  19.220  0.00  0.00    +0.000 A 
ATOM     16  C   UNL     1       3.746   3.638  19.593  0.00  0.00    +0.000 A 
ATOM     17  C   UNL     1       2.925   3.066  20.570  0.00  0.00    +0.000 A 
ATOM     18  C   UNL     1       1.879   3.807  21.149  0.00  0.00    +0.000 A 
ATOM     19  C   UNL     1       1.633   5.123  20.753  0.00  0.00    +0.000 A 
ATOM     20  C   UNL     1       2.445   5.658  19.773  0.00  0.00    +0.000 A 
ENDBRANCH   4  11
BRANCH   9  21
ATOM     21  C   UNL     1       1.289  13.030  19.838  0.00  0.00    +0.000 A 
ATOM     22  C   UNL     1       2.545  13.164  19.249  0.00  0.00    +0.000 A 
ATOM     23  C   UNL     1       2.919  14.348  18.627  0.00  0.00    +0.000 A 
ATOM     24 CL   UNL     1       4.575  14.519  18.148  0.00  0.00    +0.000 Cl
ATOM     25  C   UNL     1       2.007  15.397  18.443  0.00  0.00    +0.000 A 
ATOM     26  C   UNL     1       0.688  15.187  18.900  0.00  0.00    +0.000 A 
ATOM     27 CL   UNL     1      -0.535  16.378  18.618  0.00  0.00    +0.000 Cl
ATOM     28  C   UNL     1       0.341  14.039  19.624  0.00  0.00    +0.000 A 
BRANCH  25  29
ATOM     29  N   UNL     1       2.340  16.493  17.620  0.00  0.00    +0.000 N 
ATOM     30  H   UNL     1       2.202  17.394  18.070  0.00  0.00    +0.000 HD
ATOM     31  H   UNL     1       1.971  16.432  16.681  0.00  0.00    +0.000 HD
ENDBRANCH  25  29
ENDBRANCH   9  21
TORSDOF 3
ENDMDL
MODEL 4
REMARK VINA RESULT:      -7.5      4.410      9.158
REMARK  Name = 
REMARK  5 active torsions:
REMARK  status: ('A' for Active; 'I' for Inactive)
REMARK    1  A    between atoms: C_1  and  C_2
REMARK    2  A    between atoms: C_4  and  N_5
REMARK    3  A    between atoms: C_16  and  C_17
REMARK    4  A    between atoms: C_19  and  C_21
REMARK    5  A    between atoms: C_25  and  N_26
REMARK                            x       y       z     vdW  Elec       q    Type
REMARK                         _______ _______ _______ _____ _____    ______ ____
ROOT
ATOM      1  C   UNL     1       2.223  10.576  17.842  0.00  0.00    +0.000 C 
ATOM      2  C   UNL     1       1.307   9.372  18.111  0.00  0.00    +0.000 C 
ATOM      3  C   UNL     1      -0.143   9.615  17.702  0.00  0.00    +0.000 C 
ATOM      4  C   UNL     1      -0.844  10.566  18.661  0.00  0.00    +0.000 C 
ATOM      5  C   UNL     1      -0.695  10.115  20.120  0.00  0.00    +0.000 C 
ATOM      6  C   UNL     1       0.772   9.860  20.497  0.00  0.00    +0.000 C 
ATOM      7  C   UNL     1       0.833   9.520  21.990  0.00  0.00    +0.000 C 
ATOM      8  N   UNL     1       1.396   8.920  19.522  0.00  0.00    +0.000 N 
ATOM      9  C   UNL     1       1.859   7.646  19.914  0.00  0.00    +0.000 C 
ATOM     10  O   UNL     1       1.720   7.189  21.051  0.00  0.00    +0.000 OA
ENDROOT
BRANCH   4  11
ATOM     11  N   UNL     1      -2.224  10.799  18.288  0.00  0.00    +0.000 N 
ATOM     12  C   UNL     1      -2.817  10.316  17.133  0.00  0.00    +0.000 A 
ATOM     13  O   UNL     1      -2.297   9.561  16.320  0.00  0.00    +0.000 OA
ATOM     14  O   UNL     1      -4.118  10.809  16.990  0.00  0.00    +0.000 OA
ATOM     15  C   UNL     1      -4.255  11.617  18.104  0.00  0.00    +0.000 A 
ATOM     16  C   UNL     1      -5.364  12.383  18.396  0.00  0.00    +0.000 A 
ATOM     17  C   UNL     1      -5.329  13.156  19.561  0.00  0.00    +0.000 A 
ATOM     18  C   UNL     1      -4.200  13.137  20.400  0.00  0.00    +0.000 A 
ATOM     19  C   UNL     1      -3.089  12.354  20.082  0.00  0.00    +0.000 A 
ATOM     20  C   UNL     1      -3.140  11.614  18.917  0.00  0.00    +0.000 A 
ENDBRANCH   4  11
BRANCH   9  21
ATOM     21  C   UNL     1       2.547   6.732  18.954  0.00  0.00    +0.000 A 
ATOM     22  C   UNL     1       2.029   5.489  18.594  0.00  0.00    +0.000 A 
ATOM     23  C   UNL     1       2.760   4.614  17.800  0.00  0.00    +0.000 A 
ATOM     24 CL   UNL     1       2.156   3.002  17.611  0.00  0.00    +0.000 Cl
ATOM     25  C   UNL     1       3.976   4.998  17.218  0.00  0.00    +0.000 A 
ATOM     26  C   UNL     1       4.414   6.318  17.457  0.00  0.00    +0.000 A 
ATOM     27 CL   UNL     1       5.844   6.918  16.691  0.00  0.00    +0.000 Cl
ATOM     28  C   UNL     1       3.734   7.162  18.345  0.00  0.00    +0.000 A 
BRANCH  25  29
ATOM     29  N   UNL     1       4.587   4.180  16.245  0.00  0.00    +0.000 N 
ATOM     30  H   UNL     1       4.774   3.234  16.570  0.00  0.00    +0.000 HD
ATOM     31  H   UNL     1       5.361   4.618  15.763  0.00  0.00    +0.000 HD
ENDBRANCH  25  29
ENDBRANCH   9  21
TORSDOF 3
ENDMDL
MODEL 5
REMARK VINA RESULT:      -7.5      4.237      8.540
REMARK  Name = 
REMARK  5 active torsions:
REMARK  status: ('A' for Active; 'I' for Inactive)
REMARK    1  A    between atoms: C_1  and  C_2
REMARK    2  A    between atoms: C_4  and  N_5
REMARK    3  A    between atoms: C_16  and  C_17
REMARK    4  A    between atoms: C_19  and  C_21
REMARK    5  A    between atoms: C_25  and  N_26
REMARK                            x       y       z     vdW  Elec       q    Type
REMARK                         _______ _______ _______ _____ _____    ______ ____
ROOT
ATOM      1  C   UNL     1       1.784  10.546  17.826  0.00  0.00    +0.000 C 
ATOM      2  C   UNL     1       0.769   9.558  18.417  0.00  0.00    +0.000 C 
ATOM      3  C   UNL     1      -0.631   9.703  17.825  0.00  0.00    +0.000 C 
ATOM      4  C   UNL     1      -1.323  10.963  18.326  0.00  0.00    +0.000 C 
ATOM      5  C   UNL     1      -1.303  11.052  19.857  0.00  0.00    +0.000 C 
ATOM      6  C   UNL     1       0.113  10.882  20.426  0.00  0.00    +0.000 C 
ATOM      7  C   UNL     1       0.051  11.091  21.943  0.00  0.00    +0.000 C 
ATOM      8  N   UNL     1       0.732   9.631  19.900  0.00  0.00    +0.000 N 
ATOM      9  C   UNL     1       1.074   8.560  20.751  0.00  0.00    +0.000 C 
ATOM     10  O   UNL     1       0.827   8.542  21.960  0.00  0.00    +0.000 OA
ENDROOT
BRANCH   4  11
ATOM     11  N   UNL     1      -2.654  11.109  17.776  0.00  0.00    +0.000 N 
ATOM     12  C   UNL     1      -3.012  10.761  16.484  0.00  0.00    +0.000 A 
ATOM     13  O   UNL     1      -2.291  10.206  15.664  0.00  0.00    +0.000 OA
ATOM     14  O   UNL     1      -4.332  11.133  16.208  0.00  0.00    +0.000 OA
ATOM     15  C   UNL     1      -4.726  11.732  17.391  0.00  0.00    +0.000 A 
ATOM     16  C   UNL     1      -5.953  12.322  17.611  0.00  0.00    +0.000 A 
ATOM     17  C   UNL     1      -6.181  12.896  18.865  0.00  0.00    +0.000 A 
ATOM     18  C   UNL     1      -5.189  12.858  19.862  0.00  0.00    +0.000 A 
ATOM     19  C   UNL     1      -3.953  12.256  19.615  0.00  0.00    +0.000 A 
ATOM     20  C   UNL     1      -3.745  11.713  18.362  0.00  0.00    +0.000 A 
ENDBRANCH   4  11
BRANCH   9  21
ATOM     21  C   UNL     1       1.756   7.335  20.236  0.00  0.00    +0.000 A 
ATOM     22  C   UNL     1       2.721   7.376  19.232  0.00  0.00    +0.000 A 
ATOM     23  C   UNL     1       3.238   6.206  18.690  0.00  0.00    +0.000 A 
ATOM     24 CL   UNL     1       4.236   6.342  17.282  0.00  0.00    +0.000 Cl
ATOM     25  C   UNL     1       2.918   4.950  19.225  0.00  0.00    +0.000 A 
ATOM     26  C   UNL     1       2.065   4.929  20.349  0.00  0.00    +0.000 A 
ATOM     27 CL   UNL     1       1.704   3.437  21.146  0.00  0.00    +0.000 Cl
ATOM     28  C   UNL     1       1.458   6.099  20.825  0.00  0.00    +0.000 A 
BRANCH  25  29
ATOM     29  N   UNL     1       3.620   3.800  18.807  0.00  0.00    +0.000 N 
ATOM     30  H   UNL     1       4.230   3.414  19.525  0.00  0.00    +0.000 HD
ATOM     31  H   UNL     1       4.048   3.885  17.895  0.00  0.00    +0.000 HD
ENDBRANCH  25  29
ENDBRANCH   9  21
TORSDOF 3
ENDMDL
MODEL 6
REMARK VINA RESULT:      -7.5      4.376      8.977
REMARK  Name = 
REMARK  5 active torsions:
REMARK  status: ('A' for Active; 'I' for Inactive)
REMARK    1  A    between atoms: C_1  and  C_2
REMARK    2  A    between atoms: C_4  and  N_5
REMARK    3  A    between atoms: C_16  and  C_17
REMARK    4  A    between atoms: C_19  and  C_21
REMARK    5  A    between atoms: C_25  and  N_26
REMARK                            x       y       z     vdW  Elec       q    Type
REMARK                         _______ _______ _______ _____ _____    ______ ____
ROOT
ATOM      1  C   UNL     1       2.224  10.511  17.833  0.00  0.00    +0.000 C 
ATOM      2  C   UNL     1       1.291   9.334  18.153  0.00  0.00    +0.000 C 
ATOM      3  C   UNL     1      -0.155   9.579  17.731  0.00  0.00    +0.000 C 
ATOM      4  C   UNL     1      -0.844  10.582  18.645  0.00  0.00    +0.000 C 
ATOM      5  C   UNL     1      -0.704  10.196  20.122  0.00  0.00    +0.000 C 
ATOM      6  C   UNL     1       0.759   9.937  20.514  0.00  0.00    +0.000 C 
ATOM      7  C   UNL     1       0.813   9.664  22.021  0.00  0.00    +0.000 C 
ATOM      8  N   UNL     1       1.371   8.945  19.584  0.00  0.00    +0.000 N 
ATOM      9  C   UNL     1       1.815   7.684  20.034  0.00  0.00    +0.000 C 
ATOM     10  O   UNL     1       1.667   7.280  21.191  0.00  0.00    +0.000 OA
ENDROOT
BRANCH   4  11
ATOM     11  N   UNL     1      -2.219  10.818  18.259  0.00  0.00    +0.000 N 
ATOM     12  C   UNL     1      -2.798  10.349  17.091  0.00  0.00    +0.000 A 
ATOM     13  O   UNL     1      -2.267   9.605  16.274  0.00  0.00    +0.000 OA
ATOM     14  O   UNL     1      -4.098  10.842  16.938  0.00  0.00    +0.000 OA
ATOM     15  C   UNL     1      -4.250  11.635  18.061  0.00  0.00    +0.000 A 
ATOM     16  C   UNL     1      -5.363  12.396  18.350  0.00  0.00    +0.000 A 
ATOM     17  C   UNL     1      -5.343  13.154  19.524  0.00  0.00    +0.000 A 
ATOM     18  C   UNL     1      -4.224  13.126  20.376  0.00  0.00    +0.000 A 
ATOM     19  C   UNL     1      -3.107  12.349  20.062  0.00  0.00    +0.000 A 
ATOM     20  C   UNL     1      -3.144  11.624  18.887  0.00  0.00    +0.000 A 
ENDBRANCH   4  11
BRANCH   9  21
ATOM     21  C   UNL     1       2.491   6.717  19.119  0.00  0.00    +0.000 A 
ATOM     22  C   UNL     1       3.571   7.071  18.312  0.00  0.00    +0.000 A 
ATOM     23  C   UNL     1       4.089   6.181  17.381  0.00  0.00    +0.000 A 
ATOM     24 CL   UNL     1       5.256   6.783  16.252  0.00  0.00    +0.000 Cl
ATOM     25  C   UNL     1       3.644   4.853  17.313  0.00  0.00    +0.000 A 
ATOM     26  C   UNL     1       2.662   4.457  18.246  0.00  0.00    +0.000 A 
ATOM     27 CL   UNL     1       2.132   2.812  18.314  0.00  0.00    +0.000 Cl
ATOM     28  C   UNL     1       2.062   5.383  19.110  0.00  0.00    +0.000 A 
BRANCH  25  29
ATOM     29  N   UNL     1       4.332   3.912  16.518  0.00  0.00    +0.000 N 
ATOM     30  H   UNL     1       4.642   3.093  17.037  0.00  0.00    +0.000 HD
ATOM     31  H   UNL     1       5.034   4.316  15.914  0.00  0.00    +0.000 HD
ENDBRANCH  25  29
ENDBRANCH   9  21
TORSDOF 3
ENDMDL
MODEL 7
REMARK VINA RESULT:      -7.4      4.240      8.686
REMARK  Name = 
REMARK  5 active torsions:
REMARK  status: ('A' for Active; 'I' for Inactive)
REMARK    1  A    between atoms: C_1  and  C_2
REMARK    2  A    between atoms: C_4  and  N_5
REMARK    3  A    between atoms: C_16  and  C_17
REMARK    4  A    between atoms: C_19  and  C_21
REMARK    5  A    between atoms: C_25  and  N_26
REMARK                            x       y       z     vdW  Elec       q    Type
REMARK                         _______ _______ _______ _____ _____    ______ ____
ROOT
ATOM      1  C   UNL     1       1.791  10.457  17.824  0.00  0.00    +0.000 C 
ATOM      2  C   UNL     1       0.763   9.493  18.436  0.00  0.00    +0.000 C 
ATOM      3  C   UNL     1      -0.635   9.648  17.845  0.00  0.00    +0.000 C 
ATOM      4  C   UNL     1      -1.309  10.925  18.325  0.00  0.00    +0.000 C 
ATOM      5  C   UNL     1      -1.284  11.042  19.854  0.00  0.00    +0.000 C 
ATOM      6  C   UNL     1       0.132  10.863  20.422  0.00  0.00    +0.000 C 
ATOM      7  C   UNL     1       0.077  11.100  21.935  0.00  0.00    +0.000 C 
ATOM      8  N   UNL     1       0.732   9.594  19.917  0.00  0.00    +0.000 N 
ATOM      9  C   UNL     1       1.062   8.534  20.787  0.00  0.00    +0.000 C 
ATOM     10  O   UNL     1       0.818   8.541  21.997  0.00  0.00    +0.000 OA
ENDROOT
BRANCH   4  11
ATOM     11  N   UNL     1      -2.640  11.080  17.776  0.00  0.00    +0.000 N 
ATOM     12  C   UNL     1      -3.004  10.724  16.488  0.00  0.00    +0.000 A 
ATOM     13  O   UNL     1      -2.290  10.154  15.671  0.00  0.00    +0.000 OA
ATOM     14  O   UNL     1      -4.320  11.107  16.211  0.00  0.00    +0.000 OA
ATOM     15  C   UNL     1      -4.706  11.720  17.389  0.00  0.00    +0.000 A 
ATOM     16  C   UNL     1      -5.927  12.324  17.606  0.00  0.00    +0.000 A 
ATOM     17  C   UNL     1      -6.147  12.911  18.856  0.00  0.00    +0.000 A 
ATOM     18  C   UNL     1      -5.153  12.872  19.850  0.00  0.00    +0.000 A 
ATOM     19  C   UNL     1      -3.924  12.256  19.607  0.00  0.00    +0.000 A 
ATOM     20  C   UNL     1      -3.724  11.700  18.358  0.00  0.00    +0.000 A 
ENDBRANCH   4  11
BRANCH   9  21
ATOM     21  C   UNL     1       1.725   7.291  20.292  0.00  0.00    +0.000 A 
ATOM     22  C   UNL     1       1.458   6.031  20.824  0.00  0.00    +0.000 A 
ATOM     23  C   UNL     1       2.189   4.919  20.427  0.00  0.00    +0.000 A 
ATOM     24 CL   UNL     1       1.967   3.449  21.316  0.00  0.00    +0.000 Cl
ATOM     25  C   UNL     1       3.120   4.991  19.381  0.00  0.00    +0.000 A 
ATOM     26  C   UNL     1       3.266   6.239  18.738  0.00  0.00    +0.000 A 
ATOM     27 CL   UNL     1       4.306   6.399  17.365  0.00  0.00    +0.000 Cl
ATOM     28  C   UNL     1       2.611   7.383  19.210  0.00  0.00    +0.000 A 
BRANCH  25  29
ATOM     29  N   UNL     1       3.684   3.813  18.849  0.00  0.00    +0.000 N 
ATOM     30  H   UNL     1       4.630   3.941  18.494  0.00  0.00    +0.000 HD
ATOM     31  H   UNL     1       3.070   3.303  18.229  0.00  0.00    +0.000 HD
ENDBRANCH  25  29
ENDBRANCH   9  21
TORSDOF 3
ENDMDL
MODEL 8
REMARK VINA RESULT:      -7.4      2.536      3.485
REMARK  Name = 
REMARK  5 active torsions:
REMARK  status: ('A' for Active; 'I' for Inactive)
REMARK    1  A    between atoms: C_1  and  C_2
REMARK    2  A    between atoms: C_4  and  N_5
REMARK    3  A    between atoms: C_16  and  C_17
REMARK    4  A    between atoms: C_19  and  C_21
REMARK    5  A    between atoms: C_25  and  N_26
REMARK                            x       y       z     vdW  Elec       q    Type
REMARK                         _______ _______ _______ _____ _____    ______ ____
ROOT
ATOM      1  C   UNL     1      -0.800  10.469  22.813  0.00  0.00    +0.000 C 
ATOM      2  C   UNL     1      -1.119  10.791  21.346  0.00  0.00    +0.000 C 
ATOM      3  C   UNL     1      -0.463   9.828  20.361  0.00  0.00    +0.000 C 
ATOM      4  C   UNL     1       1.036  10.071  20.254  0.00  0.00    +0.000 C 
ATOM      5  C   UNL     1       1.356  11.542  19.965  0.00  0.00    +0.000 C 
ATOM      6  C   UNL     1       0.666  12.489  20.959  0.00  0.00    +0.000 C 
ATOM      7  C   UNL     1       1.125  13.920  20.659  0.00  0.00    +0.000 C 
ATOM      8  N   UNL     1      -0.796  12.201  21.012  0.00  0.00    +0.000 N 
ATOM      9  C   UNL     1      -1.754  13.153  20.601  0.00  0.00    +0.000 C 
ATOM     10  O   UNL     1      -1.462  14.245  20.107  0.00  0.00    +0.000 OA
ENDROOT
BRANCH   4  11
ATOM     11  N   UNL     1       1.670   9.168  19.317  0.00  0.00    +0.000 N 
ATOM     12  C   UNL     1       2.025   9.505  18.021  0.00  0.00    +0.000 A 
ATOM     13  O   UNL     1       1.937  10.618  17.518  0.00  0.00    +0.000 OA
ATOM     14  O   UNL     1       2.504   8.391  17.323  0.00  0.00    +0.000 OA
ATOM     15  C   UNL     1       2.398   7.382  18.263  0.00  0.00    +0.000 A 
ATOM     16  C   UNL     1       2.701   6.055  18.040  0.00  0.00    +0.000 A 
ATOM     17  C   UNL     1       2.521   5.162  19.101  0.00  0.00    +0.000 A 
ATOM     18  C   UNL     1       2.055   5.615  20.348  0.00  0.00    +0.000 A 
ATOM     19  C   UNL     1       1.752   6.964  20.549  0.00  0.00    +0.000 A 
ATOM     20  C   UNL     1       1.920   7.823  19.481  0.00  0.00    +0.000 A 
ENDBRANCH   4  11
BRANCH   9  21
ATOM     21  C   UNL     1      -3.219  12.893  20.718  0.00  0.00    +0.000 A 
ATOM     22  C   UNL     1      -3.940  13.150  21.883  0.00  0.00    +0.000 A 
ATOM     23  C   UNL     1      -5.273  12.775  21.995  0.00  0.00    +0.000 A 
ATOM     24 CL   UNL     1      -6.017  12.902  23.554  0.00  0.00    +0.000 Cl
ATOM     25  C   UNL     1      -5.980  12.255  20.902  0.00  0.00    +0.000 A 
ATOM     26  C   UNL     1      -5.284  12.149  19.679  0.00  0.00    +0.000 A 
ATOM     27 CL   UNL     1      -6.104  11.625  18.248  0.00  0.00    +0.000 Cl
ATOM     28  C   UNL     1      -3.913  12.424  19.595  0.00  0.00    +0.000 A 
BRANCH  25  29
ATOM     29  N   UNL     1      -7.380  12.090  20.975  0.00  0.00    +0.000 N 
ATOM     30  H   UNL     1      -7.899  12.812  20.481  0.00  0.00    +0.000 HD
ATOM     31  H   UNL     1      -7.724  11.886  21.903  0.00  0.00    +0.000 HD
ENDBRANCH  25  29
ENDBRANCH   9  21
TORSDOF 3
ENDMDL
MODEL 9
REMARK VINA RESULT:      -7.4      3.807      5.395
REMARK  Name = 
REMARK  5 active torsions:
REMARK  status: ('A' for Active; 'I' for Inactive)
REMARK    1  A    between atoms: C_1  and  C_2
REMARK    2  A    between atoms: C_4  and  N_5
REMARK    3  A    between atoms: C_16  and  C_17
REMARK    4  A    between atoms: C_19  and  C_21
REMARK    5  A    between atoms: C_25  and  N_26
REMARK                            x       y       z     vdW  Elec       q    Type
REMARK                         _______ _______ _______ _____ _____    ______ ____
ROOT
ATOM      1  C   UNL     1      -0.489   9.891  17.733  0.00  0.00    +0.000 C 
ATOM      2  C   UNL     1       0.913  10.149  18.305  0.00  0.00    +0.000 C 
ATOM      3  C   UNL     1       1.946   9.117  17.859  0.00  0.00    +0.000 C 
ATOM      4  C   UNL     1       1.734   7.778  18.552  0.00  0.00    +0.000 C 
ATOM      5  C   UNL     1       1.653   7.931  20.075  0.00  0.00    +0.000 C 
ATOM      6  C   UNL     1       0.621   8.990  20.494  0.00  0.00    +0.000 C 
ATOM      7  C   UNL     1       0.533   8.998  22.024  0.00  0.00    +0.000 C 
ATOM      8  N   UNL     1       0.886  10.274  19.784  0.00  0.00    +0.000 N 
ATOM      9  C   UNL     1       1.252  11.444  20.483  0.00  0.00    +0.000 C 
ATOM     10  O   UNL     1       1.451  11.479  21.700  0.00  0.00    +0.000 OA
ENDROOT
BRANCH   4  11
ATOM     11  N   UNL     1       2.712   6.791  18.143  0.00  0.00    +0.000 N 
ATOM     12  C   UNL     1       3.964   7.093  17.630  0.00  0.00    +0.000 A 
ATOM     13  O   UNL     1       4.450   8.213  17.534  0.00  0.00    +0.000 OA
ATOM     14  O   UNL     1       4.630   5.936  17.212  0.00  0.00    +0.000 OA
ATOM     15  C   UNL     1       3.705   4.944  17.488  0.00  0.00    +0.000 A 
ATOM     16  C   UNL     1       3.871   3.605  17.203  0.00  0.00    +0.000 A 
ATOM     17  C   UNL     1       2.826   2.737  17.535  0.00  0.00    +0.000 A 
ATOM     18  C   UNL     1       1.657   3.225  18.146  0.00  0.00    +0.000 A 
ATOM     19  C   UNL     1       1.512   4.586  18.424  0.00  0.00    +0.000 A 
ATOM     20  C   UNL     1       2.550   5.425  18.068  0.00  0.00    +0.000 A 
ENDBRANCH   4  11
BRANCH   9  21
ATOM     21  C   UNL     1       1.451  12.747  19.782  0.00  0.00    +0.000 A 
ATOM     22  C   UNL     1       2.613  13.054  19.077  0.00  0.00    +0.000 A 
ATOM     23  C   UNL     1       2.813  14.323  18.548  0.00  0.00    +0.000 A 
ATOM     24 CL   UNL     1       4.381  14.694  17.912  0.00  0.00    +0.000 Cl
ATOM     25  C   UNL     1       1.803  15.295  18.578  0.00  0.00    +0.000 A 
ATOM     26  C   UNL     1       0.569  14.920  19.151  0.00  0.00    +0.000 A 
ATOM     27 CL   UNL     1      -0.772  16.013  19.133  0.00  0.00    +0.000 Cl
ATOM     28  C   UNL     1       0.405  13.680  19.781  0.00  0.00    +0.000 A 
BRANCH  25  29
ATOM     29  N   UNL     1       1.946  16.492  17.845  0.00  0.00    +0.000 N 
ATOM     30  H   UNL     1       2.765  17.034  18.111  0.00  0.00    +0.000 HD
ATOM     31  H   UNL     1       1.095  17.031  17.764  0.00  0.00    +0.000 HD
ENDBRANCH  25  29
ENDBRANCH   9  21
TORSDOF 3
ENDMDL
