MODEL 1
REMARK VINA RESULT:      -6.9      0.000      0.000
REMARK  Name = 
REMARK  11 active torsions:
REMARK  status: ('A' for Active; 'I' for Inactive)
REMARK    1  A    between atoms: C_1  and  C_2
REMARK    2  A    between atoms: C_2  and  O_3
REMARK    3  A    between atoms: O_3  and  C_4
REMARK    4  A    between atoms: C_4  and  C_6
REMARK    5  A    between atoms: C_6  and  N_7
REMARK    6  A    between atoms: N_7  and  C_8
REMARK    7  A    between atoms: N_7  and  C_14
REMARK    8  A    between atoms: C_17  and  C_18
REMARK    9  A    between atoms: C_24  and  C_25
REMARK   10  A    between atoms: C_24  and  C_26
REMARK   11  A    between atoms: C_27  and  O_28
REMARK                            x       y       z     vdW  Elec       q    Type
REMARK                         _______ _______ _______ _____ _____    ______ ____
ROOT
ATOM      1  C   UNL     1       5.165   4.895  17.238  0.00  0.00    +0.000 C 
ATOM      2  C   UNL     1       5.696   4.953  15.817  0.00  0.00    +0.000 A 
ATOM      3  C   UNL     1       5.061   4.275  14.760  0.00  0.00    +0.000 A 
ATOM      4  C   UNL     1       5.669   4.155  13.501  0.00  0.00    +0.000 A 
ATOM      5  C   UNL     1       6.917   4.740  13.278  0.00  0.00    +0.000 A 
ATOM      6  C   UNL     1       7.538   5.451  14.301  0.00  0.00    +0.000 A 
ATOM      7  C   UNL     1       6.943   5.538  15.563  0.00  0.00    +0.000 A 
ATOM      8  O   UNL     1       7.690   6.193  16.505  0.00  0.00    +0.000 OA
ATOM      9  C   UNL     1       7.452   5.816  17.872  0.00  0.00    +0.000 C 
ATOM     10  C   UNL     1       8.157   6.880  18.732  0.00  0.00    +0.000 C 
ATOM     11  C   UNL     1       8.134   4.464  18.144  0.00  0.00    +0.000 C 
ATOM     12  C   UNL     1       5.942   5.846  18.189  0.00  0.00    +0.000 C 
ENDROOT
BRANCH   4  13
ATOM     13  C   UNL     1       5.039   3.395  12.459  0.00  0.00    +0.000 C 
ATOM     14  N   UNL     1       4.532   2.768  11.626  0.00  0.00    +0.000 NA
ENDBRANCH   4  13
BRANCH  12  15
ATOM     15  O   UNL     1       5.693   5.540  19.570  0.00  0.00    +0.000 OA
ATOM     16  H   UNL     1       5.632   4.572  19.665  0.00  0.00    +0.000 HD
ENDBRANCH  12  15
BRANCH   1  17
ATOM     17  N   UNL     1       3.678   4.996  17.354  0.00  0.00    +0.000 N 
BRANCH  17  18
ATOM     18  C   UNL     1       2.927   3.946  17.907  0.00  0.00    +0.000 A 
ATOM     19  C   UNL     1       1.520   3.968  17.977  0.00  0.00    +0.000 A 
ATOM     20  C   UNL     1       0.776   2.929  18.559  0.00  0.00    +0.000 A 
ATOM     21  C   UNL     1       1.414   1.811  19.080  0.00  0.00    +0.000 A 
ATOM     22  C   UNL     1       2.792   1.730  19.000  0.00  0.00    +0.000 A 
ATOM     23  C   UNL     1       3.526   2.774  18.418  0.00  0.00    +0.000 A 
ENDBRANCH  17  18
BRANCH  17  24
ATOM     24  C   UNL     1       3.037   6.328  17.144  0.00  0.00    +0.000 C 
BRANCH  24  25
ATOM     25  C   UNL     1       2.889   7.172  18.401  0.00  0.00    +0.000 C 
ATOM     26  O   UNL     1       2.846   6.693  19.530  0.00  0.00    +0.000 OA
BRANCH  25  27
ATOM     27  O   UNL     1       2.870   8.504  18.123  0.00  0.00    +0.000 OA
BRANCH  27  29
ATOM     28  C   UNL     1       1.015   9.710  19.025  0.00  0.00    +0.000 C 
ATOM     29  C   UNL     1       1.585   9.038  17.788  0.00  0.00    +0.000 C 
ENDBRANCH  27  29
ENDBRANCH  25  27
ENDBRANCH  24  25
ENDBRANCH  17  24
ENDBRANCH   1  17
TORSDOF 8
ENDMDL
MODEL 2
REMARK VINA RESULT:      -6.8      0.862      1.468
REMARK  Name = 
REMARK  11 active torsions:
REMARK  status: ('A' for Active; 'I' for Inactive)
REMARK    1  A    between atoms: C_1  and  C_2
REMARK    2  A    between atoms: C_2  and  O_3
REMARK    3  A    between atoms: O_3  and  C_4
REMARK    4  A    between atoms: C_4  and  C_6
REMARK    5  A    between atoms: C_6  and  N_7
REMARK    6  A    between atoms: N_7  and  C_8
REMARK    7  A    between atoms: N_7  and  C_14
REMARK    8  A    between atoms: C_17  and  C_18
REMARK    9  A    between atoms: C_24  and  C_25
REMARK   10  A    between atoms: C_24  and  C_26
REMARK   11  A    between atoms: C_27  and  O_28
REMARK                            x       y       z     vdW  Elec       q    Type
REMARK                         _______ _______ _______ _____ _____    ______ ____
ROOT
ATOM      1  C   UNL     1       5.194   4.948  17.252  0.00  0.00    +0.000 C 
ATOM      2  C   UNL     1       5.716   4.988  15.828  0.00  0.00    +0.000 A 
ATOM      3  C   UNL     1       5.063   4.313  14.779  0.00  0.00    +0.000 A 
ATOM      4  C   UNL     1       5.661   4.174  13.517  0.00  0.00    +0.000 A 
ATOM      5  C   UNL     1       6.917   4.738  13.282  0.00  0.00    +0.000 A 
ATOM      6  C   UNL     1       7.556   5.445  14.296  0.00  0.00    +0.000 A 
ATOM      7  C   UNL     1       6.971   5.551  15.562  0.00  0.00    +0.000 A 
ATOM      8  O   UNL     1       7.734   6.201  16.494  0.00  0.00    +0.000 OA
ATOM      9  C   UNL     1       7.500   5.837  17.865  0.00  0.00    +0.000 C 
ATOM     10  C   UNL     1       8.226   6.895  18.713  0.00  0.00    +0.000 C 
ATOM     11  C   UNL     1       8.161   4.476  18.142  0.00  0.00    +0.000 C 
ATOM     12  C   UNL     1       5.992   5.894  18.191  0.00  0.00    +0.000 C 
ENDROOT
BRANCH   4  13
ATOM     13  C   UNL     1       5.012   3.417  12.485  0.00  0.00    +0.000 C 
ATOM     14  N   UNL     1       4.501   2.807  11.643  0.00  0.00    +0.000 NA
ENDBRANCH   4  13
BRANCH  12  15
ATOM     15  O   UNL     1       5.747   5.600  19.576  0.00  0.00    +0.000 OA
ATOM     16  H   UNL     1       6.098   4.713  19.770  0.00  0.00    +0.000 HD
ENDBRANCH  12  15
BRANCH   1  17
ATOM     17  N   UNL     1       3.709   5.074  17.377  0.00  0.00    +0.000 N 
BRANCH  17  18
ATOM     18  C   UNL     1       2.932   3.996  17.833  0.00  0.00    +0.000 A 
ATOM     19  C   UNL     1       1.525   3.984  17.759  0.00  0.00    +0.000 A 
ATOM     20  C   UNL     1       0.752   2.918  18.244  0.00  0.00    +0.000 A 
ATOM     21  C   UNL     1       1.361   1.805  18.808  0.00  0.00    +0.000 A 
ATOM     22  C   UNL     1       2.742   1.757  18.868  0.00  0.00    +0.000 A 
ATOM     23  C   UNL     1       3.505   2.829  18.382  0.00  0.00    +0.000 A 
ENDBRANCH  17  18
BRANCH  17  24
ATOM     24  C   UNL     1       3.101   6.435  17.289  0.00  0.00    +0.000 C 
BRANCH  24  25
ATOM     25  C   UNL     1       2.663   7.027  18.619  0.00  0.00    +0.000 C 
ATOM     26  O   UNL     1       2.033   8.076  18.713  0.00  0.00    +0.000 OA
BRANCH  25  27
ATOM     27  O   UNL     1       3.000   6.230  19.669  0.00  0.00    +0.000 OA
BRANCH  27  29
ATOM     28  C   UNL     1       2.151   4.668  21.264  0.00  0.00    +0.000 C 
ATOM     29  C   UNL     1       1.973   6.044  20.648  0.00  0.00    +0.000 C 
ENDBRANCH  27  29
ENDBRANCH  25  27
ENDBRANCH  24  25
ENDBRANCH  17  24
ENDBRANCH   1  17
TORSDOF 8
ENDMDL
MODEL 3
REMARK VINA RESULT:      -6.8      1.454      3.460
REMARK  Name = 
REMARK  11 active torsions:
REMARK  status: ('A' for Active; 'I' for Inactive)
REMARK    1  A    between atoms: C_1  and  C_2
REMARK    2  A    between atoms: C_2  and  O_3
REMARK    3  A    between atoms: O_3  and  C_4
REMARK    4  A    between atoms: C_4  and  C_6
REMARK    5  A    between atoms: C_6  and  N_7
REMARK    6  A    between atoms: N_7  and  C_8
REMARK    7  A    between atoms: N_7  and  C_14
REMARK    8  A    between atoms: C_17  and  C_18
REMARK    9  A    between atoms: C_24  and  C_25
REMARK   10  A    between atoms: C_24  and  C_26
REMARK   11  A    between atoms: C_27  and  O_28
REMARK                            x       y       z     vdW  Elec       q    Type
REMARK                         _______ _______ _______ _____ _____    ______ ____
ROOT
ATOM      1  C   UNL     1       5.205   4.806  17.375  0.00  0.00    +0.000 C 
ATOM      2  C   UNL     1       5.685   4.913  15.940  0.00  0.00    +0.000 A 
ATOM      3  C   UNL     1       5.015   4.266  14.883  0.00  0.00    +0.000 A 
ATOM      4  C   UNL     1       5.579   4.191  13.600  0.00  0.00    +0.000 A 
ATOM      5  C   UNL     1       6.815   4.791  13.352  0.00  0.00    +0.000 A 
ATOM      6  C   UNL     1       7.468   5.473  14.376  0.00  0.00    +0.000 A 
ATOM      7  C   UNL     1       6.918   5.515  15.660  0.00  0.00    +0.000 A 
ATOM      8  O   UNL     1       7.694   6.145  16.595  0.00  0.00    +0.000 OA
ATOM      9  C   UNL     1       7.508   5.722  17.958  0.00  0.00    +0.000 C 
ATOM     10  C   UNL     1       8.236   6.762  18.826  0.00  0.00    +0.000 C 
ATOM     11  C   UNL     1       8.207   4.367  18.160  0.00  0.00    +0.000 C 
ATOM     12  C   UNL     1       6.010   5.731  18.328  0.00  0.00    +0.000 C 
ENDROOT
BRANCH   4  13
ATOM     13  C   UNL     1       4.916   3.460  12.558  0.00  0.00    +0.000 C 
ATOM     14  N   UNL     1       4.377   2.884  11.709  0.00  0.00    +0.000 NA
ENDBRANCH   4  13
BRANCH  12  15
ATOM     15  O   UNL     1       5.812   5.378  19.707  0.00  0.00    +0.000 OA
ATOM     16  H   UNL     1       4.908   5.032  19.810  0.00  0.00    +0.000 HD
ENDBRANCH  12  15
BRANCH   1  17
ATOM     17  N   UNL     1       3.722   4.893  17.547  0.00  0.00    +0.000 N 
BRANCH  17  18
ATOM     18  C   UNL     1       3.121   6.072  18.022  0.00  0.00    +0.000 A 
ATOM     19  C   UNL     1       2.546   6.172  19.304  0.00  0.00    +0.000 A 
ATOM     20  C   UNL     1       1.920   7.343  19.761  0.00  0.00    +0.000 A 
ATOM     21  C   UNL     1       1.862   8.472  18.956  0.00  0.00    +0.000 A 
ATOM     22  C   UNL     1       2.446   8.431  17.703  0.00  0.00    +0.000 A 
ATOM     23  C   UNL     1       3.068   7.255  17.255  0.00  0.00    +0.000 A 
ENDBRANCH  17  18
BRANCH  17  24
ATOM     24  C   UNL     1       2.872   3.826  16.942  0.00  0.00    +0.000 C 
BRANCH  24  25
ATOM     25  C   UNL     1       2.768   2.549  17.761  0.00  0.00    +0.000 C 
ATOM     26  O   UNL     1       3.671   1.722  17.835  0.00  0.00    +0.000 OA
BRANCH  25  27
ATOM     27  O   UNL     1       1.589   2.471  18.438  0.00  0.00    +0.000 OA
BRANCH  27  29
ATOM     28  C   UNL     1       0.971   3.370  20.563  0.00  0.00    +0.000 C 
ATOM     29  C   UNL     1       1.709   2.253  19.847  0.00  0.00    +0.000 C 
ENDBRANCH  27  29
ENDBRANCH  25  27
ENDBRANCH  24  25
ENDBRANCH  17  24
ENDBRANCH   1  17
TORSDOF 8
ENDMDL
MODEL 4
REMARK VINA RESULT:      -6.6      1.447      3.549
REMARK  Name = 
REMARK  11 active torsions:
REMARK  status: ('A' for Active; 'I' for Inactive)
REMARK    1  A    between atoms: C_1  and  C_2
REMARK    2  A    between atoms: C_2  and  O_3
REMARK    3  A    between atoms: O_3  and  C_4
REMARK    4  A    between atoms: C_4  and  C_6
REMARK    5  A    between atoms: C_6  and  N_7
REMARK    6  A    between atoms: N_7  and  C_8
REMARK    7  A    between atoms: N_7  and  C_14
REMARK    8  A    between atoms: C_17  and  C_18
REMARK    9  A    between atoms: C_24  and  C_25
REMARK   10  A    between atoms: C_24  and  C_26
REMARK   11  A    between atoms: C_27  and  O_28
REMARK                            x       y       z     vdW  Elec       q    Type
REMARK                         _______ _______ _______ _____ _____    ______ ____
ROOT
ATOM      1  C   UNL     1       5.219   4.801  17.381  0.00  0.00    +0.000 C 
ATOM      2  C   UNL     1       5.700   4.911  15.946  0.00  0.00    +0.000 A 
ATOM      3  C   UNL     1       5.036   4.259  14.889  0.00  0.00    +0.000 A 
ATOM      4  C   UNL     1       5.601   4.187  13.607  0.00  0.00    +0.000 A 
ATOM      5  C   UNL     1       6.833   4.796  13.360  0.00  0.00    +0.000 A 
ATOM      6  C   UNL     1       7.481   5.482  14.384  0.00  0.00    +0.000 A 
ATOM      7  C   UNL     1       6.930   5.521  15.668  0.00  0.00    +0.000 A 
ATOM      8  O   UNL     1       7.700   6.156  16.604  0.00  0.00    +0.000 OA
ATOM      9  C   UNL     1       7.516   5.732  17.966  0.00  0.00    +0.000 C 
ATOM     10  C   UNL     1       8.237   6.777  18.835  0.00  0.00    +0.000 C 
ATOM     11  C   UNL     1       8.223   4.381  18.169  0.00  0.00    +0.000 C 
ATOM     12  C   UNL     1       6.017   5.732  18.335  0.00  0.00    +0.000 C 
ENDROOT
BRANCH   4  13
ATOM     13  C   UNL     1       4.944   3.453  12.564  0.00  0.00    +0.000 C 
ATOM     14  N   UNL     1       4.421   2.868  11.711  0.00  0.00    +0.000 NA
ENDBRANCH   4  13
BRANCH  12  15
ATOM     15  O   UNL     1       5.821   5.377  19.713  0.00  0.00    +0.000 OA
ATOM     16  H   UNL     1       6.661   5.506  20.188  0.00  0.00    +0.000 HD
ENDBRANCH  12  15
BRANCH   1  17
ATOM     17  N   UNL     1       3.736   4.879  17.552  0.00  0.00    +0.000 N 
BRANCH  17  18
ATOM     18  C   UNL     1       3.129   6.048  18.042  0.00  0.00    +0.000 A 
ATOM     19  C   UNL     1       2.567   6.133  19.330  0.00  0.00    +0.000 A 
ATOM     20  C   UNL     1       1.934   7.294  19.803  0.00  0.00    +0.000 A 
ATOM     21  C   UNL     1       1.855   8.428  19.007  0.00  0.00    +0.000 A 
ATOM     22  C   UNL     1       2.426   8.402  17.748  0.00  0.00    +0.000 A 
ATOM     23  C   UNL     1       3.055   7.236  17.284  0.00  0.00    +0.000 A 
ENDBRANCH  17  18
BRANCH  17  24
ATOM     24  C   UNL     1       2.892   3.816  16.930  0.00  0.00    +0.000 C 
BRANCH  24  25
ATOM     25  C   UNL     1       2.062   3.003  17.910  0.00  0.00    +0.000 C 
ATOM     26  O   UNL     1       0.846   3.126  18.025  0.00  0.00    +0.000 OA
BRANCH  25  27
ATOM     27  O   UNL     1       2.816   2.096  18.589  0.00  0.00    +0.000 OA
BRANCH  27  29
ATOM     28  C   UNL     1       4.562   2.163  20.219  0.00  0.00    +0.000 C 
ATOM     29  C   UNL     1       3.091   2.432  19.953  0.00  0.00    +0.000 C 
ENDBRANCH  27  29
ENDBRANCH  25  27
ENDBRANCH  24  25
ENDBRANCH  17  24
ENDBRANCH   1  17
TORSDOF 8
ENDMDL
MODEL 5
REMARK VINA RESULT:      -6.3      7.890     11.113
REMARK  Name = 
REMARK  11 active torsions:
REMARK  status: ('A' for Active; 'I' for Inactive)
REMARK    1  A    between atoms: C_1  and  C_2
REMARK    2  A    between atoms: C_2  and  O_3
REMARK    3  A    between atoms: O_3  and  C_4
REMARK    4  A    between atoms: C_4  and  C_6
REMARK    5  A    between atoms: C_6  and  N_7
REMARK    6  A    between atoms: N_7  and  C_8
REMARK    7  A    between atoms: N_7  and  C_14
REMARK    8  A    between atoms: C_17  and  C_18
REMARK    9  A    between atoms: C_24  and  C_25
REMARK   10  A    between atoms: C_24  and  C_26
REMARK   11  A    between atoms: C_27  and  O_28
REMARK                            x       y       z     vdW  Elec       q    Type
REMARK                         _______ _______ _______ _____ _____    ______ ____
ROOT
ATOM      1  C   UNL     1      -1.249  12.587  19.646  0.00  0.00    +0.000 C 
ATOM      2  C   UNL     1      -1.357  12.888  21.129  0.00  0.00    +0.000 A 
ATOM      3  C   UNL     1      -2.439  12.426  21.903  0.00  0.00    +0.000 A 
ATOM      4  C   UNL     1      -2.645  12.882  23.214  0.00  0.00    +0.000 A 
ATOM      5  C   UNL     1      -1.748  13.792  23.778  0.00  0.00    +0.000 A 
ATOM      6  C   UNL     1      -0.650  14.224  23.040  0.00  0.00    +0.000 A 
ATOM      7  C   UNL     1      -0.468  13.792  21.723  0.00  0.00    +0.000 A 
ATOM      8  O   UNL     1       0.603  14.351  21.079  0.00  0.00    +0.000 OA
ATOM      9  C   UNL     1       0.505  14.433  19.646  0.00  0.00    +0.000 C 
ATOM     10  C   UNL     1       1.915  14.793  19.146  0.00  0.00    +0.000 C 
ATOM     11  C   UNL     1      -0.437  15.590  19.274  0.00  0.00    +0.000 C 
ATOM     12  C   UNL     1       0.104  13.066  19.052  0.00  0.00    +0.000 C 
ENDROOT
BRANCH   4  13
ATOM     13  C   UNL     1      -3.796  12.457  23.958  0.00  0.00    +0.000 C 
ATOM     14  N   UNL     1      -4.735  12.119  24.548  0.00  0.00    +0.000 NA
ENDBRANCH   4  13
BRANCH  12  15
ATOM     15  O   UNL     1       0.070  13.112  17.616  0.00  0.00    +0.000 OA
ATOM     16  H   UNL     1       0.747  12.504  17.271  0.00  0.00    +0.000 HD
ENDBRANCH  12  15
BRANCH   1  17
ATOM     17  N   UNL     1      -1.625  11.191  19.262  0.00  0.00    +0.000 N 
BRANCH  17  18
ATOM     18  C   UNL     1      -2.335  10.939  18.076  0.00  0.00    +0.000 A 
ATOM     19  C   UNL     1      -1.874  10.049  17.085  0.00  0.00    +0.000 A 
ATOM     20  C   UNL     1      -2.573   9.824  15.888  0.00  0.00    +0.000 A 
ATOM     21  C   UNL     1      -3.777  10.468  15.642  0.00  0.00    +0.000 A 
ATOM     22  C   UNL     1      -4.286  11.323  16.603  0.00  0.00    +0.000 A 
ATOM     23  C   UNL     1      -3.579  11.543  17.795  0.00  0.00    +0.000 A 
ENDBRANCH  17  18
BRANCH  17  24
ATOM     24  C   UNL     1      -0.992  10.057  19.996  0.00  0.00    +0.000 C 
BRANCH  24  25
ATOM     25  C   UNL     1       0.529  10.048  19.974  0.00  0.00    +0.000 C 
ATOM     26  O   UNL     1       1.185   9.872  18.952  0.00  0.00    +0.000 OA
BRANCH  25  27
ATOM     27  O   UNL     1       1.059  10.315  21.198  0.00  0.00    +0.000 OA
BRANCH  27  29
ATOM     28  C   UNL     1       0.019   9.588  23.222  0.00  0.00    +0.000 C 
ATOM     29  C   UNL     1       1.014   9.231  22.132  0.00  0.00    +0.000 C 
ENDBRANCH  27  29
ENDBRANCH  25  27
ENDBRANCH  24  25
ENDBRANCH  17  24
ENDBRANCH   1  17
TORSDOF 8
ENDMDL
MODEL 6
REMARK VINA RESULT:      -6.2      8.267     12.307
REMARK  Name = 
REMARK  11 active torsions:
REMARK  status: ('A' for Active; 'I' for Inactive)
REMARK    1  A    between atoms: C_1  and  C_2
REMARK    2  A    between atoms: C_2  and  O_3
REMARK    3  A    between atoms: O_3  and  C_4
REMARK    4  A    between atoms: C_4  and  C_6
REMARK    5  A    between atoms: C_6  and  N_7
REMARK    6  A    between atoms: N_7  and  C_8
REMARK    7  A    between atoms: N_7  and  C_14
REMARK    8  A    between atoms: C_17  and  C_18
REMARK    9  A    between atoms: C_24  and  C_25
REMARK   10  A    between atoms: C_24  and  C_26
REMARK   11  A    between atoms: C_27  and  O_28
REMARK                            x       y       z     vdW  Elec       q    Type
REMARK                         _______ _______ _______ _____ _____    ______ ____
ROOT
ATOM      1  C   UNL     1      -2.164  11.946  19.443  0.00  0.00    +0.000 C 
ATOM      2  C   UNL     1      -3.612  12.285  19.743  0.00  0.00    +0.000 A 
ATOM      3  C   UNL     1      -4.045  12.607  21.044  0.00  0.00    +0.000 A 
ATOM      4  C   UNL     1      -5.410  12.708  21.354  0.00  0.00    +0.000 A 
ATOM      5  C   UNL     1      -6.363  12.513  20.351  0.00  0.00    +0.000 A 
ATOM      6  C   UNL     1      -5.948  12.237  19.051  0.00  0.00    +0.000 A 
ATOM      7  C   UNL     1      -4.588  12.104  18.755  0.00  0.00    +0.000 A 
ATOM      8  O   UNL     1      -4.315  11.752  17.461  0.00  0.00    +0.000 OA
ATOM      9  C   UNL     1      -3.082  11.043  17.248  0.00  0.00    +0.000 C 
ATOM     10  C   UNL     1      -2.855  11.039  15.726  0.00  0.00    +0.000 C 
ATOM     11  C   UNL     1      -3.260   9.584  17.701  0.00  0.00    +0.000 C 
ATOM     12  C   UNL     1      -1.907  11.784  17.921  0.00  0.00    +0.000 C 
ENDROOT
BRANCH   4  13
ATOM     13  C   UNL     1      -5.832  12.962  22.701  0.00  0.00    +0.000 C 
ATOM     14  N   UNL     1      -6.180  13.154  23.790  0.00  0.00    +0.000 NA
ENDBRANCH   4  13
BRANCH  12  15
ATOM     15  O   UNL     1      -0.658  11.125  17.658  0.00  0.00    +0.000 OA
ATOM     16  H   UNL     1      -0.590  10.347  18.240  0.00  0.00    +0.000 HD
ENDBRANCH  12  15
BRANCH   1  17
ATOM     17  N   UNL     1      -1.162  12.809  20.143  0.00  0.00    +0.000 N 
BRANCH  17  18
ATOM     18  C   UNL     1      -1.073  14.182  19.859  0.00  0.00    +0.000 A 
ATOM     19  C   UNL     1      -1.756  15.162  20.605  0.00  0.00    +0.000 A 
ATOM     20  C   UNL     1      -1.688  16.530  20.297  0.00  0.00    +0.000 A 
ATOM     21  C   UNL     1      -0.912  16.976  19.236  0.00  0.00    +0.000 A 
ATOM     22  C   UNL     1      -0.194  16.052  18.498  0.00  0.00    +0.000 A 
ATOM     23  C   UNL     1      -0.271  14.688  18.813  0.00  0.00    +0.000 A 
ENDBRANCH  17  18
BRANCH  17  24
ATOM     24  C   UNL     1      -0.464  12.259  21.342  0.00  0.00    +0.000 C 
BRANCH  24  25
ATOM     25  C   UNL     1       0.665  11.287  21.036  0.00  0.00    +0.000 C 
ATOM     26  O   UNL     1       1.227  11.232  19.946  0.00  0.00    +0.000 OA
BRANCH  25  27
ATOM     27  O   UNL     1       1.007  10.542  22.122  0.00  0.00    +0.000 OA
BRANCH  27  29
ATOM     28  C   UNL     1      -0.326   8.604  21.704  0.00  0.00    +0.000 C 
ATOM     29  C   UNL     1       1.085   9.131  21.893  0.00  0.00    +0.000 C 
ENDBRANCH  27  29
ENDBRANCH  25  27
ENDBRANCH  24  25
ENDBRANCH  17  24
ENDBRANCH   1  17
TORSDOF 8
ENDMDL
MODEL 7
REMARK VINA RESULT:      -6.0      7.809     10.547
REMARK  Name = 
REMARK  11 active torsions:
REMARK  status: ('A' for Active; 'I' for Inactive)
REMARK    1  A    between atoms: C_1  and  C_2
REMARK    2  A    between atoms: C_2  and  O_3
REMARK    3  A    between atoms: O_3  and  C_4
REMARK    4  A    between atoms: C_4  and  C_6
REMARK    5  A    between atoms: C_6  and  N_7
REMARK    6  A    between atoms: N_7  and  C_8
REMARK    7  A    between atoms: N_7  and  C_14
REMARK    8  A    between atoms: C_17  and  C_18
REMARK    9  A    between atoms: C_24  and  C_25
REMARK   10  A    between atoms: C_24  and  C_26
REMARK   11  A    between atoms: C_27  and  O_28
REMARK                            x       y       z     vdW  Elec       q    Type
REMARK                         _______ _______ _______ _____ _____    ______ ____
ROOT
ATOM      1  C   UNL     1      -1.537  11.245  21.404  0.00  0.00    +0.000 C 
ATOM      2  C   UNL     1      -1.533  11.031  19.902  0.00  0.00    +0.000 A 
ATOM      3  C   UNL     1      -2.603  11.453  19.089  0.00  0.00    +0.000 A 
ATOM      4  C   UNL     1      -2.693  11.066  17.744  0.00  0.00    +0.000 A 
ATOM      5  C   UNL     1      -1.691  10.269  17.186  0.00  0.00    +0.000 A 
ATOM      6  C   UNL     1      -0.605   9.880  17.965  0.00  0.00    +0.000 A 
ATOM      7  C   UNL     1      -0.537  10.241  19.314  0.00  0.00    +0.000 A 
ATOM      8  O   UNL     1       0.537   9.730  19.991  0.00  0.00    +0.000 OA
ATOM      9  C   UNL     1       0.362   9.550  21.407  0.00  0.00    +0.000 C 
ATOM     10  C   UNL     1       1.766   9.274  21.974  0.00  0.00    +0.000 C 
ATOM     11  C   UNL     1      -0.499   8.299  21.650  0.00  0.00    +0.000 C 
ATOM     12  C   UNL     1      -0.186  10.840  22.054  0.00  0.00    +0.000 C 
ENDROOT
BRANCH   4  13
ATOM     13  C   UNL     1      -3.830  11.443  16.954  0.00  0.00    +0.000 C 
ATOM     14  N   UNL     1      -4.755  11.754  16.328  0.00  0.00    +0.000 NA
ENDBRANCH   4  13
BRANCH  12  15
ATOM     15  O   UNL     1      -0.300  10.700  23.479  0.00  0.00    +0.000 OA
ATOM     16  H   UNL     1      -0.412   9.755  23.688  0.00  0.00    +0.000 HD
ENDBRANCH  12  15
BRANCH   1  17
ATOM     17  N   UNL     1      -2.051  12.579  21.844  0.00  0.00    +0.000 N 
BRANCH  17  18
ATOM     18  C   UNL     1      -3.268  12.687  22.538  0.00  0.00    +0.000 A 
ATOM     19  C   UNL     1      -3.385  12.434  23.919  0.00  0.00    +0.000 A 
ATOM     20  C   UNL     1      -4.609  12.513  24.601  0.00  0.00    +0.000 A 
ATOM     21  C   UNL     1      -5.769  12.871  23.928  0.00  0.00    +0.000 A 
ATOM     22  C   UNL     1      -5.696  13.165  22.578  0.00  0.00    +0.000 A 
ATOM     23  C   UNL     1      -4.467  13.081  21.906  0.00  0.00    +0.000 A 
ENDBRANCH  17  18
BRANCH  17  24
ATOM     24  C   UNL     1      -1.126  13.749  21.795  0.00  0.00    +0.000 C 
BRANCH  24  25
ATOM     25  C   UNL     1      -1.427  14.757  20.696  0.00  0.00    +0.000 C 
ATOM     26  O   UNL     1      -2.107  15.763  20.875  0.00  0.00    +0.000 OA
BRANCH  25  27
ATOM     27  O   UNL     1      -0.809  14.437  19.526  0.00  0.00    +0.000 OA
BRANCH  27  29
ATOM     28  C   UNL     1       1.073  13.362  18.522  0.00  0.00    +0.000 C 
ATOM     29  C   UNL     1       0.616  14.329  19.599  0.00  0.00    +0.000 C 
ENDBRANCH  27  29
ENDBRANCH  25  27
ENDBRANCH  24  25
ENDBRANCH  17  24
ENDBRANCH   1  17
TORSDOF 8
ENDMDL
MODEL 8
REMARK VINA RESULT:      -6.0      6.229     11.280
REMARK  Name = 
REMARK  11 active torsions:
REMARK  status: ('A' for Active; 'I' for Inactive)
REMARK    1  A    between atoms: C_1  and  C_2
REMARK    2  A    between atoms: C_2  and  O_3
REMARK    3  A    between atoms: O_3  and  C_4
REMARK    4  A    between atoms: C_4  and  C_6
REMARK    5  A    between atoms: C_6  and  N_7
REMARK    6  A    between atoms: N_7  and  C_8
REMARK    7  A    between atoms: N_7  and  C_14
REMARK    8  A    between atoms: C_17  and  C_18
REMARK    9  A    between atoms: C_24  and  C_25
REMARK   10  A    between atoms: C_24  and  C_26
REMARK   11  A    between atoms: C_27  and  O_28
REMARK                            x       y       z     vdW  Elec       q    Type
REMARK                         _______ _______ _______ _____ _____    ______ ____
ROOT
ATOM      1  C   UNL     1      -1.350  12.809  19.922  0.00  0.00    +0.000 C 
ATOM      2  C   UNL     1      -1.522  13.119  21.398  0.00  0.00    +0.000 A 
ATOM      3  C   UNL     1      -2.581  12.578  22.151  0.00  0.00    +0.000 A 
ATOM      4  C   UNL     1      -2.859  13.033  23.450  0.00  0.00    +0.000 A 
ATOM      5  C   UNL     1      -2.056  14.021  24.022  0.00  0.00    +0.000 A 
ATOM      6  C   UNL     1      -0.978  14.535  23.305  0.00  0.00    +0.000 A 
ATOM      7  C   UNL     1      -0.727  14.103  22.000  0.00  0.00    +0.000 A 
ATOM      8  O   UNL     1       0.310  14.741  21.374  0.00  0.00    +0.000 OA
ATOM      9  C   UNL     1       0.243  14.795  19.938  0.00  0.00    +0.000 C 
ATOM     10  C   UNL     1       1.630  15.266  19.468  0.00  0.00    +0.000 C 
ATOM     11  C   UNL     1      -0.782  15.865  19.526  0.00  0.00    +0.000 C 
ATOM     12  C   UNL     1      -0.027  13.392  19.355  0.00  0.00    +0.000 C 
ENDROOT
BRANCH   4  13
ATOM     13  C   UNL     1      -3.989  12.523  24.171  0.00  0.00    +0.000 C 
ATOM     14  N   UNL     1      -4.904  12.124  24.761  0.00  0.00    +0.000 NA
ENDBRANCH   4  13
BRANCH  12  15
ATOM     15  O   UNL     1      -0.028  13.417  17.919  0.00  0.00    +0.000 OA
ATOM     16  H   UNL     1      -0.547  14.186  17.623  0.00  0.00    +0.000 HD
ENDBRANCH  12  15
BRANCH   1  17
ATOM     17  N   UNL     1      -1.598  11.382  19.550  0.00  0.00    +0.000 N 
BRANCH  17  18
ATOM     18  C   UNL     1      -2.265  11.056  18.357  0.00  0.00    +0.000 A 
ATOM     19  C   UNL     1      -3.520  11.595  18.012  0.00  0.00    +0.000 A 
ATOM     20  C   UNL     1      -4.196  11.242  16.834  0.00  0.00    +0.000 A 
ATOM     21  C   UNL     1      -3.631  10.345  15.938  0.00  0.00    +0.000 A 
ATOM     22  C   UNL     1      -2.383   9.818  16.218  0.00  0.00    +0.000 A 
ATOM     23  C   UNL     1      -1.717  10.176  17.399  0.00  0.00    +0.000 A 
ENDBRANCH  17  18
BRANCH  17  24
ATOM     24  C   UNL     1      -0.881  10.315  20.308  0.00  0.00    +0.000 C 
BRANCH  24  25
ATOM     25  C   UNL     1       0.626  10.494  20.395  0.00  0.00    +0.000 C 
ATOM     26  O   UNL     1       1.202  10.859  21.416  0.00  0.00    +0.000 OA
BRANCH  25  27
ATOM     27  O   UNL     1       1.250  10.148  19.236  0.00  0.00    +0.000 OA
BRANCH  27  29
ATOM     28  C   UNL     1       2.121   8.512  17.729  0.00  0.00    +0.000 C 
ATOM     29  C   UNL     1       1.665   8.781  19.152  0.00  0.00    +0.000 C 
ENDBRANCH  27  29
ENDBRANCH  25  27
ENDBRANCH  24  25
ENDBRANCH  17  24
ENDBRANCH   1  17
TORSDOF 8
ENDMDL
MODEL 9
REMARK VINA RESULT:      -6.0      7.037     11.170
REMARK  Name = 
REMARK  11 active torsions:
REMARK  status: ('A' for Active; 'I' for Inactive)
REMARK    1  A    between atoms: C_1  and  C_2
REMARK    2  A    between atoms: C_2  and  O_3
REMARK    3  A    between atoms: O_3  and  C_4
REMARK    4  A    between atoms: C_4  and  C_6
REMARK    5  A    between atoms: C_6  and  N_7
REMARK    6  A    between atoms: N_7  and  C_8
REMARK    7  A    between atoms: N_7  and  C_14
REMARK    8  A    between atoms: C_17  and  C_18
REMARK    9  A    between atoms: C_24  and  C_25
REMARK   10  A    between atoms: C_24  and  C_26
REMARK   11  A    between atoms: C_27  and  O_28
REMARK                            x       y       z     vdW  Elec       q    Type
REMARK                         _______ _______ _______ _____ _____    ______ ____
ROOT
ATOM      1  C   UNL     1      -2.192  12.457  20.129  0.00  0.00    +0.000 C 
ATOM      2  C   UNL     1      -3.187  11.934  19.109  0.00  0.00    +0.000 A 
ATOM      3  C   UNL     1      -2.786  11.524  17.824  0.00  0.00    +0.000 A 
ATOM      4  C   UNL     1      -3.726  11.247  16.820  0.00  0.00    +0.000 A 
ATOM      5  C   UNL     1      -5.090  11.354  17.102  0.00  0.00    +0.000 A 
ATOM      6  C   UNL     1      -5.503  11.717  18.381  0.00  0.00    +0.000 A 
ATOM      7  C   UNL     1      -4.561  12.024  19.368  0.00  0.00    +0.000 A 
ATOM      8  O   UNL     1      -5.092  12.444  20.557  0.00  0.00    +0.000 OA
ATOM      9  C   UNL     1      -4.258  13.305  21.351  0.00  0.00    +0.000 C 
ATOM     10  C   UNL     1      -4.926  13.381  22.735  0.00  0.00    +0.000 C 
ATOM     11  C   UNL     1      -4.273  14.717  20.742  0.00  0.00    +0.000 C 
ATOM     12  C   UNL     1      -2.850  12.694  21.516  0.00  0.00    +0.000 C 
ENDROOT
BRANCH   4  13
ATOM     13  C   UNL     1      -3.295  10.904  15.495  0.00  0.00    +0.000 C 
ATOM     14  N   UNL     1      -2.944  10.613  14.429  0.00  0.00    +0.000 NA
ENDBRANCH   4  13
BRANCH  12  15
ATOM     15  O   UNL     1      -2.025  13.508  22.365  0.00  0.00    +0.000 OA
ATOM     16  H   UNL     1      -1.755  12.976  23.134  0.00  0.00    +0.000 HD
ENDBRANCH  12  15
BRANCH   1  17
ATOM     17  N   UNL     1      -0.902  11.703  20.186  0.00  0.00    +0.000 N 
BRANCH  17  18
ATOM     18  C   UNL     1       0.310  12.324  19.839  0.00  0.00    +0.000 A 
ATOM     19  C   UNL     1       1.099  11.903  18.751  0.00  0.00    +0.000 A 
ATOM     20  C   UNL     1       2.324  12.508  18.427  0.00  0.00    +0.000 A 
ATOM     21  C   UNL     1       2.801  13.577  19.173  0.00  0.00    +0.000 A 
ATOM     22  C   UNL     1       2.042  14.048  20.229  0.00  0.00    +0.000 A 
ATOM     23  C   UNL     1       0.820  13.435  20.544  0.00  0.00    +0.000 A 
ENDBRANCH  17  18
BRANCH  17  24
ATOM     24  C   UNL     1      -0.879  10.385  20.886  0.00  0.00    +0.000 C 
BRANCH  24  25
ATOM     25  C   UNL     1      -0.145  10.380  22.218  0.00  0.00    +0.000 C 
ATOM     26  O   UNL     1      -0.336  11.219  23.093  0.00  0.00    +0.000 OA
BRANCH  25  27
ATOM     27  O   UNL     1       0.691   9.313  22.337  0.00  0.00    +0.000 OA
BRANCH  27  29
ATOM     28  C   UNL     1       1.346   7.459  20.980  0.00  0.00    +0.000 C 
ATOM     29  C   UNL     1       1.410   8.967  21.149  0.00  0.00    +0.000 C 
ENDBRANCH  27  29
ENDBRANCH  25  27
ENDBRANCH  24  25
ENDBRANCH  17  24
ENDBRANCH   1  17
TORSDOF 8
ENDMDL
