MODEL 1
REMARK VINA RESULT:      -8.0      0.000      0.000
REMARK  Name = 
REMARK  6 active torsions:
REMARK  status: ('A' for Active; 'I' for Inactive)
REMARK    1  A    between atoms: C_1  and  C_2
REMARK    2  A    between atoms: N_4  and  C_5
REMARK    3  A    between atoms: C_6  and  C_7
REMARK    4  A    between atoms: C_8  and  N_9
REMARK    5  A    between atoms: N_9  and  S_10
REMARK    6  A    between atoms: S_10  and  C_13
REMARK                            x       y       z     vdW  Elec       q    Type
REMARK                         _______ _______ _______ _____ _____    ______ ____
ROOT
ATOM      1  C   UNL     1       3.623   4.815  18.742  0.00  0.00    +0.000 A 
ATOM      2  C   UNL     1       2.898   5.267  17.649  0.00  0.00    +0.000 A 
ATOM      3  C   UNL     1       2.186   6.465  17.756  0.00  0.00    +0.000 A 
ATOM      4  C   UNL     1       2.202   7.201  18.945  0.00  0.00    +0.000 A 
ATOM      5  N   UNL     1       1.476   8.402  19.015  0.00  0.00    +0.000 N 
ATOM      6  C   UNL     1       1.154   8.876  20.365  0.00  0.00    +0.000 C 
ATOM      7  C   UNL     1       0.260  10.123  20.283  0.00  0.00    +0.000 C 
ATOM      8  C   UNL     1       1.018  11.214  19.577  0.00  0.00    +0.000 A 
ATOM      9  C   UNL     1       0.928  12.555  19.974  0.00  0.00    +0.000 A 
ATOM     10  C   UNL     1       1.672  13.530  19.311  0.00  0.00    +0.000 A 
ATOM     11  C   UNL     1       2.494  13.172  18.245  0.00  0.00    +0.000 A 
ATOM     12  C   UNL     1       2.567  11.841  17.829  0.00  0.00    +0.000 A 
ATOM     13  C   UNL     1       1.834  10.846  18.494  0.00  0.00    +0.000 A 
ATOM     14  C   UNL     1       1.875   9.407  18.008  0.00  0.00    +0.000 C 
ATOM     15  N   UNL     1       2.898   6.742  20.012  0.00  0.00    +0.000 NA
ATOM     16  C   UNL     1       3.619   5.589  19.886  0.00  0.00    +0.000 A 
ENDROOT
BRANCH   1  17
ATOM     17  S   UNL     1       4.656   3.391  18.622  0.00  0.00    +0.000 S 
ATOM     18  O   UNL     1       3.884   2.361  17.958  0.00  0.00    +0.000 OA
ATOM     19  O   UNL     1       5.251   3.155  19.919  0.00  0.00    +0.000 OA
BRANCH  17  20
ATOM     20  N   UNL     1       5.878   3.805  17.528  0.00  0.00    +0.000 N 
ATOM     21  H   UNL     1       5.908   3.189  16.717  0.00  0.00    +0.000 HD
BRANCH  20  29
ATOM     22  C   UNL     1       5.246   5.903  15.189  0.00  0.00    +0.000 C 
ATOM     23  C   UNL     1       6.127   6.035  16.378  0.00  0.00    +0.000 A 
ATOM     24  N   UNL     1       6.738   7.203  16.613  0.00  0.00    +0.000 NA
ATOM     25  N   UNL     1       7.364   7.020  17.786  0.00  0.00    +0.000 N 
ATOM     26  C   UNL     1       8.153   8.104  18.326  0.00  0.00    +0.000 C 
ATOM     27  C   UNL     1       7.145   5.783  18.340  0.00  0.00    +0.000 A 
ATOM     28  C   UNL     1       7.669   5.372  19.666  0.00  0.00    +0.000 C 
ATOM     29  C   UNL     1       6.393   5.094  17.412  0.00  0.00    +0.000 A 
ENDBRANCH  20  29
ENDBRANCH  17  20
ENDBRANCH   1  17
TORSDOF 3
ENDMDL
MODEL 2
REMARK VINA RESULT:      -7.8      4.891      9.255
REMARK  Name = 
REMARK  6 active torsions:
REMARK  status: ('A' for Active; 'I' for Inactive)
REMARK    1  A    between atoms: C_1  and  C_2
REMARK    2  A    between atoms: N_4  and  C_5
REMARK    3  A    between atoms: C_6  and  C_7
REMARK    4  A    between atoms: C_8  and  N_9
REMARK    5  A    between atoms: N_9  and  S_10
REMARK    6  A    between atoms: S_10  and  C_13
REMARK                            x       y       z     vdW  Elec       q    Type
REMARK                         _______ _______ _______ _____ _____    ______ ____
ROOT
ATOM      1  C   UNL     1       0.490  10.158  19.167  0.00  0.00    +0.000 A 
ATOM      2  C   UNL     1       0.979   9.852  17.905  0.00  0.00    +0.000 A 
ATOM      3  C   UNL     1       1.810   8.739  17.752  0.00  0.00    +0.000 A 
ATOM      4  C   UNL     1       2.148   7.943  18.851  0.00  0.00    +0.000 A 
ATOM      5  N   UNL     1       2.985   6.831  18.658  0.00  0.00    +0.000 N 
ATOM      6  C   UNL     1       3.661   6.325  19.858  0.00  0.00    +0.000 C 
ATOM      7  C   UNL     1       4.630   5.195  19.475  0.00  0.00    +0.000 C 
ATOM      8  C   UNL     1       3.838   4.063  18.877  0.00  0.00    +0.000 A 
ATOM      9  C   UNL     1       4.151   2.722  19.136  0.00  0.00    +0.000 A 
ATOM     10  C   UNL     1       3.371   1.706  18.586  0.00  0.00    +0.000 A 
ATOM     11  C   UNL     1       2.290   2.024  17.767  0.00  0.00    +0.000 A 
ATOM     12  C   UNL     1       1.990   3.359  17.485  0.00  0.00    +0.000 A 
ATOM     13  C   UNL     1       2.757   4.393  18.041  0.00  0.00    +0.000 A 
ATOM     14  C   UNL     1       2.461   5.842  17.693  0.00  0.00    +0.000 C 
ATOM     15  N   UNL     1       1.681   8.261  20.082  0.00  0.00    +0.000 NA
ATOM     16  C   UNL     1       0.840   9.329  20.215  0.00  0.00    +0.000 A 
ENDROOT
BRANCH   1  17
ATOM     17  S   UNL     1      -0.677  11.458  19.399  0.00  0.00    +0.000 S 
ATOM     18  O   UNL     1      -0.567  12.339  18.254  0.00  0.00    +0.000 OA
ATOM     19  O   UNL     1      -0.526  11.966  20.744  0.00  0.00    +0.000 OA
BRANCH  17  20
ATOM     20  N   UNL     1      -2.200  10.735  19.257  0.00  0.00    +0.000 N 
ATOM     21  H   UNL     1      -2.500  10.274  20.114  0.00  0.00    +0.000 HD
BRANCH  20  29
ATOM     22  C   UNL     1      -2.432   9.893  16.172  0.00  0.00    +0.000 C 
ATOM     23  C   UNL     1      -3.282  10.805  16.980  0.00  0.00    +0.000 A 
ATOM     24  N   UNL     1      -4.370  11.352  16.421  0.00  0.00    +0.000 NA
ATOM     25  N   UNL     1      -4.952  12.029  17.423  0.00  0.00    +0.000 N 
ATOM     26  C   UNL     1      -6.163  12.768  17.145  0.00  0.00    +0.000 C 
ATOM     27  C   UNL     1      -4.299  11.906  18.624  0.00  0.00    +0.000 A 
ATOM     28  C   UNL     1      -4.790  12.501  19.891  0.00  0.00    +0.000 C 
ATOM     29  C   UNL     1      -3.168  11.166  18.352  0.00  0.00    +0.000 A 
ENDBRANCH  20  29
ENDBRANCH  17  20
ENDBRANCH   1  17
TORSDOF 3
ENDMDL
MODEL 3
REMARK VINA RESULT:      -7.8      4.195      8.873
REMARK  Name = 
REMARK  6 active torsions:
REMARK  status: ('A' for Active; 'I' for Inactive)
REMARK    1  A    between atoms: C_1  and  C_2
REMARK    2  A    between atoms: N_4  and  C_5
REMARK    3  A    between atoms: C_6  and  C_7
REMARK    4  A    between atoms: C_8  and  N_9
REMARK    5  A    between atoms: N_9  and  S_10
REMARK    6  A    between atoms: S_10  and  C_13
REMARK                            x       y       z     vdW  Elec       q    Type
REMARK                         _______ _______ _______ _____ _____    ______ ____
ROOT
ATOM      1  C   UNL     1       0.858   9.437  20.430  0.00  0.00    +0.000 A 
ATOM      2  C   UNL     1       1.175   8.372  21.261  0.00  0.00    +0.000 A 
ATOM      3  C   UNL     1       1.885   7.290  20.736  0.00  0.00    +0.000 A 
ATOM      4  C   UNL     1       2.275   7.275  19.393  0.00  0.00    +0.000 A 
ATOM      5  N   UNL     1       2.990   6.171  18.901  0.00  0.00    +0.000 N 
ATOM      6  C   UNL     1       2.968   5.992  17.444  0.00  0.00    +0.000 C 
ATOM      7  C   UNL     1       3.684   4.686  17.066  0.00  0.00    +0.000 C 
ATOM      8  C   UNL     1       5.121   4.780  17.500  0.00  0.00    +0.000 A 
ATOM      9  C   UNL     1       6.165   4.261  16.723  0.00  0.00    +0.000 A 
ATOM     10  C   UNL     1       7.486   4.398  17.148  0.00  0.00    +0.000 A 
ATOM     11  C   UNL     1       7.765   5.039  18.353  0.00  0.00    +0.000 A 
ATOM     12  C   UNL     1       6.727   5.536  19.143  0.00  0.00    +0.000 A 
ATOM     13  C   UNL     1       5.394   5.417  18.723  0.00  0.00    +0.000 A 
ATOM     14  C   UNL     1       4.262   5.912  19.607  0.00  0.00    +0.000 C 
ATOM     15  N   UNL     1       1.946   8.311  18.584  0.00  0.00    +0.000 NA
ATOM     16  C   UNL     1       1.282   9.380  19.115  0.00  0.00    +0.000 A 
ENDROOT
BRANCH   1  17
ATOM     17  S   UNL     1       0.094  10.892  21.066  0.00  0.00    +0.000 S 
ATOM     18  O   UNL     1       1.152  11.742  21.572  0.00  0.00    +0.000 OA
ATOM     19  O   UNL     1      -1.006  10.490  21.914  0.00  0.00    +0.000 OA
BRANCH  17  20
ATOM     20  N   UNL     1      -0.525  11.708  19.720  0.00  0.00    +0.000 N 
ATOM     21  H   UNL     1       0.160  11.817  18.974  0.00  0.00    +0.000 HD
BRANCH  20  29
ATOM     22  C   UNL     1      -2.784  13.532  21.081  0.00  0.00    +0.000 C 
ATOM     23  C   UNL     1      -2.895  12.526  19.992  0.00  0.00    +0.000 A 
ATOM     24  N   UNL     1      -4.078  12.340  19.393  0.00  0.00    +0.000 NA
ATOM     25  N   UNL     1      -3.819  11.456  18.416  0.00  0.00    +0.000 N 
ATOM     26  C   UNL     1      -4.910  11.013  17.577  0.00  0.00    +0.000 C 
ATOM     27  C   UNL     1      -2.497  11.094  18.337  0.00  0.00    +0.000 A 
ATOM     28  C   UNL     1      -1.954  10.189  17.295  0.00  0.00    +0.000 C 
ATOM     29  C   UNL     1      -1.880  11.727  19.396  0.00  0.00    +0.000 A 
ENDBRANCH  20  29
ENDBRANCH  17  20
ENDBRANCH   1  17
TORSDOF 3
ENDMDL
MODEL 4
REMARK VINA RESULT:      -7.7      4.190      8.826
REMARK  Name = 
REMARK  6 active torsions:
REMARK  status: ('A' for Active; 'I' for Inactive)
REMARK    1  A    between atoms: C_1  and  C_2
REMARK    2  A    between atoms: N_4  and  C_5
REMARK    3  A    between atoms: C_6  and  C_7
REMARK    4  A    between atoms: C_8  and  N_9
REMARK    5  A    between atoms: N_9  and  S_10
REMARK    6  A    between atoms: S_10  and  C_13
REMARK                            x       y       z     vdW  Elec       q    Type
REMARK                         _______ _______ _______ _____ _____    ______ ____
ROOT
ATOM      1  C   UNL     1       0.853   9.448  20.385  0.00  0.00    +0.000 A 
ATOM      2  C   UNL     1       1.153   8.379  21.217  0.00  0.00    +0.000 A 
ATOM      3  C   UNL     1       1.872   7.298  20.700  0.00  0.00    +0.000 A 
ATOM      4  C   UNL     1       2.285   7.288  19.364  0.00  0.00    +0.000 A 
ATOM      5  N   UNL     1       3.008   6.185  18.880  0.00  0.00    +0.000 N 
ATOM      6  C   UNL     1       3.011   6.012  17.423  0.00  0.00    +0.000 C 
ATOM      7  C   UNL     1       3.731   4.707  17.052  0.00  0.00    +0.000 C 
ATOM      8  C   UNL     1       5.161   4.798  17.510  0.00  0.00    +0.000 A 
ATOM      9  C   UNL     1       6.218   4.280  16.750  0.00  0.00    +0.000 A 
ATOM     10  C   UNL     1       7.531   4.415  17.198  0.00  0.00    +0.000 A 
ATOM     11  C   UNL     1       7.790   5.051  18.411  0.00  0.00    +0.000 A 
ATOM     12  C   UNL     1       6.739   5.546  19.185  0.00  0.00    +0.000 A 
ATOM     13  C   UNL     1       5.413   5.429  18.741  0.00  0.00    +0.000 A 
ATOM     14  C   UNL     1       4.267   5.922  19.608  0.00  0.00    +0.000 C 
ATOM     15  N   UNL     1       1.971   8.327  18.554  0.00  0.00    +0.000 NA
ATOM     16  C   UNL     1       1.299   9.395  19.078  0.00  0.00    +0.000 A 
ENDROOT
BRANCH   1  17
ATOM     17  S   UNL     1       0.079  10.901  21.013  0.00  0.00    +0.000 S 
ATOM     18  O   UNL     1       1.125  11.735  21.567  0.00  0.00    +0.000 OA
ATOM     19  O   UNL     1      -1.054  10.497  21.817  0.00  0.00    +0.000 OA
BRANCH  17  20
ATOM     20  N   UNL     1      -0.487  11.740  19.658  0.00  0.00    +0.000 N 
ATOM     21  H   UNL     1       0.223  11.844  18.933  0.00  0.00    +0.000 HD
BRANCH  20  29
ATOM     22  C   UNL     1      -1.907   9.959  17.402  0.00  0.00    +0.000 C 
ATOM     23  C   UNL     1      -2.475  11.004  18.293  0.00  0.00    +0.000 A 
ATOM     24  N   UNL     1      -3.789  11.255  18.249  0.00  0.00    +0.000 NA
ATOM     25  N   UNL     1      -3.986  12.161  19.220  0.00  0.00    +0.000 N 
ATOM     26  C   UNL     1      -5.321  12.674  19.428  0.00  0.00    +0.000 C 
ATOM     27  C   UNL     1      -2.847  12.475  19.919  0.00  0.00    +0.000 A 
ATOM     28  C   UNL     1      -2.824  13.394  21.084  0.00  0.00    +0.000 C 
ATOM     29  C   UNL     1      -1.830  11.784  19.293  0.00  0.00    +0.000 A 
ENDBRANCH  20  29
ENDBRANCH  17  20
ENDBRANCH   1  17
TORSDOF 3
ENDMDL
MODEL 5
REMARK VINA RESULT:      -7.6      3.509      6.597
REMARK  Name = 
REMARK  6 active torsions:
REMARK  status: ('A' for Active; 'I' for Inactive)
REMARK    1  A    between atoms: C_1  and  C_2
REMARK    2  A    between atoms: N_4  and  C_5
REMARK    3  A    between atoms: C_6  and  C_7
REMARK    4  A    between atoms: C_8  and  N_9
REMARK    5  A    between atoms: N_9  and  S_10
REMARK    6  A    between atoms: S_10  and  C_13
REMARK                            x       y       z     vdW  Elec       q    Type
REMARK                         _______ _______ _______ _____ _____    ______ ____
ROOT
ATOM      1  C   UNL     1       6.763   6.541  17.659  0.00  0.00    +0.000 A 
ATOM      2  C   UNL     1       7.742   6.351  18.623  0.00  0.00    +0.000 A 
ATOM      3  C   UNL     1       8.555   7.427  18.986  0.00  0.00    +0.000 A 
ATOM      4  C   UNL     1       8.388   8.681  18.389  0.00  0.00    +0.000 A 
ATOM      5  N   UNL     1       9.223   9.741  18.781  0.00  0.00    +0.000 N 
ATOM      6  C   UNL     1       9.321  10.860  17.837  0.00  0.00    +0.000 C 
ATOM      7  C   UNL     1      10.356  11.880  18.339  0.00  0.00    +0.000 C 
ATOM      8  C   UNL     1       9.891  12.428  19.660  0.00  0.00    +0.000 A 
ATOM      9  C   UNL     1      10.058  13.776  20.004  0.00  0.00    +0.000 A 
ATOM     10  C   UNL     1       9.584  14.248  21.227  0.00  0.00    +0.000 A 
ATOM     11  C   UNL     1       8.957  13.375  22.113  0.00  0.00    +0.000 A 
ATOM     12  C   UNL     1       8.810  12.025  21.787  0.00  0.00    +0.000 A 
ATOM     13  C   UNL     1       9.271  11.538  20.555  0.00  0.00    +0.000 A 
ATOM     14  C   UNL     1       9.158  10.060  20.222  0.00  0.00    +0.000 C 
ATOM     15  N   UNL     1       7.442   8.853  17.436  0.00  0.00    +0.000 NA
ATOM     16  C   UNL     1       6.629   7.804  17.114  0.00  0.00    +0.000 A 
ENDROOT
BRANCH   1  17
ATOM     17  S   UNL     1       5.613   5.265  17.265  0.00  0.00    +0.000 S 
ATOM     18  O   UNL     1       6.378   4.148  16.747  0.00  0.00    +0.000 OA
ATOM     19  O   UNL     1       4.536   5.849  16.496  0.00  0.00    +0.000 OA
BRANCH  17  20
ATOM     20  N   UNL     1       4.998   4.731  18.747  0.00  0.00    +0.000 N 
ATOM     21  H   UNL     1       5.524   5.087  19.545  0.00  0.00    +0.000 HD
BRANCH  20  29
ATOM     22  C   UNL     1       2.594   6.646  19.657  0.00  0.00    +0.000 C 
ATOM     23  C   UNL     1       2.591   5.195  19.339  0.00  0.00    +0.000 A 
ATOM     24  N   UNL     1       1.432   4.525  19.352  0.00  0.00    +0.000 NA
ATOM     25  N   UNL     1       1.758   3.291  18.938  0.00  0.00    +0.000 N 
ATOM     26  C   UNL     1       0.717   2.290  18.860  0.00  0.00    +0.000 C 
ATOM     27  C   UNL     1       3.085   3.150  18.618  0.00  0.00    +0.000 A 
ATOM     28  C   UNL     1       3.670   1.902  18.067  0.00  0.00    +0.000 C 
ATOM     29  C   UNL     1       3.669   4.359  18.932  0.00  0.00    +0.000 A 
ENDBRANCH  20  29
ENDBRANCH  17  20
ENDBRANCH   1  17
TORSDOF 3
ENDMDL
MODEL 6
REMARK VINA RESULT:      -7.5      4.545      9.268
REMARK  Name = 
REMARK  6 active torsions:
REMARK  status: ('A' for Active; 'I' for Inactive)
REMARK    1  A    between atoms: C_1  and  C_2
REMARK    2  A    between atoms: N_4  and  C_5
REMARK    3  A    between atoms: C_6  and  C_7
REMARK    4  A    between atoms: C_8  and  N_9
REMARK    5  A    between atoms: N_9  and  S_10
REMARK    6  A    between atoms: S_10  and  C_13
REMARK                            x       y       z     vdW  Elec       q    Type
REMARK                         _______ _______ _______ _____ _____    ______ ____
ROOT
ATOM      1  C   UNL     1       0.679  10.134  19.038  0.00  0.00    +0.000 A 
ATOM      2  C   UNL     1       1.243   9.821  17.809  0.00  0.00    +0.000 A 
ATOM      3  C   UNL     1       2.050   8.685  17.703  0.00  0.00    +0.000 A 
ATOM      4  C   UNL     1       2.290   7.873  18.817  0.00  0.00    +0.000 A 
ATOM      5  N   UNL     1       3.106   6.738  18.672  0.00  0.00    +0.000 N 
ATOM      6  C   UNL     1       3.685   6.205  19.910  0.00  0.00    +0.000 C 
ATOM      7  C   UNL     1       4.644   5.050  19.585  0.00  0.00    +0.000 C 
ATOM      8  C   UNL     1       3.863   3.945  18.926  0.00  0.00    +0.000 A 
ATOM      9  C   UNL     1       4.119   2.594  19.194  0.00  0.00    +0.000 A 
ATOM     10  C   UNL     1       3.349   1.604  18.584  0.00  0.00    +0.000 A 
ATOM     11  C   UNL     1       2.336   1.959  17.696  0.00  0.00    +0.000 A 
ATOM     12  C   UNL     1       2.094   3.304  17.406  0.00  0.00    +0.000 A 
ATOM     13  C   UNL     1       2.851   4.312  18.021  0.00  0.00    +0.000 A 
ATOM     14  C   UNL     1       2.621   5.771  17.666  0.00  0.00    +0.000 C 
ATOM     15  N   UNL     1       1.750   8.197  20.016  0.00  0.00    +0.000 NA
ATOM     16  C   UNL     1       0.934   9.288  20.101  0.00  0.00    +0.000 A 
ENDROOT
BRANCH   1  17
ATOM     17  S   UNL     1      -0.464  11.466  19.201  0.00  0.00    +0.000 S 
ATOM     18  O   UNL     1      -1.794  10.895  19.141  0.00  0.00    +0.000 OA
ATOM     19  O   UNL     1      -0.063  12.517  18.292  0.00  0.00    +0.000 OA
BRANCH  17  20
ATOM     20  N   UNL     1      -0.291  12.023  20.789  0.00  0.00    +0.000 N 
ATOM     21  H   UNL     1       0.484  12.675  20.897  0.00  0.00    +0.000 HD
BRANCH  20  29
ATOM     22  C   UNL     1      -0.745  10.079  23.298  0.00  0.00    +0.000 C 
ATOM     23  C   UNL     1      -1.564  11.220  22.812  0.00  0.00    +0.000 A 
ATOM     24  N   UNL     1      -2.641  11.596  23.513  0.00  0.00    +0.000 NA
ATOM     25  N   UNL     1      -3.090  12.687  22.872  0.00  0.00    +0.000 N 
ATOM     26  C   UNL     1      -4.280  13.340  23.367  0.00  0.00    +0.000 C 
ATOM     27  C   UNL     1      -2.314  13.054  21.801  0.00  0.00    +0.000 A 
ATOM     28  C   UNL     1      -2.563  14.266  20.982  0.00  0.00    +0.000 C 
ATOM     29  C   UNL     1      -1.346  12.077  21.697  0.00  0.00    +0.000 A 
ENDBRANCH  20  29
ENDBRANCH  17  20
ENDBRANCH   1  17
TORSDOF 3
ENDMDL
MODEL 7
REMARK VINA RESULT:      -7.4      2.172      3.456
REMARK  Name = 
REMARK  6 active torsions:
REMARK  status: ('A' for Active; 'I' for Inactive)
REMARK    1  A    between atoms: C_1  and  C_2
REMARK    2  A    between atoms: N_4  and  C_5
REMARK    3  A    between atoms: C_6  and  C_7
REMARK    4  A    between atoms: C_8  and  N_9
REMARK    5  A    between atoms: N_9  and  S_10
REMARK    6  A    between atoms: S_10  and  C_13
REMARK                            x       y       z     vdW  Elec       q    Type
REMARK                         _______ _______ _______ _____ _____    ______ ____
ROOT
ATOM      1  C   UNL     1       1.942   7.336  19.370  0.00  0.00    +0.000 A 
ATOM      2  C   UNL     1       2.143   7.835  18.091  0.00  0.00    +0.000 A 
ATOM      3  C   UNL     1       1.891   9.187  17.843  0.00  0.00    +0.000 A 
ATOM      4  C   UNL     1       1.441  10.029  18.865  0.00  0.00    +0.000 A 
ATOM      5  N   UNL     1       1.200  11.383  18.578  0.00  0.00    +0.000 N 
ATOM      6  C   UNL     1       0.322  12.089  19.519  0.00  0.00    +0.000 C 
ATOM      7  C   UNL     1       0.052  13.515  19.014  0.00  0.00    +0.000 C 
ATOM      8  C   UNL     1       1.358  14.259  18.952  0.00  0.00    +0.000 A 
ATOM      9  C   UNL     1       1.458  15.610  19.309  0.00  0.00    +0.000 A 
ATOM     10  C   UNL     1       2.695  16.253  19.265  0.00  0.00    +0.000 A 
ATOM     11  C   UNL     1       3.827  15.555  18.853  0.00  0.00    +0.000 A 
ATOM     12  C   UNL     1       3.728  14.215  18.471  0.00  0.00    +0.000 A 
ATOM     13  C   UNL     1       2.493  13.551  18.521  0.00  0.00    +0.000 A 
ATOM     14  C   UNL     1       2.377  12.109  18.058  0.00  0.00    +0.000 C 
ATOM     15  N   UNL     1       1.230   9.529  20.106  0.00  0.00    +0.000 NA
ATOM     16  C   UNL     1       1.514   8.215  20.347  0.00  0.00    +0.000 A 
ENDROOT
BRANCH   1  17
ATOM     17  S   UNL     1       2.381   5.679  19.780  0.00  0.00    +0.000 S 
ATOM     18  O   UNL     1       1.679   4.812  18.856  0.00  0.00    +0.000 OA
ATOM     19  O   UNL     1       2.238   5.515  21.210  0.00  0.00    +0.000 OA
BRANCH  17  20
ATOM     20  N   UNL     1       4.016   5.527  19.375  0.00  0.00    +0.000 N 
ATOM     21  H   UNL     1       4.632   5.596  20.184  0.00  0.00    +0.000 HD
BRANCH  20  29
ATOM     22  C   UNL     1       3.919   2.356  18.915  0.00  0.00    +0.000 C 
ATOM     23  C   UNL     1       4.430   3.435  18.030  0.00  0.00    +0.000 A 
ATOM     24  N   UNL     1       4.880   3.120  16.808  0.00  0.00    +0.000 NA
ATOM     25  N   UNL     1       5.171   4.304  16.247  0.00  0.00    +0.000 N 
ATOM     26  C   UNL     1       5.713   4.319  14.907  0.00  0.00    +0.000 C 
ATOM     27  C   UNL     1       4.886   5.380  17.051  0.00  0.00    +0.000 A 
ATOM     28  C   UNL     1       5.053   6.791  16.625  0.00  0.00    +0.000 C 
ATOM     29  C   UNL     1       4.462   4.841  18.248  0.00  0.00    +0.000 A 
ENDBRANCH  20  29
ENDBRANCH  17  20
ENDBRANCH   1  17
TORSDOF 3
ENDMDL
MODEL 8
REMARK VINA RESULT:      -7.3      4.188      8.425
REMARK  Name = 
REMARK  6 active torsions:
REMARK  status: ('A' for Active; 'I' for Inactive)
REMARK    1  A    between atoms: C_1  and  C_2
REMARK    2  A    between atoms: N_4  and  C_5
REMARK    3  A    between atoms: C_6  and  C_7
REMARK    4  A    between atoms: C_8  and  N_9
REMARK    5  A    between atoms: N_9  and  S_10
REMARK    6  A    between atoms: S_10  and  C_13
REMARK                            x       y       z     vdW  Elec       q    Type
REMARK                         _______ _______ _______ _____ _____    ______ ____
ROOT
ATOM      1  C   UNL     1       0.551  10.040  19.197  0.00  0.00    +0.000 A 
ATOM      2  C   UNL     1       1.002   9.727  17.923  0.00  0.00    +0.000 A 
ATOM      3  C   UNL     1       1.835   8.618  17.752  0.00  0.00    +0.000 A 
ATOM      4  C   UNL     1       2.210   7.832  18.846  0.00  0.00    +0.000 A 
ATOM      5  N   UNL     1       3.047   6.723  18.635  0.00  0.00    +0.000 N 
ATOM      6  C   UNL     1       3.762   6.229  19.817  0.00  0.00    +0.000 C 
ATOM      7  C   UNL     1       4.725   5.101  19.414  0.00  0.00    +0.000 C 
ATOM      8  C   UNL     1       3.922   3.961  18.848  0.00  0.00    +0.000 A 
ATOM      9  C   UNL     1       4.249   2.624  19.106  0.00  0.00    +0.000 A 
ATOM     10  C   UNL     1       3.459   1.599  18.587  0.00  0.00    +0.000 A 
ATOM     11  C   UNL     1       2.352   1.906  17.799  0.00  0.00    +0.000 A 
ATOM     12  C   UNL     1       2.036   3.237  17.517  0.00  0.00    +0.000 A 
ATOM     13  C   UNL     1       2.814   4.279  18.042  0.00  0.00    +0.000 A 
ATOM     14  C   UNL     1       2.500   5.724  17.694  0.00  0.00    +0.000 C 
ATOM     15  N   UNL     1       1.779   8.156  20.088  0.00  0.00    +0.000 NA
ATOM     16  C   UNL     1       0.937   9.220  20.240  0.00  0.00    +0.000 A 
ENDROOT
BRANCH   1  17
ATOM     17  S   UNL     1      -0.616  11.336  19.455  0.00  0.00    +0.000 S 
ATOM     18  O   UNL     1      -0.338  11.905  20.758  0.00  0.00    +0.000 OA
ATOM     19  O   UNL     1      -1.931  10.830  19.131  0.00  0.00    +0.000 OA
BRANCH  17  20
ATOM     20  N   UNL     1      -0.208  12.545  18.346  0.00  0.00    +0.000 N 
ATOM     21  H   UNL     1      -0.901  12.655  17.607  0.00  0.00    +0.000 HD
BRANCH  20  29
ATOM     22  C   UNL     1      -1.100  15.236  19.843  0.00  0.00    +0.000 C 
ATOM     23  C   UNL     1       0.230  14.829  19.323  0.00  0.00    +0.000 A 
ATOM     24  N   UNL     1       1.285  15.629  19.527  0.00  0.00    +0.000 NA
ATOM     25  N   UNL     1       2.324  14.941  19.028  0.00  0.00    +0.000 N 
ATOM     26  C   UNL     1       3.637  15.544  19.069  0.00  0.00    +0.000 C 
ATOM     27  C   UNL     1       1.983  13.702  18.544  0.00  0.00    +0.000 A 
ATOM     28  C   UNL     1       2.968  12.729  18.012  0.00  0.00    +0.000 C 
ATOM     29  C   UNL     1       0.612  13.627  18.663  0.00  0.00    +0.000 A 
ENDBRANCH  20  29
ENDBRANCH  17  20
ENDBRANCH   1  17
TORSDOF 3
ENDMDL
MODEL 9
REMARK VINA RESULT:      -7.2      1.481      2.250
REMARK  Name = 
REMARK  6 active torsions:
REMARK  status: ('A' for Active; 'I' for Inactive)
REMARK    1  A    between atoms: C_1  and  C_2
REMARK    2  A    between atoms: N_4  and  C_5
REMARK    3  A    between atoms: C_6  and  C_7
REMARK    4  A    between atoms: C_8  and  N_9
REMARK    5  A    between atoms: N_9  and  S_10
REMARK    6  A    between atoms: S_10  and  C_13
REMARK                            x       y       z     vdW  Elec       q    Type
REMARK                         _______ _______ _______ _____ _____    ______ ____
ROOT
ATOM      1  C   UNL     1       2.910   5.197  18.465  0.00  0.00    +0.000 A 
ATOM      2  C   UNL     1       2.718   5.648  19.763  0.00  0.00    +0.000 A 
ATOM      3  C   UNL     1       2.390   6.990  19.973  0.00  0.00    +0.000 A 
ATOM      4  C   UNL     1       2.257   7.870  18.894  0.00  0.00    +0.000 A 
ATOM      5  N   UNL     1       1.924   9.212  19.144  0.00  0.00    +0.000 N 
ATOM      6  C   UNL     1       2.243  10.160  18.070  0.00  0.00    +0.000 C 
ATOM      7  C   UNL     1       1.939  11.594  18.530  0.00  0.00    +0.000 C 
ATOM      8  C   UNL     1       0.467  11.704  18.824  0.00  0.00    +0.000 A 
ATOM      9  C   UNL     1      -0.269  12.851  18.500  0.00  0.00    +0.000 A 
ATOM     10  C   UNL     1      -1.638  12.898  18.762  0.00  0.00    +0.000 A 
ATOM     11  C   UNL     1      -2.269  11.810  19.361  0.00  0.00    +0.000 A 
ATOM     12  C   UNL     1      -1.534  10.675  19.709  0.00  0.00    +0.000 A 
ATOM     13  C   UNL     1      -0.159  10.607  19.441  0.00  0.00    +0.000 A 
ATOM     14  C   UNL     1       0.648   9.393  19.867  0.00  0.00    +0.000 C 
ATOM     15  N   UNL     1       2.464   7.425  17.632  0.00  0.00    +0.000 NA
ATOM     16  C   UNL     1       2.749   6.104  17.435  0.00  0.00    +0.000 A 
ENDROOT
BRANCH   1  17
ATOM     17  S   UNL     1       3.181   3.489  18.126  0.00  0.00    +0.000 S 
ATOM     18  O   UNL     1       2.490   3.186  16.889  0.00  0.00    +0.000 OA
ATOM     19  O   UNL     1       2.906   2.741  19.333  0.00  0.00    +0.000 OA
BRANCH  17  20
ATOM     20  N   UNL     1       4.826   3.351  17.761  0.00  0.00    +0.000 N 
ATOM     21  H   UNL     1       5.094   2.404  17.496  0.00  0.00    +0.000 HD
BRANCH  20  29
ATOM     22  C   UNL     1       5.124   4.347  14.729  0.00  0.00    +0.000 C 
ATOM     23  C   UNL     1       5.747   4.870  15.972  0.00  0.00    +0.000 A 
ATOM     24  N   UNL     1       6.516   5.964  15.907  0.00  0.00    +0.000 NA
ATOM     25  N   UNL     1       6.836   6.221  17.185  0.00  0.00    +0.000 N 
ATOM     26  C   UNL     1       7.696   7.348  17.470  0.00  0.00    +0.000 C 
ATOM     27  C   UNL     1       6.265   5.352  18.081  0.00  0.00    +0.000 A 
ATOM     28  C   UNL     1       6.411   5.475  19.552  0.00  0.00    +0.000 C 
ATOM     29  C   UNL     1       5.601   4.419  17.314  0.00  0.00    +0.000 A 
ENDBRANCH  20  29
ENDBRANCH  17  20
ENDBRANCH   1  17
TORSDOF 3
ENDMDL
