MODEL 1
REMARK VINA RESULT:      -8.1      0.000      0.000
REMARK  Name = 
REMARK  7 active torsions:
REMARK  status: ('A' for Active; 'I' for Inactive)
REMARK    1  A    between atoms: C_1  and  N_2
REMARK    2  A    between atoms: N_2  and  C_3
REMARK    3  A    between atoms: C_3  and  C_4
REMARK    4  A    between atoms: C_10  and  C_12
REMARK    5  A    between atoms: C_12  and  C_13
REMARK    6  A    between atoms: N_19  and  C_20
REMARK    7  A    between atoms: C_20  and  C_21
REMARK                            x       y       z     vdW  Elec       q    Type
REMARK                         _______ _______ _______ _____ _____    ______ ____
ROOT
ATOM      1  C   UNL     1       2.582   4.996  18.883  0.00  0.00    +0.000 C 
ATOM      2  C   UNL     1       1.832   4.379  20.110  0.00  0.00    +0.000 C 
ATOM      3  O   UNL     1       0.970   4.986  20.743  0.00  0.00    +0.000 OA
ATOM      4  N   UNL     1       2.112   3.106  20.506  0.00  0.00    +0.000 N 
ATOM      5  C   UNL     1       2.996   2.244  19.788  0.00  0.00    +0.000 C 
ATOM      6  C   UNL     1       3.049   2.635  18.313  0.00  0.00    +0.000 C 
ATOM      7  N   UNL     1       3.482   4.033  18.131  0.00  0.00    +0.000 NA
ATOM      8  H   UNL     1       1.578   2.770  21.298  0.00  0.00    +0.000 HD
ENDROOT
BRANCH   1   9
ATOM      9  C   UNL     1       3.146   6.364  19.347  0.00  0.00    +0.000 C 
BRANCH   9  12
ATOM     10  C   UNL     1       1.009   9.445  18.475  0.00  0.00    +0.000 C 
ATOM     11  N   UNL     1       1.768   8.519  19.310  0.00  0.00    +0.000 N 
ATOM     12  C   UNL     1       2.446   7.515  18.613  0.00  0.00    +0.000 C 
ATOM     13  O   UNL     1       2.521   7.542  17.377  0.00  0.00    +0.000 OA
BRANCH  11  14
ATOM     14  C   UNL     1       1.366   8.465  20.723  0.00  0.00    +0.000 C 
BRANCH  14  15
ATOM     15  C   UNL     1       0.324   9.531  21.126  0.00  0.00    +0.000 C 
ATOM     16  C   UNL     1       0.901  10.951  21.053  0.00  0.00    +0.000 C 
ATOM     17  C   UNL     1      -0.066  11.970  21.642  0.00  0.00    +0.000 C 
ATOM     18  O   UNL     1      -0.379  11.634  22.993  0.00  0.00    +0.000 OA
ATOM     19  C   UNL     1      -1.060  10.384  23.084  0.00  0.00    +0.000 C 
ATOM     20  C   UNL     1      -0.185   9.253  22.555  0.00  0.00    +0.000 C 
ENDBRANCH  14  15
ENDBRANCH  11  14
ENDBRANCH   9  12
ENDBRANCH   1   9
BRANCH   7  21
ATOM     21  C   UNL     1       4.940   4.202  18.206  0.00  0.00    +0.000 C 
BRANCH  21  22
ATOM     22  C   UNL     1       5.632   4.381  16.843  0.00  0.00    +0.000 A 
ATOM     23  C   UNL     1       6.954   4.862  16.770  0.00  0.00    +0.000 A 
ATOM     24  C   UNL     1       7.589   5.067  15.532  0.00  0.00    +0.000 A 
ATOM     25  C   UNL     1       6.911   4.803  14.346  0.00  0.00    +0.000 A 
ATOM     26 CL   UNL     1       7.694   5.066  12.836  0.00  0.00    +0.000 Cl
ATOM     27  C   UNL     1       5.602   4.333  14.402  0.00  0.00    +0.000 A 
ATOM     28  F   UNL     1       4.928   4.061  13.274  0.00  0.00    +0.000 F 
ATOM     29  C   UNL     1       4.962   4.133  15.631  0.00  0.00    +0.000 A 
ENDBRANCH  21  22
ENDBRANCH   7  21
TORSDOF 6
ENDMDL
MODEL 2
REMARK VINA RESULT:      -8.0      0.829      1.138
REMARK  Name = 
REMARK  7 active torsions:
REMARK  status: ('A' for Active; 'I' for Inactive)
REMARK    1  A    between atoms: C_1  and  N_2
REMARK    2  A    between atoms: N_2  and  C_3
REMARK    3  A    between atoms: C_3  and  C_4
REMARK    4  A    between atoms: C_10  and  C_12
REMARK    5  A    between atoms: C_12  and  C_13
REMARK    6  A    between atoms: N_19  and  C_20
REMARK    7  A    between atoms: C_20  and  C_21
REMARK                            x       y       z     vdW  Elec       q    Type
REMARK                         _______ _______ _______ _____ _____    ______ ____
ROOT
ATOM      1  C   UNL     1       2.321   4.766  18.740  0.00  0.00    +0.000 C 
ATOM      2  C   UNL     1       1.430   4.032  19.795  0.00  0.00    +0.000 C 
ATOM      3  O   UNL     1       0.593   4.612  20.485  0.00  0.00    +0.000 OA
ATOM      4  N   UNL     1       1.550   2.687  19.966  0.00  0.00    +0.000 N 
ATOM      5  C   UNL     1       2.388   1.869  19.147  0.00  0.00    +0.000 C 
ATOM      6  C   UNL     1       2.581   2.504  17.772  0.00  0.00    +0.000 C 
ATOM      7  N   UNL     1       3.166   3.855  17.869  0.00  0.00    +0.000 NA
ATOM      8  H   UNL     1       0.931   2.279  20.657  0.00  0.00    +0.000 HD
ENDROOT
BRANCH   1   9
ATOM      9  C   UNL     1       2.990   5.958  19.472  0.00  0.00    +0.000 C 
BRANCH   9  12
ATOM     10  C   UNL     1       2.148   9.277  17.710  0.00  0.00    +0.000 C 
ATOM     11  N   UNL     1       2.111   8.249  18.746  0.00  0.00    +0.000 N 
ATOM     12  C   UNL     1       3.018   7.200  18.571  0.00  0.00    +0.000 C 
ATOM     13  O   UNL     1       3.889   7.256  17.693  0.00  0.00    +0.000 OA
BRANCH  11  14
ATOM     14  C   UNL     1       0.877   8.196  19.542  0.00  0.00    +0.000 C 
BRANCH  14  15
ATOM     15  C   UNL     1       0.814   9.235  20.683  0.00  0.00    +0.000 C 
ATOM     16  C   UNL     1       0.642   8.568  22.055  0.00  0.00    +0.000 C 
ATOM     17  C   UNL     1       0.380   9.603  23.142  0.00  0.00    +0.000 C 
ATOM     18  O   UNL     1      -0.774  10.377  22.823  0.00  0.00    +0.000 OA
ATOM     19  C   UNL     1      -0.591  11.135  21.629  0.00  0.00    +0.000 C 
ATOM     20  C   UNL     1      -0.351  10.215  20.437  0.00  0.00    +0.000 C 
ENDBRANCH  14  15
ENDBRANCH  11  14
ENDBRANCH   9  12
ENDBRANCH   1   9
BRANCH   7  21
ATOM     21  C   UNL     1       4.625   3.841  18.045  0.00  0.00    +0.000 C 
BRANCH  21  22
ATOM     22  C   UNL     1       5.425   4.155  16.767  0.00  0.00    +0.000 A 
ATOM     23  C   UNL     1       6.701   4.746  16.848  0.00  0.00    +0.000 A 
ATOM     24  C   UNL     1       7.428   5.073  15.690  0.00  0.00    +0.000 A 
ATOM     25  C   UNL     1       6.890   4.822  14.432  0.00  0.00    +0.000 A 
ATOM     26 CL   UNL     1       7.786   5.234  13.021  0.00  0.00    +0.000 Cl
ATOM     27  C   UNL     1       5.628   4.243  14.336  0.00  0.00    +0.000 A 
ATOM     28  F   UNL     1       5.090   3.981  13.135  0.00  0.00    +0.000 F 
ATOM     29  C   UNL     1       4.896   3.921  15.484  0.00  0.00    +0.000 A 
ENDBRANCH  21  22
ENDBRANCH   7  21
TORSDOF 6
ENDMDL
MODEL 3
REMARK VINA RESULT:      -7.7      3.996      8.032
REMARK  Name = 
REMARK  7 active torsions:
REMARK  status: ('A' for Active; 'I' for Inactive)
REMARK    1  A    between atoms: C_1  and  N_2
REMARK    2  A    between atoms: N_2  and  C_3
REMARK    3  A    between atoms: C_3  and  C_4
REMARK    4  A    between atoms: C_10  and  C_12
REMARK    5  A    between atoms: C_12  and  C_13
REMARK    6  A    between atoms: N_19  and  C_20
REMARK    7  A    between atoms: C_20  and  C_21
REMARK                            x       y       z     vdW  Elec       q    Type
REMARK                         _______ _______ _______ _____ _____    ______ ____
ROOT
ATOM      1  C   UNL     1       3.647   3.425  19.025  0.00  0.00    +0.000 C 
ATOM      2  C   UNL     1       3.160   1.964  18.750  0.00  0.00    +0.000 C 
ATOM      3  O   UNL     1       3.926   1.004  18.683  0.00  0.00    +0.000 OA
ATOM      4  N   UNL     1       1.831   1.710  18.593  0.00  0.00    +0.000 N 
ATOM      5  C   UNL     1       0.822   2.706  18.771  0.00  0.00    +0.000 C 
ATOM      6  C   UNL     1       1.304   3.796  19.725  0.00  0.00    +0.000 C 
ATOM      7  N   UNL     1       2.540   4.440  19.243  0.00  0.00    +0.000 NA
ATOM      8  H   UNL     1       1.590   0.740  18.432  0.00  0.00    +0.000 HD
ENDROOT
BRANCH   1   9
ATOM      9  C   UNL     1       4.764   3.725  17.993  0.00  0.00    +0.000 C 
BRANCH   9  12
ATOM     10  C   UNL     1       7.668   6.209  18.460  0.00  0.00    +0.000 C 
ATOM     11  N   UNL     1       6.809   5.248  17.776  0.00  0.00    +0.000 N 
ATOM     12  C   UNL     1       5.675   4.854  18.493  0.00  0.00    +0.000 C 
ATOM     13  O   UNL     1       5.362   5.425  19.546  0.00  0.00    +0.000 OA
BRANCH  11  14
ATOM     14  C   UNL     1       7.444   4.493  16.687  0.00  0.00    +0.000 C 
BRANCH  14  15
ATOM     15  C   UNL     1       6.877   4.807  15.285  0.00  0.00    +0.000 C 
ATOM     16  C   UNL     1       6.066   3.632  14.720  0.00  0.00    +0.000 C 
ATOM     17  C   UNL     1       5.685   3.875  13.265  0.00  0.00    +0.000 C 
ATOM     18  O   UNL     1       6.853   4.091  12.476  0.00  0.00    +0.000 OA
ATOM     19  C   UNL     1       7.552   5.268  12.875  0.00  0.00    +0.000 C 
ATOM     20  C   UNL     1       8.028   5.150  14.318  0.00  0.00    +0.000 C 
ENDBRANCH  14  15
ENDBRANCH  11  14
ENDBRANCH   9  12
ENDBRANCH   1   9
BRANCH   7  21
ATOM     21  C   UNL     1       2.296   5.469  18.223  0.00  0.00    +0.000 C 
BRANCH  21  22
ATOM     22  C   UNL     1       1.948   6.859  18.790  0.00  0.00    +0.000 A 
ATOM     23  C   UNL     1       1.830   7.971  17.934  0.00  0.00    +0.000 A 
ATOM     24  C   UNL     1       1.549   9.253  18.438  0.00  0.00    +0.000 A 
ATOM     25  C   UNL     1       1.390   9.447  19.807  0.00  0.00    +0.000 A 
ATOM     26 CL   UNL     1       1.056  11.022  20.414  0.00  0.00    +0.000 Cl
ATOM     27  C   UNL     1       1.510   8.358  20.666  0.00  0.00    +0.000 A 
ATOM     28  F   UNL     1       1.351   8.515  21.988  0.00  0.00    +0.000 F 
ATOM     29  C   UNL     1       1.795   7.080  20.171  0.00  0.00    +0.000 A 
ENDBRANCH  21  22
ENDBRANCH   7  21
TORSDOF 6
ENDMDL
MODEL 4
REMARK VINA RESULT:      -7.7      3.816      7.974
REMARK  Name = 
REMARK  7 active torsions:
REMARK  status: ('A' for Active; 'I' for Inactive)
REMARK    1  A    between atoms: C_1  and  N_2
REMARK    2  A    between atoms: N_2  and  C_3
REMARK    3  A    between atoms: C_3  and  C_4
REMARK    4  A    between atoms: C_10  and  C_12
REMARK    5  A    between atoms: C_12  and  C_13
REMARK    6  A    between atoms: N_19  and  C_20
REMARK    7  A    between atoms: C_20  and  C_21
REMARK                            x       y       z     vdW  Elec       q    Type
REMARK                         _______ _______ _______ _____ _____    ______ ____
ROOT
ATOM      1  C   UNL     1       3.641   3.398  18.931  0.00  0.00    +0.000 C 
ATOM      2  C   UNL     1       3.184   1.923  18.681  0.00  0.00    +0.000 C 
ATOM      3  O   UNL     1       3.973   0.986  18.572  0.00  0.00    +0.000 OA
ATOM      4  N   UNL     1       1.857   1.630  18.594  0.00  0.00    +0.000 N 
ATOM      5  C   UNL     1       0.830   2.595  18.827  0.00  0.00    +0.000 C 
ATOM      6  C   UNL     1       1.329   3.699  19.755  0.00  0.00    +0.000 C 
ATOM      7  N   UNL     1       2.518   4.380  19.208  0.00  0.00    +0.000 NA
ATOM      8  H   UNL     1       1.636   0.653  18.445  0.00  0.00    +0.000 HD
ENDROOT
BRANCH   1   9
ATOM      9  C   UNL     1       4.693   3.729  17.841  0.00  0.00    +0.000 C 
BRANCH   9  12
ATOM     10  C   UNL     1       7.612   6.211  18.220  0.00  0.00    +0.000 C 
ATOM     11  N   UNL     1       6.742   5.237  17.568  0.00  0.00    +0.000 N 
ATOM     12  C   UNL     1       5.614   4.866  18.305  0.00  0.00    +0.000 C 
ATOM     13  O   UNL     1       5.312   5.465  19.346  0.00  0.00    +0.000 OA
BRANCH  11  14
ATOM     14  C   UNL     1       7.364   4.452  16.493  0.00  0.00    +0.000 C 
BRANCH  14  15
ATOM     15  C   UNL     1       6.816   4.764  15.083  0.00  0.00    +0.000 C 
ATOM     16  C   UNL     1       6.013   3.589  14.509  0.00  0.00    +0.000 C 
ATOM     17  C   UNL     1       5.651   3.829  13.049  0.00  0.00    +0.000 C 
ATOM     18  O   UNL     1       6.829   4.045  12.275  0.00  0.00    +0.000 OA
ATOM     19  C   UNL     1       7.522   5.223  12.681  0.00  0.00    +0.000 C 
ATOM     20  C   UNL     1       7.980   5.107  14.131  0.00  0.00    +0.000 C 
ENDBRANCH  14  15
ENDBRANCH  11  14
ENDBRANCH   9  12
ENDBRANCH   1   9
BRANCH   7  21
ATOM     21  C   UNL     1       2.190   5.401  18.204  0.00  0.00    +0.000 C 
BRANCH  21  22
ATOM     22  C   UNL     1       1.942   6.807  18.781  0.00  0.00    +0.000 A 
ATOM     23  C   UNL     1       1.683   6.980  20.154  0.00  0.00    +0.000 A 
ATOM     24  C   UNL     1       1.417   8.252  20.692  0.00  0.00    +0.000 A 
ATOM     25  C   UNL     1       1.398   9.371  19.864  0.00  0.00    +0.000 A 
ATOM     26 CL   UNL     1       1.063  10.922  20.531  0.00  0.00    +0.000 Cl
ATOM     27  C   UNL     1       1.645   9.214  18.503  0.00  0.00    +0.000 A 
ATOM     28  F   UNL     1       1.642  10.277  17.685  0.00  0.00    +0.000 F 
ATOM     29  C   UNL     1       1.904   7.950  17.961  0.00  0.00    +0.000 A 
ENDBRANCH  21  22
ENDBRANCH   7  21
TORSDOF 6
ENDMDL
MODEL 5
REMARK VINA RESULT:      -7.6      4.150      7.959
REMARK  Name = 
REMARK  7 active torsions:
REMARK  status: ('A' for Active; 'I' for Inactive)
REMARK    1  A    between atoms: C_1  and  N_2
REMARK    2  A    between atoms: N_2  and  C_3
REMARK    3  A    between atoms: C_3  and  C_4
REMARK    4  A    between atoms: C_10  and  C_12
REMARK    5  A    between atoms: C_12  and  C_13
REMARK    6  A    between atoms: N_19  and  C_20
REMARK    7  A    between atoms: C_20  and  C_21
REMARK                            x       y       z     vdW  Elec       q    Type
REMARK                         _______ _______ _______ _____ _____    ______ ____
ROOT
ATOM      1  C   UNL     1       4.078   4.064  19.513  0.00  0.00    +0.000 C 
ATOM      2  C   UNL     1       3.557   2.606  19.732  0.00  0.00    +0.000 C 
ATOM      3  O   UNL     1       4.301   1.627  19.768  0.00  0.00    +0.000 OA
ATOM      4  N   UNL     1       2.227   2.381  19.914  0.00  0.00    +0.000 N 
ATOM      5  C   UNL     1       1.267   3.433  20.022  0.00  0.00    +0.000 C 
ATOM      6  C   UNL     1       1.924   4.709  20.542  0.00  0.00    +0.000 C 
ATOM      7  N   UNL     1       3.031   5.150  19.673  0.00  0.00    +0.000 NA
ATOM      8  H   UNL     1       1.966   1.414  20.063  0.00  0.00    +0.000 HD
ENDROOT
BRANCH   1   9
ATOM      9  C   UNL     1       4.960   4.036  18.238  0.00  0.00    +0.000 C 
BRANCH   9  12
ATOM     10  C   UNL     1       7.440   6.870  17.436  0.00  0.00    +0.000 C 
ATOM     11  N   UNL     1       6.247   6.039  17.301  0.00  0.00    +0.000 N 
ATOM     12  C   UNL     1       6.064   5.099  18.319  0.00  0.00    +0.000 C 
ATOM     13  O   UNL     1       6.778   5.113  19.331  0.00  0.00    +0.000 OA
BRANCH  11  14
ATOM     14  C   UNL     1       5.674   5.967  15.950  0.00  0.00    +0.000 C 
BRANCH  14  15
ATOM     15  C   UNL     1       6.417   5.004  14.998  0.00  0.00    +0.000 C 
ATOM     16  C   UNL     1       7.387   5.751  14.072  0.00  0.00    +0.000 C 
ATOM     17  C   UNL     1       7.959   4.822  13.008  0.00  0.00    +0.000 C 
ATOM     18  O   UNL     1       6.908   4.231  12.247  0.00  0.00    +0.000 OA
ATOM     19  C   UNL     1       6.072   3.401  13.051  0.00  0.00    +0.000 C 
ATOM     20  C   UNL     1       5.398   4.215  14.150  0.00  0.00    +0.000 C 
ENDBRANCH  14  15
ENDBRANCH  11  14
ENDBRANCH   9  12
ENDBRANCH   1   9
BRANCH   7  21
ATOM     21  C   UNL     1       2.576   5.892  18.489  0.00  0.00    +0.000 C 
BRANCH  21  22
ATOM     22  C   UNL     1       2.094   7.325  18.780  0.00  0.00    +0.000 A 
ATOM     23  C   UNL     1       2.067   8.293  17.757  0.00  0.00    +0.000 A 
ATOM     24  C   UNL     1       1.665   9.615  18.013  0.00  0.00    +0.000 A 
ATOM     25  C   UNL     1       1.291   9.996  19.298  0.00  0.00    +0.000 A 
ATOM     26 CL   UNL     1       0.809  11.620  19.603  0.00  0.00    +0.000 Cl
ATOM     27  C   UNL     1       1.318   9.052  20.322  0.00  0.00    +0.000 A 
ATOM     28  F   UNL     1       0.953   9.389  21.567  0.00  0.00    +0.000 F 
ATOM     29  C   UNL     1       1.723   7.735  20.074  0.00  0.00    +0.000 A 
ENDBRANCH  21  22
ENDBRANCH   7  21
TORSDOF 6
ENDMDL
MODEL 6
REMARK VINA RESULT:      -7.6      1.383      1.750
REMARK  Name = 
REMARK  7 active torsions:
REMARK  status: ('A' for Active; 'I' for Inactive)
REMARK    1  A    between atoms: C_1  and  N_2
REMARK    2  A    between atoms: N_2  and  C_3
REMARK    3  A    between atoms: C_3  and  C_4
REMARK    4  A    between atoms: C_10  and  C_12
REMARK    5  A    between atoms: C_12  and  C_13
REMARK    6  A    between atoms: N_19  and  C_20
REMARK    7  A    between atoms: C_20  and  C_21
REMARK                            x       y       z     vdW  Elec       q    Type
REMARK                         _______ _______ _______ _____ _____    ______ ____
ROOT
ATOM      1  C   UNL     1       2.149   4.715  18.843  0.00  0.00    +0.000 C 
ATOM      2  C   UNL     1       1.197   4.106  19.925  0.00  0.00    +0.000 C 
ATOM      3  O   UNL     1       0.375   4.777  20.548  0.00  0.00    +0.000 OA
ATOM      4  N   UNL     1       1.245   2.773  20.198  0.00  0.00    +0.000 N 
ATOM      5  C   UNL     1       2.059   1.857  19.465  0.00  0.00    +0.000 C 
ATOM      6  C   UNL     1       2.317   2.377  18.053  0.00  0.00    +0.000 C 
ATOM      7  N   UNL     1       2.967   3.700  18.066  0.00  0.00    +0.000 NA
ATOM      8  H   UNL     1       0.590   2.449  20.900  0.00  0.00    +0.000 HD
ENDROOT
BRANCH   1   9
ATOM      9  C   UNL     1       2.860   5.924  19.504  0.00  0.00    +0.000 C 
BRANCH   9  12
ATOM     10  C   UNL     1       2.115   9.321  17.851  0.00  0.00    +0.000 C 
ATOM     11  N   UNL     1       2.187   8.321  18.912  0.00  0.00    +0.000 N 
ATOM     12  C   UNL     1       2.847   7.138  18.565  0.00  0.00    +0.000 C 
ATOM     13  O   UNL     1       3.462   7.047  17.495  0.00  0.00    +0.000 OA
BRANCH  11  14
ATOM     14  C   UNL     1       1.204   8.473  19.994  0.00  0.00    +0.000 C 
BRANCH  14  15
ATOM     15  C   UNL     1       0.681   9.914  20.177  0.00  0.00    +0.000 C 
ATOM     16  C   UNL     1       0.546  10.289  21.660  0.00  0.00    +0.000 C 
ATOM     17  C   UNL     1      -0.156  11.631  21.827  0.00  0.00    +0.000 C 
ATOM     18  O   UNL     1      -1.440  11.599  21.208  0.00  0.00    +0.000 OA
ATOM     19  C   UNL     1      -1.345  11.407  19.798  0.00  0.00    +0.000 C 
ATOM     20  C   UNL     1      -0.684  10.070  19.479  0.00  0.00    +0.000 C 
ENDBRANCH  14  15
ENDBRANCH  11  14
ENDBRANCH   9  12
ENDBRANCH   1   9
BRANCH   7  21
ATOM     21  C   UNL     1       4.419   3.629  18.282  0.00  0.00    +0.000 C 
BRANCH  21  22
ATOM     22  C   UNL     1       5.266   4.128  17.096  0.00  0.00    +0.000 A 
ATOM     23  C   UNL     1       5.188   3.489  15.844  0.00  0.00    +0.000 A 
ATOM     24  C   UNL     1       5.981   3.908  14.761  0.00  0.00    +0.000 A 
ATOM     25  C   UNL     1       6.872   4.966  14.914  0.00  0.00    +0.000 A 
ATOM     26 CL   UNL     1       7.844   5.465  13.584  0.00  0.00    +0.000 Cl
ATOM     27  C   UNL     1       6.964   5.603  16.148  0.00  0.00    +0.000 A 
ATOM     28  F   UNL     1       7.807   6.632  16.320  0.00  0.00    +0.000 F 
ATOM     29  C   UNL     1       6.182   5.187  17.232  0.00  0.00    +0.000 A 
ENDBRANCH  21  22
ENDBRANCH   7  21
TORSDOF 6
ENDMDL
MODEL 7
REMARK VINA RESULT:      -7.5      3.961      7.754
REMARK  Name = 
REMARK  7 active torsions:
REMARK  status: ('A' for Active; 'I' for Inactive)
REMARK    1  A    between atoms: C_1  and  N_2
REMARK    2  A    between atoms: N_2  and  C_3
REMARK    3  A    between atoms: C_3  and  C_4
REMARK    4  A    between atoms: C_10  and  C_12
REMARK    5  A    between atoms: C_12  and  C_13
REMARK    6  A    between atoms: N_19  and  C_20
REMARK    7  A    between atoms: C_20  and  C_21
REMARK                            x       y       z     vdW  Elec       q    Type
REMARK                         _______ _______ _______ _____ _____    ______ ____
ROOT
ATOM      1  C   UNL     1       4.294   4.107  19.941  0.00  0.00    +0.000 C 
ATOM      2  C   UNL     1       4.028   2.590  20.214  0.00  0.00    +0.000 C 
ATOM      3  O   UNL     1       4.919   1.742  20.210  0.00  0.00    +0.000 OA
ATOM      4  N   UNL     1       2.765   2.161  20.491  0.00  0.00    +0.000 N 
ATOM      5  C   UNL     1       1.660   3.051  20.653  0.00  0.00    +0.000 C 
ATOM      6  C   UNL     1       2.138   4.427  21.110  0.00  0.00    +0.000 C 
ATOM      7  N   UNL     1       3.100   5.017  20.160  0.00  0.00    +0.000 NA
ATOM      8  H   UNL     1       2.673   1.169  20.671  0.00  0.00    +0.000 HD
ENDROOT
BRANCH   1   9
ATOM      9  C   UNL     1       5.082   4.188  18.608  0.00  0.00    +0.000 C 
BRANCH   9  12
ATOM     10  C   UNL     1       7.590   7.009  17.849  0.00  0.00    +0.000 C 
ATOM     11  N   UNL     1       6.385   6.198  17.708  0.00  0.00    +0.000 N 
ATOM     12  C   UNL     1       6.201   5.234  18.703  0.00  0.00    +0.000 C 
ATOM     13  O   UNL     1       6.927   5.213  19.706  0.00  0.00    +0.000 OA
BRANCH  11  14
ATOM     14  C   UNL     1       5.795   6.169  16.362  0.00  0.00    +0.000 C 
BRANCH  14  15
ATOM     15  C   UNL     1       6.454   5.154  15.403  0.00  0.00    +0.000 C 
ATOM     16  C   UNL     1       7.352   5.845  14.367  0.00  0.00    +0.000 C 
ATOM     17  C   UNL     1       7.833   4.860  13.310  0.00  0.00    +0.000 C 
ATOM     18  O   UNL     1       6.721   4.243  12.664  0.00  0.00    +0.000 OA
ATOM     19  C   UNL     1       5.949   3.460  13.572  0.00  0.00    +0.000 C 
ATOM     20  C   UNL     1       5.368   4.333  14.678  0.00  0.00    +0.000 C 
ENDBRANCH  14  15
ENDBRANCH  11  14
ENDBRANCH   9  12
ENDBRANCH   1   9
BRANCH   7  21
ATOM     21  C   UNL     1       2.454   5.649  19.001  0.00  0.00    +0.000 C 
BRANCH  21  22
ATOM     22  C   UNL     1       2.067   7.125  19.213  0.00  0.00    +0.000 A 
ATOM     23  C   UNL     1       1.515   7.550  20.437  0.00  0.00    +0.000 A 
ATOM     24  C   UNL     1       1.121   8.885  20.635  0.00  0.00    +0.000 A 
ATOM     25  C   UNL     1       1.264   9.816  19.611  0.00  0.00    +0.000 A 
ATOM     26 CL   UNL     1       0.771  11.446  19.861  0.00  0.00    +0.000 Cl
ATOM     27  C   UNL     1       1.803   9.409  18.393  0.00  0.00    +0.000 A 
ATOM     28  F   UNL     1       1.961  10.287  17.392  0.00  0.00    +0.000 F 
ATOM     29  C   UNL     1       2.191   8.080  18.188  0.00  0.00    +0.000 A 
ENDBRANCH  21  22
ENDBRANCH   7  21
TORSDOF 6
ENDMDL
MODEL 8
REMARK VINA RESULT:      -7.3      1.074      1.348
REMARK  Name = 
REMARK  7 active torsions:
REMARK  status: ('A' for Active; 'I' for Inactive)
REMARK    1  A    between atoms: C_1  and  N_2
REMARK    2  A    between atoms: N_2  and  C_3
REMARK    3  A    between atoms: C_3  and  C_4
REMARK    4  A    between atoms: C_10  and  C_12
REMARK    5  A    between atoms: C_12  and  C_13
REMARK    6  A    between atoms: N_19  and  C_20
REMARK    7  A    between atoms: C_20  and  C_21
REMARK                            x       y       z     vdW  Elec       q    Type
REMARK                         _______ _______ _______ _____ _____    ______ ____
ROOT
ATOM      1  C   UNL     1       2.197   4.717  18.876  0.00  0.00    +0.000 C 
ATOM      2  C   UNL     1       1.316   3.901  19.878  0.00  0.00    +0.000 C 
ATOM      3  O   UNL     1       0.413   4.407  20.543  0.00  0.00    +0.000 OA
ATOM      4  N   UNL     1       1.522   2.563  20.030  0.00  0.00    +0.000 N 
ATOM      5  C   UNL     1       2.448   1.824  19.232  0.00  0.00    +0.000 C 
ATOM      6  C   UNL     1       2.654   2.500  17.879  0.00  0.00    +0.000 C 
ATOM      7  N   UNL     1       3.139   3.885  18.026  0.00  0.00    +0.000 NA
ATOM      8  H   UNL     1       0.905   2.100  20.685  0.00  0.00    +0.000 HD
ENDROOT
BRANCH   1   9
ATOM      9  C   UNL     1       2.750   5.936  19.658  0.00  0.00    +0.000 C 
BRANCH   9  12
ATOM     10  C   UNL     1       1.433   9.449  18.792  0.00  0.00    +0.000 C 
ATOM     11  N   UNL     1       1.878   8.342  19.632  0.00  0.00    +0.000 N 
ATOM     12  C   UNL     1       2.399   7.246  18.939  0.00  0.00    +0.000 C 
ATOM     13  O   UNL     1       2.614   7.311  17.721  0.00  0.00    +0.000 OA
BRANCH  11  14
ATOM     14  C   UNL     1       1.321   8.314  20.992  0.00  0.00    +0.000 C 
BRANCH  14  15
ATOM     15  C   UNL     1       0.290   9.429  21.277  0.00  0.00    +0.000 C 
ATOM     16  C   UNL     1       0.916  10.827  21.171  0.00  0.00    +0.000 C 
ATOM     17  C   UNL     1      -0.052  11.902  21.648  0.00  0.00    +0.000 C 
ATOM     18  O   UNL     1      -0.458  11.644  22.990  0.00  0.00    +0.000 OA
ATOM     19  C   UNL     1      -1.182  10.421  23.100  0.00  0.00    +0.000 C 
ATOM     20  C   UNL     1      -0.313   9.239  22.683  0.00  0.00    +0.000 C 
ENDBRANCH  14  15
ENDBRANCH  11  14
ENDBRANCH   9  12
ENDBRANCH   1   9
BRANCH   7  21
ATOM     21  C   UNL     1       4.587   3.968  18.264  0.00  0.00    +0.000 C 
BRANCH  21  22
ATOM     22  C   UNL     1       5.416   4.352  17.024  0.00  0.00    +0.000 A 
ATOM     23  C   UNL     1       5.335   3.585  15.845  0.00  0.00    +0.000 A 
ATOM     24  C   UNL     1       6.113   3.899  14.717  0.00  0.00    +0.000 A 
ATOM     25  C   UNL     1       6.991   4.978  14.750  0.00  0.00    +0.000 A 
ATOM     26 CL   UNL     1       7.945   5.347  13.366  0.00  0.00    +0.000 Cl
ATOM     27  C   UNL     1       7.086   5.741  15.911  0.00  0.00    +0.000 A 
ATOM     28  F   UNL     1       7.917   6.792  15.966  0.00  0.00    +0.000 F 
ATOM     29  C   UNL     1       6.319   5.430  17.040  0.00  0.00    +0.000 A 
ENDBRANCH  21  22
ENDBRANCH   7  21
TORSDOF 6
ENDMDL
MODEL 9
REMARK VINA RESULT:      -7.3      1.091      1.424
REMARK  Name = 
REMARK  7 active torsions:
REMARK  status: ('A' for Active; 'I' for Inactive)
REMARK    1  A    between atoms: C_1  and  N_2
REMARK    2  A    between atoms: N_2  and  C_3
REMARK    3  A    between atoms: C_3  and  C_4
REMARK    4  A    between atoms: C_10  and  C_12
REMARK    5  A    between atoms: C_12  and  C_13
REMARK    6  A    between atoms: N_19  and  C_20
REMARK    7  A    between atoms: C_20  and  C_21
REMARK                            x       y       z     vdW  Elec       q    Type
REMARK                         _______ _______ _______ _____ _____    ______ ____
ROOT
ATOM      1  C   UNL     1       2.799   5.652  18.645  0.00  0.00    +0.000 C 
ATOM      2  C   UNL     1       2.440   4.919  19.979  0.00  0.00    +0.000 C 
ATOM      3  O   UNL     1       1.659   5.383  20.809  0.00  0.00    +0.000 OA
ATOM      4  N   UNL     1       2.987   3.703  20.255  0.00  0.00    +0.000 N 
ATOM      5  C   UNL     1       3.808   2.991  19.327  0.00  0.00    +0.000 C 
ATOM      6  C   UNL     1       3.473   3.394  17.893  0.00  0.00    +0.000 C 
ATOM      7  N   UNL     1       3.642   4.843  17.676  0.00  0.00    +0.000 NA
ATOM      8  H   UNL     1       2.698   3.284  21.130  0.00  0.00    +0.000 HD
ENDROOT
BRANCH   1   9
ATOM      9  C   UNL     1       3.242   7.087  19.028  0.00  0.00    +0.000 C 
BRANCH   9  12
ATOM     10  C   UNL     1       0.594   9.784  18.295  0.00  0.00    +0.000 C 
ATOM     11  N   UNL     1       1.509   8.968  19.087  0.00  0.00    +0.000 N 
ATOM     12  C   UNL     1       2.347   8.130  18.346  0.00  0.00    +0.000 C 
ATOM     13  O   UNL     1       2.406   8.225  17.113  0.00  0.00    +0.000 OA
BRANCH  11  14
ATOM     14  C   UNL     1       1.134   8.782  20.497  0.00  0.00    +0.000 C 
BRANCH  14  15
ATOM     15  C   UNL     1       0.129   9.828  21.028  0.00  0.00    +0.000 C 
ATOM     16  C   UNL     1       0.727  11.242  21.037  0.00  0.00    +0.000 C 
ATOM     17  C   UNL     1      -0.196  12.225  21.746  0.00  0.00    +0.000 C 
ATOM     18  O   UNL     1      -0.454  11.791  23.080  0.00  0.00    +0.000 OA
ATOM     19  C   UNL     1      -1.151  10.547  23.106  0.00  0.00    +0.000 C 
ATOM     20  C   UNL     1      -0.320   9.448  22.453  0.00  0.00    +0.000 C 
ENDBRANCH  14  15
ENDBRANCH  11  14
ENDBRANCH   9  12
ENDBRANCH   1   9
BRANCH   7  21
ATOM     21  C   UNL     1       5.039   5.233  17.438  0.00  0.00    +0.000 C 
BRANCH  21  22
ATOM     22  C   UNL     1       5.554   4.926  16.020  0.00  0.00    +0.000 A 
ATOM     23  C   UNL     1       4.809   4.106  15.151  0.00  0.00    +0.000 A 
ATOM     24  C   UNL     1       5.282   3.784  13.866  0.00  0.00    +0.000 A 
ATOM     25  C   UNL     1       6.512   4.270  13.432  0.00  0.00    +0.000 A 
ATOM     26 CL   UNL     1       7.086   3.863  11.861  0.00  0.00    +0.000 Cl
ATOM     27  C   UNL     1       7.263   5.076  14.283  0.00  0.00    +0.000 A 
ATOM     28  F   UNL     1       8.447   5.566  13.886  0.00  0.00    +0.000 F 
ATOM     29  C   UNL     1       6.800   5.395  15.565  0.00  0.00    +0.000 A 
ENDBRANCH  21  22
ENDBRANCH   7  21
TORSDOF 6
ENDMDL
