MODEL 1
REMARK VINA RESULT:      -7.9      0.000      0.000
REMARK  Name = 
REMARK  13 active torsions:
REMARK  status: ('A' for Active; 'I' for Inactive)
REMARK    1  A    between atoms: C_1  and  C_2
REMARK    2  A    between atoms: C_2  and  C_3
REMARK    3  A    between atoms: C_3  and  C_4
REMARK    4  A    between atoms: C_4  and  C_5
REMARK    5  A    between atoms: C_4  and  C_6
REMARK    6  A    between atoms: C_6  and  O_7
REMARK    7  A    between atoms: O_7  and  C_8
REMARK    8  A    between atoms: C_11  and  C_12
REMARK    9  A    between atoms: C_12  and  N_13
REMARK   10  A    between atoms: C_12  and  C_24
REMARK   11  A    between atoms: C_14  and  C_16
REMARK   12  A    between atoms: C_16  and  C_17
REMARK   13  A    between atoms: C_16  and  C_18
REMARK                            x       y       z     vdW  Elec       q    Type
REMARK                         _______ _______ _______ _____ _____    ______ ____
ROOT
ATOM      1  C   UNL     1       6.997   6.065  17.311  0.00  0.00    +0.000 C 
ENDROOT
BRANCH   1   5
ATOM      2  C   UNL     1       2.990   5.481  18.879  0.00  0.00    +0.000 A 
ATOM      3  C   UNL     1       4.113   4.960  19.517  0.00  0.00    +0.000 A 
ATOM      4  C   UNL     1       5.388   5.211  19.017  0.00  0.00    +0.000 A 
ATOM      5  C   UNL     1       5.583   5.983  17.862  0.00  0.00    +0.000 A 
ATOM      6  C   UNL     1       4.454   6.519  17.229  0.00  0.00    +0.000 A 
ATOM      7  C   UNL     1       3.168   6.274  17.742  0.00  0.00    +0.000 A 
BRANCH   2   8
ATOM      8  O   UNL     1       1.694   5.258  19.272  0.00  0.00    +0.000 OA
BRANCH   8   9
ATOM      9  C   UNL     1       1.535   4.818  20.626  0.00  0.00    +0.000 C 
BRANCH   9  10
ATOM     10  C   UNL     1       0.916   3.414  20.679  0.00  0.00    +0.000 C 
ATOM     11  C   UNL     1       1.692   2.574  21.700  0.00  0.00    +0.000 C 
BRANCH  10  12
ATOM     12  C   UNL     1       0.921   2.773  19.279  0.00  0.00    +0.000 C 
BRANCH  12  14
ATOM     13  C   UNL     1       2.730   2.128  17.652  0.00  0.00    +0.000 C 
ATOM     14  C   UNL     1       2.135   1.876  19.029  0.00  0.00    +0.000 C 
ENDBRANCH  12  14
ENDBRANCH  10  12
ENDBRANCH   9  10
ENDBRANCH   8   9
ENDBRANCH   2   8
ENDBRANCH   1   5
BRANCH   1  15
ATOM     15  C   UNL     1       7.847   7.248  17.810  0.00  0.00    +0.000 C 
ATOM     16  N   UNL     1       8.451   7.106  19.027  0.00  0.00    +0.000 N 
ATOM     17  O   UNL     1       8.045   8.265  17.143  0.00  0.00    +0.000 OA
ATOM     18  H   UNL     1       8.133   6.425  19.705  0.00  0.00    +0.000 HD
ATOM     19  H   UNL     1       9.002   7.888  19.359  0.00  0.00    +0.000 HD
ENDBRANCH   1  15
BRANCH   1  20
ATOM     20  N   UNL     1       6.960   6.125  15.856  0.00  0.00    +0.000 N 
ATOM     21  C   UNL     1       6.954   4.994  15.074  0.00  0.00    +0.000 C 
ATOM     22  O   UNL     1       6.917   3.861  15.548  0.00  0.00    +0.000 OA
ATOM     23  H   UNL     1       7.134   7.033  15.440  0.00  0.00    +0.000 HD
BRANCH  21  24
ATOM     24  C   UNL     1       6.992   5.271  13.569  0.00  0.00    +0.000 C 
ATOM     25  C   UNL     1       8.412   5.662  13.151  0.00  0.00    +0.000 C 
BRANCH  24  26
ATOM     26  C   UNL     1       6.480   4.089  12.759  0.00  0.00    +0.000 A 
ATOM     27  C   UNL     1       5.101   3.880  12.610  0.00  0.00    +0.000 A 
ATOM     28  C   UNL     1       4.621   2.806  11.856  0.00  0.00    +0.000 A 
ATOM     29  C   UNL     1       5.508   1.932  11.243  0.00  0.00    +0.000 A 
ATOM     30  C   UNL     1       6.883   2.125  11.377  0.00  0.00    +0.000 A 
ATOM     31  C   UNL     1       7.366   3.197  12.133  0.00  0.00    +0.000 A 
ENDBRANCH  24  26
ENDBRANCH  21  24
ENDBRANCH   1  20
TORSDOF 10
ENDMDL
MODEL 2
REMARK VINA RESULT:      -7.8      0.643      1.115
REMARK  Name = 
REMARK  13 active torsions:
REMARK  status: ('A' for Active; 'I' for Inactive)
REMARK    1  A    between atoms: C_1  and  C_2
REMARK    2  A    between atoms: C_2  and  C_3
REMARK    3  A    between atoms: C_3  and  C_4
REMARK    4  A    between atoms: C_4  and  C_5
REMARK    5  A    between atoms: C_4  and  C_6
REMARK    6  A    between atoms: C_6  and  O_7
REMARK    7  A    between atoms: O_7  and  C_8
REMARK    8  A    between atoms: C_11  and  C_12
REMARK    9  A    between atoms: C_12  and  N_13
REMARK   10  A    between atoms: C_12  and  C_24
REMARK   11  A    between atoms: C_14  and  C_16
REMARK   12  A    between atoms: C_16  and  C_17
REMARK   13  A    between atoms: C_16  and  C_18
REMARK                            x       y       z     vdW  Elec       q    Type
REMARK                         _______ _______ _______ _____ _____    ______ ____
ROOT
ATOM      1  C   UNL     1       6.861   5.856  17.261  0.00  0.00    +0.000 C 
ENDROOT
BRANCH   1   5
ATOM      2  C   UNL     1       2.864   5.447  18.908  0.00  0.00    +0.000 A 
ATOM      3  C   UNL     1       3.999   5.110  19.641  0.00  0.00    +0.000 A 
ATOM      4  C   UNL     1       5.268   5.304  19.102  0.00  0.00    +0.000 A 
ATOM      5  C   UNL     1       5.446   5.832  17.816  0.00  0.00    +0.000 A 
ATOM      6  C   UNL     1       4.304   6.184  17.085  0.00  0.00    +0.000 A 
ATOM      7  C   UNL     1       3.023   5.998  17.634  0.00  0.00    +0.000 A 
BRANCH   2   8
ATOM      8  O   UNL     1       1.573   5.257  19.335  0.00  0.00    +0.000 OA
BRANCH   8   9
ATOM      9  C   UNL     1       1.439   4.831  20.697  0.00  0.00    +0.000 C 
BRANCH   9  10
ATOM     10  C   UNL     1       1.036   3.351  20.772  0.00  0.00    +0.000 C 
ATOM     11  C   UNL     1       2.113   2.589  21.553  0.00  0.00    +0.000 C 
BRANCH  10  12
ATOM     12  C   UNL     1       0.833   2.779  19.358  0.00  0.00    +0.000 C 
BRANCH  12  14
ATOM     13  C   UNL     1       2.593   2.218  17.649  0.00  0.00    +0.000 C 
ATOM     14  C   UNL     1       1.922   1.788  18.944  0.00  0.00    +0.000 C 
ENDBRANCH  12  14
ENDBRANCH  10  12
ENDBRANCH   9  10
ENDBRANCH   8   9
ENDBRANCH   2   8
ENDBRANCH   1   5
BRANCH   1  15
ATOM     15  C   UNL     1       7.772   6.979  17.789  0.00  0.00    +0.000 C 
ATOM     16  N   UNL     1       7.797   8.143  17.074  0.00  0.00    +0.000 N 
ATOM     17  O   UNL     1       8.414   6.890  18.837  0.00  0.00    +0.000 OA
ATOM     18  H   UNL     1       7.498   8.183  16.108  0.00  0.00    +0.000 HD
ATOM     19  H   UNL     1       8.403   8.878  17.417  0.00  0.00    +0.000 HD
ENDBRANCH   1  15
BRANCH   1  20
ATOM     20  N   UNL     1       6.824   5.956  15.809  0.00  0.00    +0.000 N 
ATOM     21  C   UNL     1       6.830   4.848  14.996  0.00  0.00    +0.000 C 
ATOM     22  O   UNL     1       6.805   3.701  15.438  0.00  0.00    +0.000 OA
ATOM     23  H   UNL     1       6.988   6.877  15.419  0.00  0.00    +0.000 HD
BRANCH  21  24
ATOM     24  C   UNL     1       6.865   5.166  13.499  0.00  0.00    +0.000 C 
ATOM     25  C   UNL     1       8.266   5.646  13.106  0.00  0.00    +0.000 C 
BRANCH  24  26
ATOM     26  C   UNL     1       6.427   3.982  12.652  0.00  0.00    +0.000 A 
ATOM     27  C   UNL     1       7.385   3.144  12.061  0.00  0.00    +0.000 A 
ATOM     28  C   UNL     1       6.992   2.044  11.292  0.00  0.00    +0.000 A 
ATOM     29  C   UNL     1       5.644   1.768  11.108  0.00  0.00    +0.000 A 
ATOM     30  C   UNL     1       4.677   2.588  11.690  0.00  0.00    +0.000 A 
ATOM     31  C   UNL     1       5.067   3.690  12.456  0.00  0.00    +0.000 A 
ENDBRANCH  24  26
ENDBRANCH  21  24
ENDBRANCH   1  20
TORSDOF 10
ENDMDL
MODEL 3
REMARK VINA RESULT:      -7.4      1.818      7.048
REMARK  Name = 
REMARK  13 active torsions:
REMARK  status: ('A' for Active; 'I' for Inactive)
REMARK    1  A    between atoms: C_1  and  C_2
REMARK    2  A    between atoms: C_2  and  C_3
REMARK    3  A    between atoms: C_3  and  C_4
REMARK    4  A    between atoms: C_4  and  C_5
REMARK    5  A    between atoms: C_4  and  C_6
REMARK    6  A    between atoms: C_6  and  O_7
REMARK    7  A    between atoms: O_7  and  C_8
REMARK    8  A    between atoms: C_11  and  C_12
REMARK    9  A    between atoms: C_12  and  N_13
REMARK   10  A    between atoms: C_12  and  C_24
REMARK   11  A    between atoms: C_14  and  C_16
REMARK   12  A    between atoms: C_16  and  C_17
REMARK   13  A    between atoms: C_16  and  C_18
REMARK                            x       y       z     vdW  Elec       q    Type
REMARK                         _______ _______ _______ _____ _____    ______ ____
ROOT
ATOM      1  C   UNL     1       6.231   6.133  17.902  0.00  0.00    +0.000 C 
ENDROOT
BRANCH   1   5
ATOM      2  C   UNL     1       6.323   4.121  14.055  0.00  0.00    +0.000 A 
ATOM      3  C   UNL     1       7.308   5.029  14.434  0.00  0.00    +0.000 A 
ATOM      4  C   UNL     1       7.278   5.616  15.695  0.00  0.00    +0.000 A 
ATOM      5  C   UNL     1       6.262   5.323  16.616  0.00  0.00    +0.000 A 
ATOM      6  C   UNL     1       5.279   4.398  16.241  0.00  0.00    +0.000 A 
ATOM      7  C   UNL     1       5.317   3.797  14.970  0.00  0.00    +0.000 A 
BRANCH   2   8
ATOM      8  O   UNL     1       6.244   3.520  12.823  0.00  0.00    +0.000 OA
BRANCH   8   9
ATOM      9  C   UNL     1       5.069   3.837  12.066  0.00  0.00    +0.000 C 
BRANCH   9  10
ATOM     10  C   UNL     1       4.400   2.562  11.532  0.00  0.00    +0.000 C 
ATOM     11  C   UNL     1       5.493   1.584  11.086  0.00  0.00    +0.000 C 
BRANCH  10  12
ATOM     12  C   UNL     1       3.428   2.905  10.389  0.00  0.00    +0.000 C 
BRANCH  12  14
ATOM     13  C   UNL     1       2.312   4.701   9.025  0.00  0.00    +0.000 C 
ATOM     14  C   UNL     1       3.375   4.400  10.070  0.00  0.00    +0.000 C 
ENDBRANCH  12  14
ENDBRANCH  10  12
ENDBRANCH   9  10
ENDBRANCH   8   9
ENDBRANCH   2   8
ENDBRANCH   1   5
BRANCH   1  15
ATOM     15  C   UNL     1       7.566   6.244  18.661  0.00  0.00    +0.000 C 
ATOM     16  N   UNL     1       8.000   5.126  19.316  0.00  0.00    +0.000 N 
ATOM     17  O   UNL     1       8.267   7.257  18.648  0.00  0.00    +0.000 OA
ATOM     18  H   UNL     1       7.370   4.373  19.563  0.00  0.00    +0.000 HD
ATOM     19  H   UNL     1       8.873   5.203  19.822  0.00  0.00    +0.000 HD
ENDBRANCH   1  15
BRANCH   1  20
ATOM     20  N   UNL     1       5.243   5.578  18.816  0.00  0.00    +0.000 N 
ATOM     21  C   UNL     1       3.963   6.071  18.902  0.00  0.00    +0.000 C 
ATOM     22  O   UNL     1       3.548   6.971  18.173  0.00  0.00    +0.000 OA
ATOM     23  H   UNL     1       5.593   4.940  19.522  0.00  0.00    +0.000 HD
BRANCH  21  24
ATOM     24  C   UNL     1       3.102   5.402  19.976  0.00  0.00    +0.000 C 
ATOM     25  C   UNL     1       1.977   6.351  20.402  0.00  0.00    +0.000 C 
BRANCH  24  26
ATOM     26  C   UNL     1       2.552   4.061  19.514  0.00  0.00    +0.000 A 
ATOM     27  C   UNL     1       3.428   3.033  19.134  0.00  0.00    +0.000 A 
ATOM     28  C   UNL     1       2.934   1.793  18.721  0.00  0.00    +0.000 A 
ATOM     29  C   UNL     1       1.564   1.564  18.685  0.00  0.00    +0.000 A 
ATOM     30  C   UNL     1       0.678   2.574  19.063  0.00  0.00    +0.000 A 
ATOM     31  C   UNL     1       1.170   3.816  19.472  0.00  0.00    +0.000 A 
ENDBRANCH  24  26
ENDBRANCH  21  24
ENDBRANCH   1  20
TORSDOF 10
ENDMDL
MODEL 4
REMARK VINA RESULT:      -7.2      3.593      6.158
REMARK  Name = 
REMARK  13 active torsions:
REMARK  status: ('A' for Active; 'I' for Inactive)
REMARK    1  A    between atoms: C_1  and  C_2
REMARK    2  A    between atoms: C_2  and  C_3
REMARK    3  A    between atoms: C_3  and  C_4
REMARK    4  A    between atoms: C_4  and  C_5
REMARK    5  A    between atoms: C_4  and  C_6
REMARK    6  A    between atoms: C_6  and  O_7
REMARK    7  A    between atoms: O_7  and  C_8
REMARK    8  A    between atoms: C_11  and  C_12
REMARK    9  A    between atoms: C_12  and  N_13
REMARK   10  A    between atoms: C_12  and  C_24
REMARK   11  A    between atoms: C_14  and  C_16
REMARK   12  A    between atoms: C_16  and  C_17
REMARK   13  A    between atoms: C_16  and  C_18
REMARK                            x       y       z     vdW  Elec       q    Type
REMARK                         _______ _______ _______ _____ _____    ______ ____
ROOT
ATOM      1  C   UNL     1       3.036   3.706  17.823  0.00  0.00    +0.000 C 
ENDROOT
BRANCH   1   5
ATOM      2  C   UNL     1       1.933   7.134  20.249  0.00  0.00    +0.000 A 
ATOM      3  C   UNL     1       2.428   7.277  18.955  0.00  0.00    +0.000 A 
ATOM      4  C   UNL     1       2.722   6.155  18.185  0.00  0.00    +0.000 A 
ATOM      5  C   UNL     1       2.539   4.857  18.682  0.00  0.00    +0.000 A 
ATOM      6  C   UNL     1       2.027   4.713  19.978  0.00  0.00    +0.000 A 
ATOM      7  C   UNL     1       1.721   5.848  20.751  0.00  0.00    +0.000 A 
BRANCH   2   8
ATOM      8  O   UNL     1       1.652   8.176  21.098  0.00  0.00    +0.000 OA
BRANCH   8   9
ATOM      9  C   UNL     1       0.443   8.888  20.807  0.00  0.00    +0.000 C 
BRANCH   9  10
ATOM     10  C   UNL     1       0.312  10.133  21.696  0.00  0.00    +0.000 C 
ATOM     11  C   UNL     1      -0.468   9.754  22.960  0.00  0.00    +0.000 C 
BRANCH  10  12
ATOM     12  C   UNL     1      -0.365  11.277  20.920  0.00  0.00    +0.000 C 
BRANCH  12  14
ATOM     13  C   UNL     1      -1.294  12.032  18.706  0.00  0.00    +0.000 C 
ATOM     14  C   UNL     1      -0.945  10.835  19.576  0.00  0.00    +0.000 C 
ENDBRANCH  12  14
ENDBRANCH  10  12
ENDBRANCH   9  10
ENDBRANCH   8   9
ENDBRANCH   2   8
ENDBRANCH   1   5
BRANCH   1  15
ATOM     15  C   UNL     1       2.834   2.295  18.406  0.00  0.00    +0.000 C 
ATOM     16  N   UNL     1       1.566   1.789  18.376  0.00  0.00    +0.000 N 
ATOM     17  O   UNL     1       3.760   1.602  18.830  0.00  0.00    +0.000 OA
ATOM     18  H   UNL     1       0.754   2.386  18.276  0.00  0.00    +0.000 HD
ATOM     19  H   UNL     1       1.432   0.865  18.767  0.00  0.00    +0.000 HD
ENDBRANCH   1  15
BRANCH   1  20
ATOM     20  N   UNL     1       4.455   3.873  17.541  0.00  0.00    +0.000 N 
ATOM     21  C   UNL     1       4.928   4.123  16.275  0.00  0.00    +0.000 C 
ATOM     22  O   UNL     1       4.185   4.283  15.309  0.00  0.00    +0.000 OA
ATOM     23  H   UNL     1       5.094   3.607  18.282  0.00  0.00    +0.000 HD
BRANCH  21  24
ATOM     24  C   UNL     1       6.454   4.190  16.176  0.00  0.00    +0.000 C 
ATOM     25  C   UNL     1       6.868   4.397  14.716  0.00  0.00    +0.000 C 
BRANCH  24  26
ATOM     26  C   UNL     1       7.039   5.267  17.077  0.00  0.00    +0.000 A 
ATOM     27  C   UNL     1       7.578   4.926  18.326  0.00  0.00    +0.000 A 
ATOM     28  C   UNL     1       8.130   5.906  19.156  0.00  0.00    +0.000 A 
ATOM     29  C   UNL     1       8.152   7.234  18.748  0.00  0.00    +0.000 A 
ATOM     30  C   UNL     1       7.623   7.592  17.508  0.00  0.00    +0.000 A 
ATOM     31  C   UNL     1       7.067   6.614  16.679  0.00  0.00    +0.000 A 
ENDBRANCH  24  26
ENDBRANCH  21  24
ENDBRANCH   1  20
TORSDOF 10
ENDMDL
MODEL 5
REMARK VINA RESULT:      -7.2      3.291      6.004
REMARK  Name = 
REMARK  13 active torsions:
REMARK  status: ('A' for Active; 'I' for Inactive)
REMARK    1  A    between atoms: C_1  and  C_2
REMARK    2  A    between atoms: C_2  and  C_3
REMARK    3  A    between atoms: C_3  and  C_4
REMARK    4  A    between atoms: C_4  and  C_5
REMARK    5  A    between atoms: C_4  and  C_6
REMARK    6  A    between atoms: C_6  and  O_7
REMARK    7  A    between atoms: O_7  and  C_8
REMARK    8  A    between atoms: C_11  and  C_12
REMARK    9  A    between atoms: C_12  and  N_13
REMARK   10  A    between atoms: C_12  and  C_24
REMARK   11  A    between atoms: C_14  and  C_16
REMARK   12  A    between atoms: C_16  and  C_17
REMARK   13  A    between atoms: C_16  and  C_18
REMARK                            x       y       z     vdW  Elec       q    Type
REMARK                         _______ _______ _______ _____ _____    ______ ____
ROOT
ATOM      1  C   UNL     1       3.647   3.440  18.219  0.00  0.00    +0.000 C 
ENDROOT
BRANCH   1   5
ATOM      2  C   UNL     1       1.596   6.512  20.501  0.00  0.00    +0.000 A 
ATOM      3  C   UNL     1       1.396   5.156  20.748  0.00  0.00    +0.000 A 
ATOM      4  C   UNL     1       2.110   4.198  20.034  0.00  0.00    +0.000 A 
ATOM      5  C   UNL     1       3.039   4.559  19.047  0.00  0.00    +0.000 A 
ATOM      6  C   UNL     1       3.250   5.924  18.809  0.00  0.00    +0.000 A 
ATOM      7  C   UNL     1       2.536   6.891  19.539  0.00  0.00    +0.000 A 
BRANCH   2   8
ATOM      8  O   UNL     1       0.914   7.529  21.122  0.00  0.00    +0.000 OA
BRANCH   8   9
ATOM      9  C   UNL     1       1.312   8.851  20.740  0.00  0.00    +0.000 C 
BRANCH   9  10
ATOM     10  C   UNL     1       0.233   9.522  19.876  0.00  0.00    +0.000 C 
ATOM     11  C   UNL     1       0.894  10.080  18.611  0.00  0.00    +0.000 C 
BRANCH  10  12
ATOM     12  C   UNL     1      -0.494  10.614  20.681  0.00  0.00    +0.000 C 
BRANCH  12  14
ATOM     13  C   UNL     1      -1.220  10.958  23.066  0.00  0.00    +0.000 C 
ATOM     14  C   UNL     1      -0.043  10.692  22.140  0.00  0.00    +0.000 C 
ENDBRANCH  12  14
ENDBRANCH  10  12
ENDBRANCH   9  10
ENDBRANCH   8   9
ENDBRANCH   2   8
ENDBRANCH   1   5
BRANCH   1  15
ATOM     15  C   UNL     1       3.769   2.074  18.919  0.00  0.00    +0.000 C 
ATOM     16  N   UNL     1       4.808   1.917  19.792  0.00  0.00    +0.000 N 
ATOM     17  O   UNL     1       2.952   1.164  18.769  0.00  0.00    +0.000 OA
ATOM     18  H   UNL     1       5.624   2.516  19.765  0.00  0.00    +0.000 HD
ATOM     19  H   UNL     1       4.893   1.015  20.244  0.00  0.00    +0.000 HD
ENDBRANCH   1  15
BRANCH   1  20
ATOM     20  N   UNL     1       4.973   3.826  17.758  0.00  0.00    +0.000 N 
ATOM     21  C   UNL     1       5.264   4.012  16.428  0.00  0.00    +0.000 C 
ATOM     22  O   UNL     1       4.413   3.925  15.544  0.00  0.00    +0.000 OA
ATOM     23  H   UNL     1       5.720   3.765  18.441  0.00  0.00    +0.000 HD
BRANCH  21  24
ATOM     24  C   UNL     1       6.732   4.340  16.145  0.00  0.00    +0.000 C 
ATOM     25  C   UNL     1       6.902   4.719  14.671  0.00  0.00    +0.000 C 
BRANCH  24  26
ATOM     26  C   UNL     1       7.261   5.431  17.063  0.00  0.00    +0.000 A 
ATOM     27  C   UNL     1       7.200   6.776  16.668  0.00  0.00    +0.000 A 
ATOM     28  C   UNL     1       7.670   7.788  17.510  0.00  0.00    +0.000 A 
ATOM     29  C   UNL     1       8.203   7.470  18.753  0.00  0.00    +0.000 A 
ATOM     30  C   UNL     1       8.269   6.139  19.164  0.00  0.00    +0.000 A 
ATOM     31  C   UNL     1       7.803   5.126  18.322  0.00  0.00    +0.000 A 
ENDBRANCH  24  26
ENDBRANCH  21  24
ENDBRANCH   1  20
TORSDOF 10
ENDMDL
MODEL 6
REMARK VINA RESULT:      -7.2      3.243      5.979
REMARK  Name = 
REMARK  13 active torsions:
REMARK  status: ('A' for Active; 'I' for Inactive)
REMARK    1  A    between atoms: C_1  and  C_2
REMARK    2  A    between atoms: C_2  and  C_3
REMARK    3  A    between atoms: C_3  and  C_4
REMARK    4  A    between atoms: C_4  and  C_5
REMARK    5  A    between atoms: C_4  and  C_6
REMARK    6  A    between atoms: C_6  and  O_7
REMARK    7  A    between atoms: O_7  and  C_8
REMARK    8  A    between atoms: C_11  and  C_12
REMARK    9  A    between atoms: C_12  and  N_13
REMARK   10  A    between atoms: C_12  and  C_24
REMARK   11  A    between atoms: C_14  and  C_16
REMARK   12  A    between atoms: C_16  and  C_17
REMARK   13  A    between atoms: C_16  and  C_18
REMARK                            x       y       z     vdW  Elec       q    Type
REMARK                         _______ _______ _______ _____ _____    ______ ____
ROOT
ATOM      1  C   UNL     1       3.730   3.220  18.074  0.00  0.00    +0.000 C 
ENDROOT
BRANCH   1   5
ATOM      2  C   UNL     1       1.925   6.471  20.316  0.00  0.00    +0.000 A 
ATOM      3  C   UNL     1       2.968   6.687  19.419  0.00  0.00    +0.000 A 
ATOM      4  C   UNL     1       3.488   5.630  18.677  0.00  0.00    +0.000 A 
ATOM      5  C   UNL     1       2.991   4.326  18.810  0.00  0.00    +0.000 A 
ATOM      6  C   UNL     1       1.932   4.112  19.702  0.00  0.00    +0.000 A 
ATOM      7  C   UNL     1       1.400   5.182  20.443  0.00  0.00    +0.000 A 
BRANCH   2   8
ATOM      8  O   UNL     1       1.372   7.438  21.120  0.00  0.00    +0.000 OA
BRANCH   8   9
ATOM      9  C   UNL     1       1.569   8.785  20.674  0.00  0.00    +0.000 C 
BRANCH   9  10
ATOM     10  C   UNL     1       0.346   9.290  19.894  0.00  0.00    +0.000 C 
ATOM     11  C   UNL     1       0.809   9.775  18.515  0.00  0.00    +0.000 C 
BRANCH  10  12
ATOM     12  C   UNL     1      -0.375  10.396  20.685  0.00  0.00    +0.000 C 
BRANCH  12  14
ATOM     13  C   UNL     1      -1.186  11.106  22.959  0.00  0.00    +0.000 C 
ATOM     14  C   UNL     1      -0.140  10.311  22.194  0.00  0.00    +0.000 C 
ENDBRANCH  12  14
ENDBRANCH  10  12
ENDBRANCH   9  10
ENDBRANCH   8   9
ENDBRANCH   2   8
ENDBRANCH   1   5
BRANCH   1  15
ATOM     15  C   UNL     1       3.962   1.921  18.869  0.00  0.00    +0.000 C 
ATOM     16  N   UNL     1       4.894   1.964  19.867  0.00  0.00    +0.000 N 
ATOM     17  O   UNL     1       3.312   0.891  18.681  0.00  0.00    +0.000 OA
ATOM     18  H   UNL     1       5.609   2.679  19.899  0.00  0.00    +0.000 HD
ATOM     19  H   UNL     1       5.052   1.107  20.382  0.00  0.00    +0.000 HD
ENDBRANCH   1  15
BRANCH   1  20
ATOM     20  N   UNL     1       5.026   3.704  17.621  0.00  0.00    +0.000 N 
ATOM     21  C   UNL     1       5.297   3.949  16.296  0.00  0.00    +0.000 C 
ATOM     22  O   UNL     1       4.448   3.836  15.414  0.00  0.00    +0.000 OA
ATOM     23  H   UNL     1       5.779   3.669  18.299  0.00  0.00    +0.000 HD
BRANCH  21  24
ATOM     24  C   UNL     1       6.740   4.379  16.018  0.00  0.00    +0.000 C 
ATOM     25  C   UNL     1       6.866   4.859  14.570  0.00  0.00    +0.000 C 
BRANCH  24  26
ATOM     26  C   UNL     1       7.219   5.438  16.999  0.00  0.00    +0.000 A 
ATOM     27  C   UNL     1       7.686   5.065  18.269  0.00  0.00    +0.000 A 
ATOM     28  C   UNL     1       8.141   6.030  19.172  0.00  0.00    +0.000 A 
ATOM     29  C   UNL     1       8.139   7.373  18.819  0.00  0.00    +0.000 A 
ATOM     30  C   UNL     1       7.681   7.762  17.559  0.00  0.00    +0.000 A 
ATOM     31  C   UNL     1       7.222   6.800  16.656  0.00  0.00    +0.000 A 
ENDBRANCH  24  26
ENDBRANCH  21  24
ENDBRANCH   1  20
TORSDOF 10
ENDMDL
MODEL 7
REMARK VINA RESULT:      -7.2      3.694      6.190
REMARK  Name = 
REMARK  13 active torsions:
REMARK  status: ('A' for Active; 'I' for Inactive)
REMARK    1  A    between atoms: C_1  and  C_2
REMARK    2  A    between atoms: C_2  and  C_3
REMARK    3  A    between atoms: C_3  and  C_4
REMARK    4  A    between atoms: C_4  and  C_5
REMARK    5  A    between atoms: C_4  and  C_6
REMARK    6  A    between atoms: C_6  and  O_7
REMARK    7  A    between atoms: O_7  and  C_8
REMARK    8  A    between atoms: C_11  and  C_12
REMARK    9  A    between atoms: C_12  and  N_13
REMARK   10  A    between atoms: C_12  and  C_24
REMARK   11  A    between atoms: C_14  and  C_16
REMARK   12  A    between atoms: C_16  and  C_17
REMARK   13  A    between atoms: C_16  and  C_18
REMARK                            x       y       z     vdW  Elec       q    Type
REMARK                         _______ _______ _______ _____ _____    ______ ____
ROOT
ATOM      1  C   UNL     1       3.218   3.776  18.101  0.00  0.00    +0.000 C 
ENDROOT
BRANCH   1   5
ATOM      2  C   UNL     1       1.931   7.588  19.735  0.00  0.00    +0.000 A 
ATOM      3  C   UNL     1       2.475   7.482  18.457  0.00  0.00    +0.000 A 
ATOM      4  C   UNL     1       2.828   6.237  17.944  0.00  0.00    +0.000 A 
ATOM      5  C   UNL     1       2.657   5.061  18.688  0.00  0.00    +0.000 A 
ATOM      6  C   UNL     1       2.096   5.167  19.968  0.00  0.00    +0.000 A 
ATOM      7  C   UNL     1       1.730   6.424  20.481  0.00  0.00    +0.000 A 
BRANCH   2   8
ATOM      8  O   UNL     1       1.589   8.770  20.344  0.00  0.00    +0.000 OA
BRANCH   8   9
ATOM      9  C   UNL     1       1.028   8.639  21.656  0.00  0.00    +0.000 C 
BRANCH   9  10
ATOM     10  C   UNL     1       0.332   9.938  22.088  0.00  0.00    +0.000 C 
ATOM     11  C   UNL     1      -0.513   9.650  23.334  0.00  0.00    +0.000 C 
BRANCH  10  12
ATOM     12  C   UNL     1      -0.513  10.504  20.932  0.00  0.00    +0.000 C 
BRANCH  12  14
ATOM     13  C   UNL     1      -1.781  12.676  21.008  0.00  0.00    +0.000 C 
ATOM     14  C   UNL     1      -0.422  12.025  20.805  0.00  0.00    +0.000 C 
ENDBRANCH  12  14
ENDBRANCH  10  12
ENDBRANCH   9  10
ENDBRANCH   8   9
ENDBRANCH   2   8
ENDBRANCH   1   5
BRANCH   1  15
ATOM     15  C   UNL     1       3.142   2.532  19.005  0.00  0.00    +0.000 C 
ATOM     16  N   UNL     1       2.077   1.697  18.820  0.00  0.00    +0.000 N 
ATOM     17  O   UNL     1       4.014   2.241  19.824  0.00  0.00    +0.000 OA
ATOM     18  H   UNL     1       1.231   2.005  18.356  0.00  0.00    +0.000 HD
ATOM     19  H   UNL     1       2.023   0.885  19.422  0.00  0.00    +0.000 HD
ENDBRANCH   1  15
BRANCH   1  20
ATOM     20  N   UNL     1       4.611   3.969  17.723  0.00  0.00    +0.000 N 
ATOM     21  C   UNL     1       5.014   4.042  16.411  0.00  0.00    +0.000 C 
ATOM     22  O   UNL     1       4.221   4.012  15.471  0.00  0.00    +0.000 OA
ATOM     23  H   UNL     1       5.295   3.855  18.462  0.00  0.00    +0.000 HD
BRANCH  21  24
ATOM     24  C   UNL     1       6.527   4.170  16.224  0.00  0.00    +0.000 C 
ATOM     25  C   UNL     1       6.847   4.404  14.745  0.00  0.00    +0.000 C 
BRANCH  24  26
ATOM     26  C   UNL     1       7.121   5.262  17.100  0.00  0.00    +0.000 A 
ATOM     27  C   UNL     1       7.098   6.599  16.673  0.00  0.00    +0.000 A 
ATOM     28  C   UNL     1       7.628   7.613  17.477  0.00  0.00    +0.000 A 
ATOM     29  C   UNL     1       8.184   7.305  18.712  0.00  0.00    +0.000 A 
ATOM     30  C   UNL     1       8.213   5.982  19.154  0.00  0.00    +0.000 A 
ATOM     31  C   UNL     1       7.687   4.967  18.351  0.00  0.00    +0.000 A 
ENDBRANCH  24  26
ENDBRANCH  21  24
ENDBRANCH   1  20
TORSDOF 10
ENDMDL
MODEL 8
REMARK VINA RESULT:      -7.0      3.564      6.233
REMARK  Name = 
REMARK  13 active torsions:
REMARK  status: ('A' for Active; 'I' for Inactive)
REMARK    1  A    between atoms: C_1  and  C_2
REMARK    2  A    between atoms: C_2  and  C_3
REMARK    3  A    between atoms: C_3  and  C_4
REMARK    4  A    between atoms: C_4  and  C_5
REMARK    5  A    between atoms: C_4  and  C_6
REMARK    6  A    between atoms: C_6  and  O_7
REMARK    7  A    between atoms: O_7  and  C_8
REMARK    8  A    between atoms: C_11  and  C_12
REMARK    9  A    between atoms: C_12  and  N_13
REMARK   10  A    between atoms: C_12  and  C_24
REMARK   11  A    between atoms: C_14  and  C_16
REMARK   12  A    between atoms: C_16  and  C_17
REMARK   13  A    between atoms: C_16  and  C_18
REMARK                            x       y       z     vdW  Elec       q    Type
REMARK                         _______ _______ _______ _____ _____    ______ ____
ROOT
ATOM      1  C   UNL     1       3.450   3.865  18.375  0.00  0.00    +0.000 C 
ENDROOT
BRANCH   1   5
ATOM      2  C   UNL     1       1.890   7.686  19.726  0.00  0.00    +0.000 A 
ATOM      3  C   UNL     1       2.494   7.537  18.480  0.00  0.00    +0.000 A 
ATOM      4  C   UNL     1       2.935   6.287  18.056  0.00  0.00    +0.000 A 
ATOM      5  C   UNL     1       2.796   5.148  18.862  0.00  0.00    +0.000 A 
ATOM      6  C   UNL     1       2.174   5.295  20.109  0.00  0.00    +0.000 A 
ATOM      7  C   UNL     1       1.719   6.557  20.532  0.00  0.00    +0.000 A 
BRANCH   2   8
ATOM      8  O   UNL     1       1.458   8.880  20.248  0.00  0.00    +0.000 OA
BRANCH   8   9
ATOM      9  C   UNL     1       0.944   9.813  19.290  0.00  0.00    +0.000 C 
BRANCH   9  10
ATOM     10  C   UNL     1       0.195  10.959  19.986  0.00  0.00    +0.000 C 
ATOM     11  C   UNL     1       1.224  11.918  20.596  0.00  0.00    +0.000 C 
BRANCH  10  12
ATOM     12  C   UNL     1      -0.775  10.401  21.044  0.00  0.00    +0.000 C 
BRANCH  12  14
ATOM     13  C   UNL     1      -1.628  11.472  23.155  0.00  0.00    +0.000 C 
ATOM     14  C   UNL     1      -0.430  10.836  22.469  0.00  0.00    +0.000 C 
ENDBRANCH  12  14
ENDBRANCH  10  12
ENDBRANCH   9  10
ENDBRANCH   8   9
ENDBRANCH   2   8
ENDBRANCH   1   5
BRANCH   1  15
ATOM     15  C   UNL     1       3.567   2.733  19.412  0.00  0.00    +0.000 C 
ATOM     16  N   UNL     1       4.812   2.476  19.911  0.00  0.00    +0.000 N 
ATOM     17  O   UNL     1       2.595   2.109  19.841  0.00  0.00    +0.000 OA
ATOM     18  H   UNL     1       5.652   2.773  19.429  0.00  0.00    +0.000 HD
ATOM     19  H   UNL     1       4.889   1.725  20.586  0.00  0.00    +0.000 HD
ENDBRANCH   1  15
BRANCH   1  20
ATOM     20  N   UNL     1       4.787   4.149  17.872  0.00  0.00    +0.000 N 
ATOM     21  C   UNL     1       5.119   4.003  16.546  0.00  0.00    +0.000 C 
ATOM     22  O   UNL     1       4.299   3.682  15.688  0.00  0.00    +0.000 OA
ATOM     23  H   UNL     1       5.511   4.274  18.570  0.00  0.00    +0.000 HD
BRANCH  21  24
ATOM     24  C   UNL     1       6.592   4.277  16.234  0.00  0.00    +0.000 C 
ATOM     25  C   UNL     1       6.752   4.606  14.746  0.00  0.00    +0.000 C 
BRANCH  24  26
ATOM     26  C   UNL     1       7.167   5.379  17.111  0.00  0.00    +0.000 A 
ATOM     27  C   UNL     1       7.159   6.710  16.667  0.00  0.00    +0.000 A 
ATOM     28  C   UNL     1       7.672   7.732  17.471  0.00  0.00    +0.000 A 
ATOM     29  C   UNL     1       8.195   7.438  18.723  0.00  0.00    +0.000 A 
ATOM     30  C   UNL     1       8.208   6.121  19.183  0.00  0.00    +0.000 A 
ATOM     31  C   UNL     1       7.699   5.097  18.379  0.00  0.00    +0.000 A 
ENDBRANCH  24  26
ENDBRANCH  21  24
ENDBRANCH   1  20
TORSDOF 10
ENDMDL
MODEL 9
REMARK VINA RESULT:      -7.0      3.178      8.359
REMARK  Name = 
REMARK  13 active torsions:
REMARK  status: ('A' for Active; 'I' for Inactive)
REMARK    1  A    between atoms: C_1  and  C_2
REMARK    2  A    between atoms: C_2  and  C_3
REMARK    3  A    between atoms: C_3  and  C_4
REMARK    4  A    between atoms: C_4  and  C_5
REMARK    5  A    between atoms: C_4  and  C_6
REMARK    6  A    between atoms: C_6  and  O_7
REMARK    7  A    between atoms: O_7  and  C_8
REMARK    8  A    between atoms: C_11  and  C_12
REMARK    9  A    between atoms: C_12  and  N_13
REMARK   10  A    between atoms: C_12  and  C_24
REMARK   11  A    between atoms: C_14  and  C_16
REMARK   12  A    between atoms: C_16  and  C_17
REMARK   13  A    between atoms: C_16  and  C_18
REMARK                            x       y       z     vdW  Elec       q    Type
REMARK                         _______ _______ _______ _____ _____    ______ ____
ROOT
ATOM      1  C   UNL     1       6.473   4.972  17.660  0.00  0.00    +0.000 C 
ENDROOT
BRANCH   1   5
ATOM      2  C   UNL     1       8.174   8.921  18.264  0.00  0.00    +0.000 A 
ATOM      3  C   UNL     1       8.634   7.807  18.962  0.00  0.00    +0.000 A 
ATOM      4  C   UNL     1       8.103   6.546  18.705  0.00  0.00    +0.000 A 
ATOM      5  C   UNL     1       7.093   6.356  17.752  0.00  0.00    +0.000 A 
ATOM      6  C   UNL     1       6.640   7.475  17.039  0.00  0.00    +0.000 A 
ATOM      7  C   UNL     1       7.185   8.746  17.292  0.00  0.00    +0.000 A 
BRANCH   2   8
ATOM      8  O   UNL     1       8.605  10.208  18.472  0.00  0.00    +0.000 OA
BRANCH   8   9
ATOM      9  C   UNL     1       9.498  10.378  19.580  0.00  0.00    +0.000 C 
BRANCH   9  10
ATOM     10  C   UNL     1      10.743  11.175  19.163  0.00  0.00    +0.000 C 
ATOM     11  C   UNL     1      11.101  12.151  20.290  0.00  0.00    +0.000 C 
BRANCH  10  12
ATOM     12  C   UNL     1      10.495  11.898  17.827  0.00  0.00    +0.000 C 
BRANCH  12  14
ATOM     13  C   UNL     1       8.671  13.630  17.916  0.00  0.00    +0.000 C 
ATOM     14  C   UNL     1      10.170  13.383  17.996  0.00  0.00    +0.000 C 
ENDBRANCH  12  14
ENDBRANCH  10  12
ENDBRANCH   9  10
ENDBRANCH   8   9
ENDBRANCH   2   8
ENDBRANCH   1   5
BRANCH   1  15
ATOM     15  C   UNL     1       6.643   4.245  16.313  0.00  0.00    +0.000 C 
ATOM     16  N   UNL     1       5.739   3.264  16.020  0.00  0.00    +0.000 N 
ATOM     17  O   UNL     1       7.503   4.551  15.486  0.00  0.00    +0.000 OA
ATOM     18  H   UNL     1       5.187   2.814  16.740  0.00  0.00    +0.000 HD
ATOM     19  H   UNL     1       5.857   2.780  15.139  0.00  0.00    +0.000 HD
ENDBRANCH   1  15
BRANCH   1  20
ATOM     20  N   UNL     1       5.047   5.045  17.951  0.00  0.00    +0.000 N 
ATOM     21  C   UNL     1       4.457   4.281  18.929  0.00  0.00    +0.000 C 
ATOM     22  O   UNL     1       5.099   3.532  19.663  0.00  0.00    +0.000 OA
ATOM     23  H   UNL     1       4.477   5.540  17.274  0.00  0.00    +0.000 HD
BRANCH  21  24
ATOM     24  C   UNL     1       2.939   4.448  19.026  0.00  0.00    +0.000 C 
ATOM     25  C   UNL     1       2.403   3.632  20.207  0.00  0.00    +0.000 C 
BRANCH  24  26
ATOM     26  C   UNL     1       2.530   5.910  19.131  0.00  0.00    +0.000 A 
ATOM     27  C   UNL     1       2.610   6.747  18.007  0.00  0.00    +0.000 A 
ATOM     28  C   UNL     1       2.224   8.087  18.089  0.00  0.00    +0.000 A 
ATOM     29  C   UNL     1       1.755   8.606  19.288  0.00  0.00    +0.000 A 
ATOM     30  C   UNL     1       1.666   7.789  20.415  0.00  0.00    +0.000 A 
ATOM     31  C   UNL     1       2.054   6.449  20.336  0.00  0.00    +0.000 A 
ENDBRANCH  24  26
ENDBRANCH  21  24
ENDBRANCH   1  20
TORSDOF 10
ENDMDL
