MODEL 1
REMARK VINA RESULT:      -8.9      0.000      0.000
REMARK  Name = 
REMARK  6 active torsions:
REMARK  status: ('A' for Active; 'I' for Inactive)
REMARK    1  A    between atoms: C_1  and  C_2
REMARK    2  A    between atoms: C_8  and  N_9
REMARK    3  A    between atoms: N_12  and  C_13
REMARK    4  A    between atoms: C_15  and  O_16
REMARK    5  A    between atoms: O_16  and  C_17
REMARK    6  A    between atoms: C_20  and  C_21
REMARK                            x       y       z     vdW  Elec       q    Type
REMARK                         _______ _______ _______ _____ _____    ______ ____
ROOT
ATOM      1  C   UNL     1       7.204   6.917  18.027  0.00  0.00    +0.000 C 
ATOM      2  C   UNL     1       7.566   6.318  16.649  0.00  0.00    +0.000 C 
ATOM      3  C   UNL     1       6.639   5.132  16.999  0.00  0.00    +0.000 C 
ATOM      4  C   UNL     1       6.919   5.478  18.492  0.00  0.00    +0.000 C 
ENDROOT
BRANCH   1   8
ATOM      5  N   UNL     1       9.489   9.609  19.097  0.00  0.00    +0.000 N 
ATOM      6  C   UNL     1       8.422   9.002  18.458  0.00  0.00    +0.000 C 
ATOM      7  O   UNL     1       7.605   9.567  17.735  0.00  0.00    +0.000 OA
ATOM      8  N   UNL     1       8.320   7.644  18.682  0.00  0.00    +0.000 N 
ATOM      9  H   UNL     1       9.977   9.073  19.797  0.00  0.00    +0.000 HD
ATOM     10  H   UNL     1       8.814   7.247  19.467  0.00  0.00    +0.000 HD
BRANCH   5  18
ATOM     11  C   UNL     1       9.052  11.502  21.347  0.00  0.00    +0.000 C 
ATOM     12  C   UNL     1       9.619  11.900  20.012  0.00  0.00    +0.000 A 
ATOM     13  C   UNL     1       9.953  13.261  19.827  0.00  0.00    +0.000 A 
ATOM     14  C   UNL     1      10.481  13.716  18.623  0.00  0.00    +0.000 A 
ATOM     15  C   UNL     1      10.711  12.811  17.606  0.00  0.00    +0.000 A 
ATOM     16  F   UNL     1      11.237  13.234  16.448  0.00  0.00    +0.000 F 
ATOM     17  C   UNL     1      10.409  11.466  17.768  0.00  0.00    +0.000 A 
ATOM     18  C   UNL     1       9.837  10.983  18.956  0.00  0.00    +0.000 A 
ENDBRANCH   5  18
ENDBRANCH   1   8
BRANCH   3  19
ATOM     19  O   UNL     1       5.273   5.276  16.537  0.00  0.00    +0.000 OA
BRANCH  19  20
ATOM     20  C   UNL     1       4.274   4.645  17.235  0.00  0.00    +0.000 A 
ATOM     21  C   UNL     1       3.311   5.472  17.818  0.00  0.00    +0.000 A 
ATOM     22  C   UNL     1       2.252   4.919  18.545  0.00  0.00    +0.000 A 
ATOM     23  C   UNL     1       2.140   3.528  18.687  0.00  0.00    +0.000 A 
ATOM     24  C   UNL     1       3.099   2.708  18.074  0.00  0.00    +0.000 A 
ATOM     25  C   UNL     1       4.156   3.262  17.350  0.00  0.00    +0.000 A 
BRANCH  23  26
ATOM     26  C   UNL     1       1.019   2.897  19.474  0.00  0.00    +0.000 C 
ATOM     27  F   UNL     1       1.441   2.024  20.430  0.00  0.00    +0.000 F 
ATOM     28  F   UNL     1       0.254   3.820  20.121  0.00  0.00    +0.000 F 
ATOM     29  F   UNL     1       0.163   2.195  18.680  0.00  0.00    +0.000 F 
ENDBRANCH  23  26
ENDBRANCH  19  20
ENDBRANCH   3  19
TORSDOF 5
ENDMDL
MODEL 2
REMARK VINA RESULT:      -8.9      0.071      1.178
REMARK  Name = 
REMARK  6 active torsions:
REMARK  status: ('A' for Active; 'I' for Inactive)
REMARK    1  A    between atoms: C_1  and  C_2
REMARK    2  A    between atoms: C_8  and  N_9
REMARK    3  A    between atoms: N_12  and  C_13
REMARK    4  A    between atoms: C_15  and  O_16
REMARK    5  A    between atoms: O_16  and  C_17
REMARK    6  A    between atoms: C_20  and  C_21
REMARK                            x       y       z     vdW  Elec       q    Type
REMARK                         _______ _______ _______ _____ _____    ______ ____
ROOT
ATOM      1  C   UNL     1       7.215   6.919  18.035  0.00  0.00    +0.000 C 
ATOM      2  C   UNL     1       7.630   6.238  16.711  0.00  0.00    +0.000 C 
ATOM      3  C   UNL     1       6.654   5.096  17.074  0.00  0.00    +0.000 C 
ATOM      4  C   UNL     1       6.867   5.514  18.560  0.00  0.00    +0.000 C 
ENDROOT
BRANCH   1   8
ATOM      5  N   UNL     1       9.487   9.617  19.118  0.00  0.00    +0.000 N 
ATOM      6  C   UNL     1       8.434   9.004  18.460  0.00  0.00    +0.000 C 
ATOM      7  O   UNL     1       7.644   9.559  17.700  0.00  0.00    +0.000 OA
ATOM      8  N   UNL     1       8.316   7.652  18.709  0.00  0.00    +0.000 N 
ATOM      9  H   UNL     1       9.949   9.092  19.844  0.00  0.00    +0.000 HD
ATOM     10  H   UNL     1       8.783   7.268  19.517  0.00  0.00    +0.000 HD
BRANCH   5  18
ATOM     11  C   UNL     1       9.071  11.543  21.345  0.00  0.00    +0.000 C 
ATOM     12  C   UNL     1       9.641  11.918  20.004  0.00  0.00    +0.000 A 
ATOM     13  C   UNL     1       9.989  13.273  19.802  0.00  0.00    +0.000 A 
ATOM     14  C   UNL     1      10.521  13.707  18.591  0.00  0.00    +0.000 A 
ATOM     15  C   UNL     1      10.740  12.787  17.586  0.00  0.00    +0.000 A 
ATOM     16  F   UNL     1      11.270  13.190  16.422  0.00  0.00    +0.000 F 
ATOM     17  C   UNL     1      10.424  11.447  17.766  0.00  0.00    +0.000 A 
ATOM     18  C   UNL     1       9.849  10.985  18.959  0.00  0.00    +0.000 A 
ENDBRANCH   5  18
ENDBRANCH   1   8
BRANCH   3  19
ATOM     19  O   UNL     1       5.317   5.249  16.534  0.00  0.00    +0.000 OA
BRANCH  19  20
ATOM     20  C   UNL     1       4.259   4.748  17.250  0.00  0.00    +0.000 A 
ATOM     21  C   UNL     1       4.140   3.357  17.282  0.00  0.00    +0.000 A 
ATOM     22  C   UNL     1       3.096   2.753  17.991  0.00  0.00    +0.000 A 
ATOM     23  C   UNL     1       2.165   3.539  18.686  0.00  0.00    +0.000 A 
ATOM     24  C   UNL     1       2.312   4.934  18.668  0.00  0.00    +0.000 A 
ATOM     25  C   UNL     1       3.354   5.534  17.958  0.00  0.00    +0.000 A 
BRANCH  23  26
ATOM     26  C   UNL     1       1.018   2.924  19.450  0.00  0.00    +0.000 C 
ATOM     27  F   UNL     1       0.247   3.831  20.110  0.00  0.00    +0.000 F 
ATOM     28  F   UNL     1       0.170   2.228  18.643  0.00  0.00    +0.000 F 
ATOM     29  F   UNL     1       1.444   2.039  20.394  0.00  0.00    +0.000 F 
ENDBRANCH  23  26
ENDBRANCH  19  20
ENDBRANCH   3  19
TORSDOF 5
ENDMDL
MODEL 3
REMARK VINA RESULT:      -8.3      1.750      2.287
REMARK  Name = 
REMARK  6 active torsions:
REMARK  status: ('A' for Active; 'I' for Inactive)
REMARK    1  A    between atoms: C_1  and  C_2
REMARK    2  A    between atoms: C_8  and  N_9
REMARK    3  A    between atoms: N_12  and  C_13
REMARK    4  A    between atoms: C_15  and  O_16
REMARK    5  A    between atoms: O_16  and  C_17
REMARK    6  A    between atoms: C_20  and  C_21
REMARK                            x       y       z     vdW  Elec       q    Type
REMARK                         _______ _______ _______ _____ _____    ______ ____
ROOT
ATOM      1  C   UNL     1       7.143   6.938  17.249  0.00  0.00    +0.000 C 
ATOM      2  C   UNL     1       5.635   6.748  16.966  0.00  0.00    +0.000 C 
ATOM      3  C   UNL     1       5.998   5.392  16.320  0.00  0.00    +0.000 C 
ATOM      4  C   UNL     1       7.407   6.004  16.055  0.00  0.00    +0.000 C 
ENDROOT
BRANCH   1   8
ATOM      5  N   UNL     1       8.758  10.169  17.999  0.00  0.00    +0.000 N 
ATOM      6  C   UNL     1       8.369   8.852  18.171  0.00  0.00    +0.000 C 
ATOM      7  O   UNL     1       8.641   8.144  19.138  0.00  0.00    +0.000 OA
ATOM      8  N   UNL     1       7.606   8.344  17.139  0.00  0.00    +0.000 N 
ATOM      9  H   UNL     1       8.621  10.579  17.089  0.00  0.00    +0.000 HD
ATOM     10  H   UNL     1       7.614   8.824  16.252  0.00  0.00    +0.000 HD
BRANCH   5  18
ATOM     11  C   UNL     1      11.322  11.474  17.248  0.00  0.00    +0.000 C 
ATOM     12  C   UNL     1      10.718  11.538  18.624  0.00  0.00    +0.000 A 
ATOM     13  C   UNL     1      11.426  12.260  19.611  0.00  0.00    +0.000 A 
ATOM     14  C   UNL     1      10.941  12.368  20.911  0.00  0.00    +0.000 A 
ATOM     15  C   UNL     1       9.729  11.786  21.225  0.00  0.00    +0.000 A 
ATOM     16  F   UNL     1       9.242  11.900  22.470  0.00  0.00    +0.000 F 
ATOM     17  C   UNL     1       9.005  11.088  20.269  0.00  0.00    +0.000 A 
ATOM     18  C   UNL     1       9.487  10.925  18.962  0.00  0.00    +0.000 A 
ENDBRANCH   5  18
ENDBRANCH   1   8
BRANCH   3  19
ATOM     19  O   UNL     1       5.936   4.258  17.221  0.00  0.00    +0.000 OA
BRANCH  19  20
ATOM     20  C   UNL     1       4.733   3.950  17.805  0.00  0.00    +0.000 A 
ATOM     21  C   UNL     1       4.712   3.937  19.202  0.00  0.00    +0.000 A 
ATOM     22  C   UNL     1       3.529   3.639  19.888  0.00  0.00    +0.000 A 
ATOM     23  C   UNL     1       2.351   3.361  19.180  0.00  0.00    +0.000 A 
ATOM     24  C   UNL     1       2.380   3.404  17.778  0.00  0.00    +0.000 A 
ATOM     25  C   UNL     1       3.561   3.700  17.096  0.00  0.00    +0.000 A 
BRANCH  23  26
ATOM     26  C   UNL     1       1.061   3.023  19.885  0.00  0.00    +0.000 C 
ATOM     27  F   UNL     1       1.217   2.188  20.949  0.00  0.00    +0.000 F 
ATOM     28  F   UNL     1       0.426   4.128  20.365  0.00  0.00    +0.000 F 
ATOM     29  F   UNL     1       0.167   2.411  19.058  0.00  0.00    +0.000 F 
ENDBRANCH  23  26
ENDBRANCH  19  20
ENDBRANCH   3  19
TORSDOF 5
ENDMDL
MODEL 4
REMARK VINA RESULT:      -8.3      1.744      2.415
REMARK  Name = 
REMARK  6 active torsions:
REMARK  status: ('A' for Active; 'I' for Inactive)
REMARK    1  A    between atoms: C_1  and  C_2
REMARK    2  A    between atoms: C_8  and  N_9
REMARK    3  A    between atoms: N_12  and  C_13
REMARK    4  A    between atoms: C_15  and  O_16
REMARK    5  A    between atoms: O_16  and  C_17
REMARK    6  A    between atoms: C_20  and  C_21
REMARK                            x       y       z     vdW  Elec       q    Type
REMARK                         _______ _______ _______ _____ _____    ______ ____
ROOT
ATOM      1  C   UNL     1       7.102   7.030  17.302  0.00  0.00    +0.000 C 
ATOM      2  C   UNL     1       5.585   6.826  17.087  0.00  0.00    +0.000 C 
ATOM      3  C   UNL     1       5.935   5.492  16.388  0.00  0.00    +0.000 C 
ATOM      4  C   UNL     1       7.320   6.132  16.071  0.00  0.00    +0.000 C 
ENDROOT
BRANCH   1   8
ATOM      5  N   UNL     1       8.721  10.259  18.053  0.00  0.00    +0.000 N 
ATOM      6  C   UNL     1       8.359   8.932  18.206  0.00  0.00    +0.000 C 
ATOM      7  O   UNL     1       8.698   8.200  19.133  0.00  0.00    +0.000 OA
ATOM      8  N   UNL     1       7.540   8.445  17.207  0.00  0.00    +0.000 N 
ATOM      9  H   UNL     1       8.524  10.695  17.165  0.00  0.00    +0.000 HD
ATOM     10  H   UNL     1       7.488   8.952  16.337  0.00  0.00    +0.000 HD
BRANCH   5  18
ATOM     11  C   UNL     1      11.343  11.409  17.252  0.00  0.00    +0.000 C 
ATOM     12  C   UNL     1      10.756  11.535  18.630  0.00  0.00    +0.000 A 
ATOM     13  C   UNL     1      11.510  12.239  19.596  0.00  0.00    +0.000 A 
ATOM     14  C   UNL     1      11.044  12.402  20.897  0.00  0.00    +0.000 A 
ATOM     15  C   UNL     1       9.806  11.892  21.234  0.00  0.00    +0.000 A 
ATOM     16  F   UNL     1       9.337  12.058  22.480  0.00  0.00    +0.000 F 
ATOM     17  C   UNL     1       9.037  11.212  20.300  0.00  0.00    +0.000 A 
ATOM     18  C   UNL     1       9.498  10.996  18.992  0.00  0.00    +0.000 A 
ENDBRANCH   5  18
ENDBRANCH   1   8
BRANCH   3  19
ATOM     19  O   UNL     1       5.931   4.334  17.259  0.00  0.00    +0.000 OA
BRANCH  19  20
ATOM     20  C   UNL     1       4.776   4.022  17.931  0.00  0.00    +0.000 A 
ATOM     21  C   UNL     1       3.676   3.678  17.141  0.00  0.00    +0.000 A 
ATOM     22  C   UNL     1       2.456   3.340  17.736  0.00  0.00    +0.000 A 
ATOM     23  C   UNL     1       2.328   3.331  19.132  0.00  0.00    +0.000 A 
ATOM     24  C   UNL     1       3.447   3.652  19.915  0.00  0.00    +0.000 A 
ATOM     25  C   UNL     1       4.663   3.991  19.319  0.00  0.00    +0.000 A 
BRANCH  23  26
ATOM     26  C   UNL     1       1.025   2.985  19.809  0.00  0.00    +0.000 C 
ATOM     27  F   UNL     1       0.131   2.359  18.995  0.00  0.00    +0.000 F 
ATOM     28  F   UNL     1       1.199   2.160  20.879  0.00  0.00    +0.000 F 
ATOM     29  F   UNL     1       0.385   4.087  20.290  0.00  0.00    +0.000 F 
ENDBRANCH  23  26
ENDBRANCH  19  20
ENDBRANCH   3  19
TORSDOF 5
ENDMDL
MODEL 5
REMARK VINA RESULT:      -8.0      7.731     10.404
REMARK  Name = 
REMARK  6 active torsions:
REMARK  status: ('A' for Active; 'I' for Inactive)
REMARK    1  A    between atoms: C_1  and  C_2
REMARK    2  A    between atoms: C_8  and  N_9
REMARK    3  A    between atoms: N_12  and  C_13
REMARK    4  A    between atoms: C_15  and  O_16
REMARK    5  A    between atoms: O_16  and  C_17
REMARK    6  A    between atoms: C_20  and  C_21
REMARK                            x       y       z     vdW  Elec       q    Type
REMARK                         _______ _______ _______ _____ _____    ______ ____
ROOT
ATOM      1  C   UNL     1       1.077   8.651  21.276  0.00  0.00    +0.000 C 
ATOM      2  C   UNL     1      -0.438   8.537  21.563  0.00  0.00    +0.000 C 
ATOM      3  C   UNL     1      -0.307   9.837  22.391  0.00  0.00    +0.000 C 
ATOM      4  C   UNL     1       1.189   9.446  22.589  0.00  0.00    +0.000 C 
ENDROOT
BRANCH   1   8
ATOM      5  N   UNL     1       2.989   5.762  20.006  0.00  0.00    +0.000 N 
ATOM      6  C   UNL     1       2.361   6.996  20.000  0.00  0.00    +0.000 C 
ATOM      7  O   UNL     1       2.288   7.758  19.039  0.00  0.00    +0.000 OA
ATOM      8  N   UNL     1       1.777   7.344  21.201  0.00  0.00    +0.000 N 
ATOM      9  H   UNL     1       3.130   5.317  20.899  0.00  0.00    +0.000 HD
ATOM     10  H   UNL     1       2.063   6.855  22.036  0.00  0.00    +0.000 HD
BRANCH   5  18
ATOM     11  C   UNL     1       1.452   3.850  18.325  0.00  0.00    +0.000 C 
ATOM     12  C   UNL     1       2.882   4.236  18.065  0.00  0.00    +0.000 A 
ATOM     13  C   UNL     1       3.525   3.641  16.956  0.00  0.00    +0.000 A 
ATOM     14  C   UNL     1       4.848   3.940  16.644  0.00  0.00    +0.000 A 
ATOM     15  C   UNL     1       5.528   4.861  17.416  0.00  0.00    +0.000 A 
ATOM     16  F   UNL     1       6.797   5.171  17.114  0.00  0.00    +0.000 F 
ATOM     17  C   UNL     1       4.914   5.473  18.500  0.00  0.00    +0.000 A 
ATOM     18  C   UNL     1       3.595   5.162  18.865  0.00  0.00    +0.000 A 
ENDBRANCH   5  18
ENDBRANCH   1   8
BRANCH   3  19
ATOM     19  O   UNL     1      -0.574  11.054  21.651  0.00  0.00    +0.000 OA
BRANCH  19  20
ATOM     20  C   UNL     1      -1.697  11.778  21.963  0.00  0.00    +0.000 A 
ATOM     21  C   UNL     1      -2.163  11.659  23.274  0.00  0.00    +0.000 A 
ATOM     22  C   UNL     1      -3.299  12.363  23.687  0.00  0.00    +0.000 A 
ATOM     23  C   UNL     1      -3.975  13.204  22.792  0.00  0.00    +0.000 A 
ATOM     24  C   UNL     1      -3.481  13.336  21.485  0.00  0.00    +0.000 A 
ATOM     25  C   UNL     1      -2.348  12.630  21.075  0.00  0.00    +0.000 A 
BRANCH  23  26
ATOM     26  C   UNL     1      -5.211  13.969  23.197  0.00  0.00    +0.000 C 
ATOM     27  F   UNL     1      -5.936  13.364  24.178  0.00  0.00    +0.000 F 
ATOM     28  F   UNL     1      -4.921  15.216  23.660  0.00  0.00    +0.000 F 
ATOM     29  F   UNL     1      -6.070  14.149  22.155  0.00  0.00    +0.000 F 
ENDBRANCH  23  26
ENDBRANCH  19  20
ENDBRANCH   3  19
TORSDOF 5
ENDMDL
MODEL 6
REMARK VINA RESULT:      -7.9      7.928     10.541
REMARK  Name = 
REMARK  6 active torsions:
REMARK  status: ('A' for Active; 'I' for Inactive)
REMARK    1  A    between atoms: C_1  and  C_2
REMARK    2  A    between atoms: C_8  and  N_9
REMARK    3  A    between atoms: N_12  and  C_13
REMARK    4  A    between atoms: C_15  and  O_16
REMARK    5  A    between atoms: O_16  and  C_17
REMARK    6  A    between atoms: C_20  and  C_21
REMARK                            x       y       z     vdW  Elec       q    Type
REMARK                         _______ _______ _______ _____ _____    ______ ____
ROOT
ATOM      1  C   UNL     1       1.136   8.617  21.251  0.00  0.00    +0.000 C 
ATOM      2  C   UNL     1      -0.398   8.497  21.406  0.00  0.00    +0.000 C 
ATOM      3  C   UNL     1      -0.333   9.746  22.314  0.00  0.00    +0.000 C 
ATOM      4  C   UNL     1       1.140   9.336  22.612  0.00  0.00    +0.000 C 
ENDROOT
BRANCH   1   8
ATOM      5  N   UNL     1       3.107   5.777  19.962  0.00  0.00    +0.000 N 
ATOM      6  C   UNL     1       2.480   7.011  19.974  0.00  0.00    +0.000 C 
ATOM      7  O   UNL     1       2.455   7.811  19.042  0.00  0.00    +0.000 OA
ATOM      8  N   UNL     1       1.838   7.313  21.158  0.00  0.00    +0.000 N 
ATOM      9  H   UNL     1       3.203   5.296  20.843  0.00  0.00    +0.000 HD
ATOM     10  H   UNL     1       2.083   6.791  21.986  0.00  0.00    +0.000 HD
BRANCH   5  18
ATOM     11  C   UNL     1       1.585   4.167  17.979  0.00  0.00    +0.000 C 
ATOM     12  C   UNL     1       3.061   4.437  17.886  0.00  0.00    +0.000 A 
ATOM     13  C   UNL     1       3.756   3.881  16.789  0.00  0.00    +0.000 A 
ATOM     14  C   UNL     1       5.124   4.080  16.626  0.00  0.00    +0.000 A 
ATOM     15  C   UNL     1       5.801   4.863  17.539  0.00  0.00    +0.000 A 
ATOM     16  F   UNL     1       7.116   5.077  17.383  0.00  0.00    +0.000 F 
ATOM     17  C   UNL     1       5.139   5.436  18.616  0.00  0.00    +0.000 A 
ATOM     18  C   UNL     1       3.769   5.221  18.830  0.00  0.00    +0.000 A 
ENDBRANCH   5  18
ENDBRANCH   1   8
BRANCH   3  19
ATOM     19  O   UNL     1      -0.538  11.005  21.626  0.00  0.00    +0.000 OA
BRANCH  19  20
ATOM     20  C   UNL     1      -1.092  12.050  22.322  0.00  0.00    +0.000 A 
ATOM     21  C   UNL     1      -2.273  11.773  23.014  0.00  0.00    +0.000 A 
ATOM     22  C   UNL     1      -2.908  12.775  23.756  0.00  0.00    +0.000 A 
ATOM     23  C   UNL     1      -2.361  14.064  23.821  0.00  0.00    +0.000 A 
ATOM     24  C   UNL     1      -1.159  14.321  23.143  0.00  0.00    +0.000 A 
ATOM     25  C   UNL     1      -0.528  13.321  22.401  0.00  0.00    +0.000 A 
BRANCH  23  26
ATOM     26  C   UNL     1      -3.025  15.172  24.599  0.00  0.00    +0.000 C 
ATOM     27  F   UNL     1      -2.362  16.360  24.541  0.00  0.00    +0.000 F 
ATOM     28  F   UNL     1      -4.289  15.427  24.163  0.00  0.00    +0.000 F 
ATOM     29  F   UNL     1      -3.141  14.874  25.923  0.00  0.00    +0.000 F 
ENDBRANCH  23  26
ENDBRANCH  19  20
ENDBRANCH   3  19
TORSDOF 5
ENDMDL
MODEL 7
REMARK VINA RESULT:      -7.9      7.735     10.321
REMARK  Name = 
REMARK  6 active torsions:
REMARK  status: ('A' for Active; 'I' for Inactive)
REMARK    1  A    between atoms: C_1  and  C_2
REMARK    2  A    between atoms: C_8  and  N_9
REMARK    3  A    between atoms: N_12  and  C_13
REMARK    4  A    between atoms: C_15  and  O_16
REMARK    5  A    between atoms: O_16  and  C_17
REMARK    6  A    between atoms: C_20  and  C_21
REMARK                            x       y       z     vdW  Elec       q    Type
REMARK                         _______ _______ _______ _____ _____    ______ ____
ROOT
ATOM      1  C   UNL     1       1.036   8.493  21.028  0.00  0.00    +0.000 C 
ATOM      2  C   UNL     1      -0.414   8.396  21.554  0.00  0.00    +0.000 C 
ATOM      3  C   UNL     1      -0.196   9.781  22.205  0.00  0.00    +0.000 C 
ATOM      4  C   UNL     1       1.322   9.431  22.214  0.00  0.00    +0.000 C 
ENDROOT
BRANCH   1   8
ATOM      5  N   UNL     1       3.144   5.680  19.907  0.00  0.00    +0.000 N 
ATOM      6  C   UNL     1       2.511   6.910  19.872  0.00  0.00    +0.000 C 
ATOM      7  O   UNL     1       2.572   7.722  18.951  0.00  0.00    +0.000 OA
ATOM      8  N   UNL     1       1.753   7.193  20.990  0.00  0.00    +0.000 N 
ATOM      9  H   UNL     1       3.156   5.189  20.787  0.00  0.00    +0.000 HD
ATOM     10  H   UNL     1       1.919   6.663  21.832  0.00  0.00    +0.000 HD
BRANCH   5  18
ATOM     11  C   UNL     1       1.818   4.197  17.696  0.00  0.00    +0.000 C 
ATOM     12  C   UNL     1       3.303   4.418  17.788  0.00  0.00    +0.000 A 
ATOM     13  C   UNL     1       4.106   3.877  16.758  0.00  0.00    +0.000 A 
ATOM     14  C   UNL     1       5.489   4.033  16.766  0.00  0.00    +0.000 A 
ATOM     15  C   UNL     1       6.077   4.758  17.783  0.00  0.00    +0.000 A 
ATOM     16  F   UNL     1       7.407   4.931  17.791  0.00  0.00    +0.000 F 
ATOM     17  C   UNL     1       5.310   5.315  18.796  0.00  0.00    +0.000 A 
ATOM     18  C   UNL     1       3.918   5.142  18.839  0.00  0.00    +0.000 A 
ENDBRANCH   5  18
ENDBRANCH   1   8
BRANCH   3  19
ATOM     19  O   UNL     1      -0.606  10.905  21.387  0.00  0.00    +0.000 OA
BRANCH  19  20
ATOM     20  C   UNL     1      -1.565  11.756  21.874  0.00  0.00    +0.000 A 
ATOM     21  C   UNL     1      -2.058  12.708  20.978  0.00  0.00    +0.000 A 
ATOM     22  C   UNL     1      -3.042  13.616  21.382  0.00  0.00    +0.000 A 
ATOM     23  C   UNL     1      -3.551  13.574  22.687  0.00  0.00    +0.000 A 
ATOM     24  C   UNL     1      -3.068  12.596  23.569  0.00  0.00    +0.000 A 
ATOM     25  C   UNL     1      -2.084  11.691  23.164  0.00  0.00    +0.000 A 
BRANCH  23  26
ATOM     26  C   UNL     1      -4.603  14.545  23.163  0.00  0.00    +0.000 C 
ATOM     27  F   UNL     1      -4.365  15.050  24.404  0.00  0.00    +0.000 F 
ATOM     28  F   UNL     1      -4.727  15.622  22.338  0.00  0.00    +0.000 F 
ATOM     29  F   UNL     1      -5.840  13.978  23.221  0.00  0.00    +0.000 F 
ENDBRANCH  23  26
ENDBRANCH  19  20
ENDBRANCH   3  19
TORSDOF 5
ENDMDL
MODEL 8
REMARK VINA RESULT:      -7.9      7.972     10.576
REMARK  Name = 
REMARK  6 active torsions:
REMARK  status: ('A' for Active; 'I' for Inactive)
REMARK    1  A    between atoms: C_1  and  C_2
REMARK    2  A    between atoms: C_8  and  N_9
REMARK    3  A    between atoms: N_12  and  C_13
REMARK    4  A    between atoms: C_15  and  O_16
REMARK    5  A    between atoms: O_16  and  C_17
REMARK    6  A    between atoms: C_20  and  C_21
REMARK                            x       y       z     vdW  Elec       q    Type
REMARK                         _______ _______ _______ _____ _____    ______ ____
ROOT
ATOM      1  C   UNL     1       0.976   8.569  21.228  0.00  0.00    +0.000 C 
ATOM      2  C   UNL     1      -0.508   8.412  21.632  0.00  0.00    +0.000 C 
ATOM      3  C   UNL     1      -0.359   9.729  22.428  0.00  0.00    +0.000 C 
ATOM      4  C   UNL     1       1.160   9.391  22.517  0.00  0.00    +0.000 C 
ENDROOT
BRANCH   1   8
ATOM      5  N   UNL     1       3.048   5.813  19.916  0.00  0.00    +0.000 N 
ATOM      6  C   UNL     1       2.391   7.031  19.944  0.00  0.00    +0.000 C 
ATOM      7  O   UNL     1       2.370   7.856  19.034  0.00  0.00    +0.000 OA
ATOM      8  N   UNL     1       1.712   7.285  21.119  0.00  0.00    +0.000 N 
ATOM      9  H   UNL     1       3.134   5.311  20.785  0.00  0.00    +0.000 HD
ATOM     10  H   UNL     1       1.949   6.747  21.939  0.00  0.00    +0.000 HD
BRANCH   5  18
ATOM     11  C   UNL     1       1.628   4.177  17.879  0.00  0.00    +0.000 C 
ATOM     12  C   UNL     1       3.093   4.509  17.818  0.00  0.00    +0.000 A 
ATOM     13  C   UNL     1       3.830   4.000  16.724  0.00  0.00    +0.000 A 
ATOM     14  C   UNL     1       5.191   4.258  16.589  0.00  0.00    +0.000 A 
ATOM     15  C   UNL     1       5.819   5.052  17.527  0.00  0.00    +0.000 A 
ATOM     16  F   UNL     1       7.127   5.322  17.398  0.00  0.00    +0.000 F 
ATOM     17  C   UNL     1       5.116   5.579  18.601  0.00  0.00    +0.000 A 
ATOM     18  C   UNL     1       3.752   5.304  18.787  0.00  0.00    +0.000 A 
ENDBRANCH   5  18
ENDBRANCH   1   8
BRANCH   3  19
ATOM     19  O   UNL     1      -0.722  10.923  21.693  0.00  0.00    +0.000 OA
BRANCH  19  20
ATOM     20  C   UNL     1      -1.235  11.990  22.387  0.00  0.00    +0.000 A 
ATOM     21  C   UNL     1      -0.487  13.169  22.346  0.00  0.00    +0.000 A 
ATOM     22  C   UNL     1      -0.931  14.312  23.020  0.00  0.00    +0.000 A 
ATOM     23  C   UNL     1      -2.138  14.289  23.733  0.00  0.00    +0.000 A 
ATOM     24  C   UNL     1      -2.893  13.106  23.744  0.00  0.00    +0.000 A 
ATOM     25  C   UNL     1      -2.446  11.966  23.072  0.00  0.00    +0.000 A 
BRANCH  23  26
ATOM     26  C   UNL     1      -2.643  15.497  24.482  0.00  0.00    +0.000 C 
ATOM     27  F   UNL     1      -3.562  16.228  23.794  0.00  0.00    +0.000 F 
ATOM     28  F   UNL     1      -3.235  15.166  25.663  0.00  0.00    +0.000 F 
ATOM     29  F   UNL     1      -1.640  16.363  24.800  0.00  0.00    +0.000 F 
ENDBRANCH  23  26
ENDBRANCH  19  20
ENDBRANCH   3  19
TORSDOF 5
ENDMDL
MODEL 9
REMARK VINA RESULT:      -7.8      6.241      8.158
REMARK  Name = 
REMARK  6 active torsions:
REMARK  status: ('A' for Active; 'I' for Inactive)
REMARK    1  A    between atoms: C_1  and  C_2
REMARK    2  A    between atoms: C_8  and  N_9
REMARK    3  A    between atoms: N_12  and  C_13
REMARK    4  A    between atoms: C_15  and  O_16
REMARK    5  A    between atoms: O_16  and  C_17
REMARK    6  A    between atoms: C_20  and  C_21
REMARK                            x       y       z     vdW  Elec       q    Type
REMARK                         _______ _______ _______ _____ _____    ______ ____
ROOT
ATOM      1  C   UNL     1       3.463   6.214  19.332  0.00  0.00    +0.000 C 
ATOM      2  C   UNL     1       4.161   4.907  19.774  0.00  0.00    +0.000 C 
ATOM      3  C   UNL     1       4.355   4.587  18.275  0.00  0.00    +0.000 C 
ATOM      4  C   UNL     1       3.114   5.494  18.018  0.00  0.00    +0.000 C 
ENDROOT
BRANCH   1   8
ATOM      5  N   UNL     1       0.733   8.179  20.849  0.00  0.00    +0.000 N 
ATOM      6  C   UNL     1       1.770   7.863  19.988  0.00  0.00    +0.000 C 
ATOM      7  O   UNL     1       2.197   8.582  19.088  0.00  0.00    +0.000 OA
ATOM      8  N   UNL     1       2.340   6.626  20.211  0.00  0.00    +0.000 N 
ATOM      9  H   UNL     1       0.365   7.437  21.424  0.00  0.00    +0.000 HD
ATOM     10  H   UNL     1       1.825   5.949  20.754  0.00  0.00    +0.000 HD
BRANCH   5  18
ATOM     11  C   UNL     1       0.076   9.509  23.426  0.00  0.00    +0.000 C 
ATOM     12  C   UNL     1      -0.291  10.062  22.077  0.00  0.00    +0.000 A 
ATOM     13  C   UNL     1      -0.997  11.287  22.047  0.00  0.00    +0.000 A 
ATOM     14  C   UNL     1      -1.378  11.869  20.842  0.00  0.00    +0.000 A 
ATOM     15  C   UNL     1      -1.027  11.252  19.657  0.00  0.00    +0.000 A 
ATOM     16  F   UNL     1      -1.373  11.814  18.490  0.00  0.00    +0.000 F 
ATOM     17  C   UNL     1      -0.318  10.059  19.659  0.00  0.00    +0.000 A 
ATOM     18  C   UNL     1       0.044   9.426  20.857  0.00  0.00    +0.000 A 
ENDBRANCH   5  18
ENDBRANCH   1   8
BRANCH   3  19
ATOM     19  O   UNL     1       5.618   5.032  17.720  0.00  0.00    +0.000 OA
BRANCH  19  20
ATOM     20  C   UNL     1       5.892   4.754  16.405  0.00  0.00    +0.000 A 
ATOM     21  C   UNL     1       4.981   3.923  15.748  0.00  0.00    +0.000 A 
ATOM     22  C   UNL     1       5.174   3.588  14.403  0.00  0.00    +0.000 A 
ATOM     23  C   UNL     1       6.276   4.091  13.699  0.00  0.00    +0.000 A 
ATOM     24  C   UNL     1       7.169   4.946  14.363  0.00  0.00    +0.000 A 
ATOM     25  C   UNL     1       6.976   5.278  15.705  0.00  0.00    +0.000 A 
BRANCH  23  26
ATOM     26  C   UNL     1       6.523   3.740  12.252  0.00  0.00    +0.000 C 
ATOM     27  F   UNL     1       7.384   4.585  11.620  0.00  0.00    +0.000 F 
ATOM     28  F   UNL     1       7.046   2.492  12.103  0.00  0.00    +0.000 F 
ATOM     29  F   UNL     1       5.378   3.754  11.516  0.00  0.00    +0.000 F 
ENDBRANCH  23  26
ENDBRANCH  19  20
ENDBRANCH   3  19
TORSDOF 5
ENDMDL
