MODEL 1
REMARK VINA RESULT:      -6.9      0.000      0.000
REMARK  Name = 
REMARK  8 active torsions:
REMARK  status: ('A' for Active; 'I' for Inactive)
REMARK    1  A    between atoms: C_1  and  S_2
REMARK    2  A    between atoms: S_2  and  C_5
REMARK    3  A    between atoms: C_7  and  C_8
REMARK    4  A    between atoms: N_18  and  C_19
REMARK    5  A    between atoms: C_19  and  C_20
REMARK    6  A    between atoms: C_27  and  C_28
REMARK    7  A    between atoms: C_28  and  C_29
REMARK    8  A    between atoms: C_29  and  O_31
REMARK                            x       y       z     vdW  Elec       q    Type
REMARK                         _______ _______ _______ _____ _____    ______ ____
ROOT
ATOM      1  C   UNL     1      -5.544  12.302  20.708  0.00  0.00    +0.000 A 
ATOM      2  C   UNL     1      -5.161  11.717  19.516  0.00  0.00    +0.000 A 
ATOM      3  C   UNL     1      -3.816  11.721  19.045  0.00  0.00    +0.000 A 
ATOM      4  C   UNL     1      -2.839  12.415  19.831  0.00  0.00    +0.000 A 
ATOM      5  C   UNL     1      -3.272  12.993  21.060  0.00  0.00    +0.000 A 
ATOM      6  C   UNL     1      -4.605  12.930  21.499  0.00  0.00    +0.000 A 
ATOM      7  C   UNL     1      -2.151  13.495  21.705  0.00  0.00    +0.000 A 
ATOM      8  C   UNL     1      -1.069  13.379  20.886  0.00  0.00    +0.000 A 
ATOM      9  N   UNL     1      -1.446  12.713  19.733  0.00  0.00    +0.000 N 
ATOM     10  C   UNL     1       0.203  13.781  21.585  0.00  0.00    +0.000 C 
ATOM     11  C   UNL     1      -0.402  14.561  22.832  0.00  0.00    +0.000 C 
ATOM     12  C   UNL     1      -1.830  14.013  23.049  0.00  0.00    +0.000 C 
ENDROOT
BRANCH   3  13
ATOM     13  C   UNL     1      -3.618  10.970  17.796  0.00  0.00    +0.000 A 
ATOM     14  C   UNL     1      -2.685   9.957  17.587  0.00  0.00    +0.000 A 
ATOM     15  C   UNL     1      -2.513   9.618  16.216  0.00  0.00    +0.000 A 
ATOM     16  C   UNL     1      -3.370  10.330  15.412  0.00  0.00    +0.000 A 
ATOM     17  S   UNL     1      -4.254  11.493  16.296  0.00  0.00    +0.000 S 
ENDBRANCH   3  13
BRANCH   1  19
ATOM     18  C   UNL     1      -7.838  10.746  20.514  0.00  0.00    +0.000 C 
ATOM     19  S   UNL     1      -7.244  12.261  21.212  0.00  0.00    +0.000 S 
ATOM     20  O   UNL     1      -7.917  13.361  20.548  0.00  0.00    +0.000 OA
ATOM     21  O   UNL     1      -7.283  12.136  22.658  0.00  0.00    +0.000 OA
ENDBRANCH   1  19
BRANCH   9  22
ATOM     22  C   UNL     1      -0.447  12.195  18.784  0.00  0.00    +0.000 C 
BRANCH  22  23
ATOM     23  C   UNL     1       0.227  10.860  19.044  0.00  0.00    +0.000 A 
ATOM     24  C   UNL     1       0.154  10.139  20.242  0.00  0.00    +0.000 A 
ATOM     25  C   UNL     1       0.882   8.946  20.406  0.00  0.00    +0.000 A 
ATOM     26  C   UNL     1       1.673   8.455  19.372  0.00  0.00    +0.000 A 
ATOM     27 CL   UNL     1       2.579   7.008  19.590  0.00  0.00    +0.000 Cl
ATOM     28  C   UNL     1       1.742   9.134  18.163  0.00  0.00    +0.000 A 
ATOM     29  C   UNL     1       1.023  10.328  18.005  0.00  0.00    +0.000 A 
ENDBRANCH  22  23
ENDBRANCH   9  22
BRANCH  10  30
ATOM     30  C   UNL     1       1.165  14.695  20.837  0.00  0.00    +0.000 C 
BRANCH  30  31
ATOM     31  C   UNL     1       2.523  14.669  21.511  0.00  0.00    +0.000 C 
ATOM     32  O   UNL     1       3.048  15.633  22.048  0.00  0.00    +0.000 OA
BRANCH  31  33
ATOM     33  O   UNL     1       3.113  13.455  21.490  0.00  0.00    +0.000 OA
ATOM     34  H   UNL     1       3.099  12.981  22.343  0.00  0.00    +0.000 HD
ENDBRANCH  31  33
ENDBRANCH  30  31
ENDBRANCH  10  30
TORSDOF 7
ENDMDL
MODEL 2
REMARK VINA RESULT:      -6.9      0.940      1.548
REMARK  Name = 
REMARK  8 active torsions:
REMARK  status: ('A' for Active; 'I' for Inactive)
REMARK    1  A    between atoms: C_1  and  S_2
REMARK    2  A    between atoms: S_2  and  C_5
REMARK    3  A    between atoms: C_7  and  C_8
REMARK    4  A    between atoms: N_18  and  C_19
REMARK    5  A    between atoms: C_19  and  C_20
REMARK    6  A    between atoms: C_27  and  C_28
REMARK    7  A    between atoms: C_28  and  C_29
REMARK    8  A    between atoms: C_29  and  O_31
REMARK                            x       y       z     vdW  Elec       q    Type
REMARK                         _______ _______ _______ _____ _____    ______ ____
ROOT
ATOM      1  C   UNL     1      -5.409  12.335  20.447  0.00  0.00    +0.000 A 
ATOM      2  C   UNL     1      -4.965  11.849  19.232  0.00  0.00    +0.000 A 
ATOM      3  C   UNL     1      -3.599  11.896  18.828  0.00  0.00    +0.000 A 
ATOM      4  C   UNL     1      -2.666  12.529  19.712  0.00  0.00    +0.000 A 
ATOM      5  C   UNL     1      -3.162  13.004  20.962  0.00  0.00    +0.000 A 
ATOM      6  C   UNL     1      -4.513  12.900  21.330  0.00  0.00    +0.000 A 
ATOM      7  C   UNL     1      -2.076  13.458  21.697  0.00  0.00    +0.000 A 
ATOM      8  C   UNL     1      -0.956  13.412  20.924  0.00  0.00    +0.000 A 
ATOM      9  N   UNL     1      -1.273  12.840  19.705  0.00  0.00    +0.000 N 
ATOM     10  C   UNL     1       0.279  13.762  21.713  0.00  0.00    +0.000 C 
ATOM     11  C   UNL     1      -0.391  14.436  22.988  0.00  0.00    +0.000 C 
ATOM     12  C   UNL     1      -1.823  13.867  23.093  0.00  0.00    +0.000 C 
ENDROOT
BRANCH   3  13
ATOM     13  C   UNL     1      -3.336  11.248  17.533  0.00  0.00    +0.000 A 
ATOM     14  C   UNL     1      -3.969  11.540  16.327  0.00  0.00    +0.000 A 
ATOM     15  C   UNL     1      -3.734  10.569  15.314  0.00  0.00    +0.000 A 
ATOM     16  C   UNL     1      -2.869   9.592  15.746  0.00  0.00    +0.000 A 
ATOM     17  S   UNL     1      -2.476   9.775  17.397  0.00  0.00    +0.000 S 
ENDBRANCH   3  13
BRANCH   1  19
ATOM     18  C   UNL     1      -7.582  13.944  21.089  0.00  0.00    +0.000 C 
ATOM     19  S   UNL     1      -7.130  12.246  20.865  0.00  0.00    +0.000 S 
ATOM     20  O   UNL     1      -7.228  11.578  22.148  0.00  0.00    +0.000 OA
ATOM     21  O   UNL     1      -7.848  11.738  19.710  0.00  0.00    +0.000 OA
ENDBRANCH   1  19
BRANCH   9  22
ATOM     22  C   UNL     1      -0.226  12.404  18.767  0.00  0.00    +0.000 C 
BRANCH  22  23
ATOM     23  C   UNL     1       0.488  11.081  18.986  0.00  0.00    +0.000 A 
ATOM     24  C   UNL     1       1.347  10.467  18.068  0.00  0.00    +0.000 A 
ATOM     25  C   UNL     1       1.896   9.200  18.338  0.00  0.00    +0.000 A 
ATOM     26  C   UNL     1       1.607   8.545  19.530  0.00  0.00    +0.000 A 
ATOM     27 CL   UNL     1       2.264   6.985  19.841  0.00  0.00    +0.000 Cl
ATOM     28  C   UNL     1       0.780   9.143  20.472  0.00  0.00    +0.000 A 
ATOM     29  C   UNL     1       0.226  10.402  20.197  0.00  0.00    +0.000 A 
ENDBRANCH  22  23
ENDBRANCH   9  22
BRANCH  10  30
ATOM     30  C   UNL     1       1.268  14.737  21.088  0.00  0.00    +0.000 C 
BRANCH  30  31
ATOM     31  C   UNL     1       2.546  14.007  20.725  0.00  0.00    +0.000 C 
ATOM     32  O   UNL     1       2.870  13.703  19.587  0.00  0.00    +0.000 OA
BRANCH  31  33
ATOM     33  O   UNL     1       3.332  13.732  21.788  0.00  0.00    +0.000 OA
ATOM     34  H   UNL     1       2.851  13.604  22.627  0.00  0.00    +0.000 HD
ENDBRANCH  31  33
ENDBRANCH  30  31
ENDBRANCH  10  30
TORSDOF 7
ENDMDL
MODEL 3
REMARK VINA RESULT:      -6.7      2.801      5.436
REMARK  Name = 
REMARK  8 active torsions:
REMARK  status: ('A' for Active; 'I' for Inactive)
REMARK    1  A    between atoms: C_1  and  S_2
REMARK    2  A    between atoms: S_2  and  C_5
REMARK    3  A    between atoms: C_7  and  C_8
REMARK    4  A    between atoms: N_18  and  C_19
REMARK    5  A    between atoms: C_19  and  C_20
REMARK    6  A    between atoms: C_27  and  C_28
REMARK    7  A    between atoms: C_28  and  C_29
REMARK    8  A    between atoms: C_29  and  O_31
REMARK                            x       y       z     vdW  Elec       q    Type
REMARK                         _______ _______ _______ _____ _____    ______ ____
ROOT
ATOM      1  C   UNL     1      -5.448  13.262  20.721  0.00  0.00    +0.000 A 
ATOM      2  C   UNL     1      -4.641  13.866  21.667  0.00  0.00    +0.000 A 
ATOM      3  C   UNL     1      -3.227  13.692  21.707  0.00  0.00    +0.000 A 
ATOM      4  C   UNL     1      -2.639  12.802  20.750  0.00  0.00    +0.000 A 
ATOM      5  C   UNL     1      -3.505  12.210  19.783  0.00  0.00    +0.000 A 
ATOM      6  C   UNL     1      -4.890  12.444  19.762  0.00  0.00    +0.000 A 
ATOM      7  C   UNL     1      -2.714  11.498  18.893  0.00  0.00    +0.000 A 
ATOM      8  C   UNL     1      -1.424  11.506  19.328  0.00  0.00    +0.000 A 
ATOM      9  N   UNL     1      -1.335  12.303  20.456  0.00  0.00    +0.000 N 
ATOM     10  C   UNL     1      -0.495  10.867  18.330  0.00  0.00    +0.000 C 
ATOM     11  C   UNL     1      -1.553  10.101  17.423  0.00  0.00    +0.000 C 
ATOM     12  C   UNL     1      -2.898  10.842  17.584  0.00  0.00    +0.000 C 
ENDROOT
BRANCH   3  13
ATOM     13  C   UNL     1      -2.555  14.492  22.743  0.00  0.00    +0.000 A 
ATOM     14  C   UNL     1      -2.658  14.302  24.119  0.00  0.00    +0.000 A 
ATOM     15  C   UNL     1      -2.148  15.391  24.880  0.00  0.00    +0.000 A 
ATOM     16  C   UNL     1      -1.602  16.358  24.070  0.00  0.00    +0.000 A 
ATOM     17  S   UNL     1      -1.845  16.014  22.416  0.00  0.00    +0.000 S 
ENDBRANCH   3  13
BRANCH   1  19
ATOM     18  C   UNL     1      -7.826  12.023  21.452  0.00  0.00    +0.000 C 
ATOM     19  S   UNL     1      -7.202  13.525  20.752  0.00  0.00    +0.000 S 
ATOM     20  O   UNL     1      -7.649  13.604  19.375  0.00  0.00    +0.000 OA
ATOM     21  O   UNL     1      -7.479  14.604  21.682  0.00  0.00    +0.000 OA
ENDBRANCH   1  19
BRANCH   9  22
ATOM     22  C   UNL     1      -0.032  12.730  20.993  0.00  0.00    +0.000 C 
BRANCH  22  23
ATOM     23  C   UNL     1       0.861  13.650  20.180  0.00  0.00    +0.000 A 
ATOM     24  C   UNL     1       0.451  14.842  19.573  0.00  0.00    +0.000 A 
ATOM     25  C   UNL     1       1.341  15.582  18.773  0.00  0.00    +0.000 A 
ATOM     26  C   UNL     1       2.649  15.147  18.586  0.00  0.00    +0.000 A 
ATOM     27 CL   UNL     1       3.724  16.046  17.586  0.00  0.00    +0.000 Cl
ATOM     28  C   UNL     1       3.092  13.983  19.199  0.00  0.00    +0.000 A 
ATOM     29  C   UNL     1       2.201  13.242  19.989  0.00  0.00    +0.000 A 
ENDBRANCH  22  23
ENDBRANCH   9  22
BRANCH  10  30
ATOM     30  C   UNL     1       0.534   9.873  18.854  0.00  0.00    +0.000 C 
BRANCH  30  31
ATOM     31  C   UNL     1       1.675   9.749  17.864  0.00  0.00    +0.000 C 
ATOM     32  O   UNL     1       2.117   8.690  17.445  0.00  0.00    +0.000 OA
BRANCH  31  33
ATOM     33  O   UNL     1       2.164  10.938  17.451  0.00  0.00    +0.000 OA
ATOM     34  H   UNL     1       2.541  10.933  16.552  0.00  0.00    +0.000 HD
ENDBRANCH  31  33
ENDBRANCH  30  31
ENDBRANCH  10  30
TORSDOF 7
ENDMDL
MODEL 4
REMARK VINA RESULT:      -6.6      0.756      1.280
REMARK  Name = 
REMARK  8 active torsions:
REMARK  status: ('A' for Active; 'I' for Inactive)
REMARK    1  A    between atoms: C_1  and  S_2
REMARK    2  A    between atoms: S_2  and  C_5
REMARK    3  A    between atoms: C_7  and  C_8
REMARK    4  A    between atoms: N_18  and  C_19
REMARK    5  A    between atoms: C_19  and  C_20
REMARK    6  A    between atoms: C_27  and  C_28
REMARK    7  A    between atoms: C_28  and  C_29
REMARK    8  A    between atoms: C_29  and  O_31
REMARK                            x       y       z     vdW  Elec       q    Type
REMARK                         _______ _______ _______ _____ _____    ______ ____
ROOT
ATOM      1  C   UNL     1      -5.234  12.415  20.558  0.00  0.00    +0.000 A 
ATOM      2  C   UNL     1      -4.830  11.891  19.344  0.00  0.00    +0.000 A 
ATOM      3  C   UNL     1      -3.483  11.944  18.884  0.00  0.00    +0.000 A 
ATOM      4  C   UNL     1      -2.526  12.626  19.706  0.00  0.00    +0.000 A 
ATOM      5  C   UNL     1      -2.980  13.140  20.956  0.00  0.00    +0.000 A 
ATOM      6  C   UNL     1      -4.314  13.029  21.382  0.00  0.00    +0.000 A 
ATOM      7  C   UNL     1      -1.875  13.639  21.629  0.00  0.00    +0.000 A 
ATOM      8  C   UNL     1      -0.785  13.582  20.815  0.00  0.00    +0.000 A 
ATOM      9  N   UNL     1      -1.140  12.958  19.632  0.00  0.00    +0.000 N 
ATOM     10  C   UNL     1       0.474  13.981  21.539  0.00  0.00    +0.000 C 
ATOM     11  C   UNL     1      -0.157  14.693  22.814  0.00  0.00    +0.000 C 
ATOM     12  C   UNL     1      -1.574  14.105  22.998  0.00  0.00    +0.000 C 
ENDROOT
BRANCH   3  13
ATOM     13  C   UNL     1      -3.260  11.252  17.605  0.00  0.00    +0.000 A 
ATOM     14  C   UNL     1      -3.923  11.510  16.408  0.00  0.00    +0.000 A 
ATOM     15  C   UNL     1      -3.723  10.504  15.422  0.00  0.00    +0.000 A 
ATOM     16  C   UNL     1      -2.853   9.535  15.862  0.00  0.00    +0.000 A 
ATOM     17  S   UNL     1      -2.414   9.769  17.495  0.00  0.00    +0.000 S 
ENDBRANCH   3  13
BRANCH   1  19
ATOM     18  C   UNL     1      -7.530  10.900  20.164  0.00  0.00    +0.000 C 
ATOM     19  S   UNL     1      -6.935  12.315  21.047  0.00  0.00    +0.000 S 
ATOM     20  O   UNL     1      -7.604  13.490  20.523  0.00  0.00    +0.000 OA
ATOM     21  O   UNL     1      -6.979  12.010  22.466  0.00  0.00    +0.000 OA
ENDBRANCH   1  19
BRANCH   9  22
ATOM     22  C   UNL     1      -0.123  12.504  18.669  0.00  0.00    +0.000 C 
BRANCH  22  23
ATOM     23  C   UNL     1       0.576  11.172  18.874  0.00  0.00    +0.000 A 
ATOM     24  C   UNL     1       1.381  10.529  17.927  0.00  0.00    +0.000 A 
ATOM     25  C   UNL     1       1.920   9.256  18.191  0.00  0.00    +0.000 A 
ATOM     26  C   UNL     1       1.674   8.624  19.405  0.00  0.00    +0.000 A 
ATOM     27 CL   UNL     1       2.317   7.057  19.709  0.00  0.00    +0.000 Cl
ATOM     28  C   UNL     1       0.902   9.250  20.375  0.00  0.00    +0.000 A 
ATOM     29  C   UNL     1       0.358  10.515  20.107  0.00  0.00    +0.000 A 
ENDBRANCH  22  23
ENDBRANCH   9  22
BRANCH  10  30
ATOM     30  C   UNL     1       1.420  14.948  20.839  0.00  0.00    +0.000 C 
BRANCH  30  31
ATOM     31  C   UNL     1       2.842  14.432  20.936  0.00  0.00    +0.000 C 
ATOM     32  O   UNL     1       3.185  13.474  21.612  0.00  0.00    +0.000 OA
BRANCH  31  33
ATOM     33  O   UNL     1       3.720  15.122  20.177  0.00  0.00    +0.000 OA
ATOM     34  H   UNL     1       4.311  15.715  20.677  0.00  0.00    +0.000 HD
ENDBRANCH  31  33
ENDBRANCH  30  31
ENDBRANCH  10  30
TORSDOF 7
ENDMDL
MODEL 5
REMARK VINA RESULT:      -6.5      2.906      5.460
REMARK  Name = 
REMARK  8 active torsions:
REMARK  status: ('A' for Active; 'I' for Inactive)
REMARK    1  A    between atoms: C_1  and  S_2
REMARK    2  A    between atoms: S_2  and  C_5
REMARK    3  A    between atoms: C_7  and  C_8
REMARK    4  A    between atoms: N_18  and  C_19
REMARK    5  A    between atoms: C_19  and  C_20
REMARK    6  A    between atoms: C_27  and  C_28
REMARK    7  A    between atoms: C_28  and  C_29
REMARK    8  A    between atoms: C_29  and  O_31
REMARK                            x       y       z     vdW  Elec       q    Type
REMARK                         _______ _______ _______ _____ _____    ______ ____
ROOT
ATOM      1  C   UNL     1      -5.595  12.940  19.933  0.00  0.00    +0.000 A 
ATOM      2  C   UNL     1      -4.937  13.699  20.883  0.00  0.00    +0.000 A 
ATOM      3  C   UNL     1      -3.527  13.643  21.082  0.00  0.00    +0.000 A 
ATOM      4  C   UNL     1      -2.780  12.711  20.290  0.00  0.00    +0.000 A 
ATOM      5  C   UNL     1      -3.495  11.957  19.313  0.00  0.00    +0.000 A 
ATOM      6  C   UNL     1      -4.882  12.076  19.129  0.00  0.00    +0.000 A 
ATOM      7  C   UNL     1      -2.566  11.224  18.589  0.00  0.00    +0.000 A 
ATOM      8  C   UNL     1      -1.333  11.380  19.146  0.00  0.00    +0.000 A 
ATOM      9  N   UNL     1      -1.420  12.291  20.184  0.00  0.00    +0.000 N 
ATOM     10  C   UNL     1      -0.261  10.719  18.320  0.00  0.00    +0.000 C 
ATOM     11  C   UNL     1      -1.160   9.783  17.401  0.00  0.00    +0.000 C 
ATOM     12  C   UNL     1      -2.563  10.427  17.346  0.00  0.00    +0.000 C 
ENDROOT
BRANCH   3  13
ATOM     13  C   UNL     1      -3.027  14.595  22.086  0.00  0.00    +0.000 A 
ATOM     14  C   UNL     1      -3.159  14.474  23.467  0.00  0.00    +0.000 A 
ATOM     15  C   UNL     1      -2.850  15.670  24.173  0.00  0.00    +0.000 A 
ATOM     16  C   UNL     1      -2.420  16.659  23.321  0.00  0.00    +0.000 A 
ATOM     17  S   UNL     1      -2.538  16.185  21.685  0.00  0.00    +0.000 S 
ENDBRANCH   3  13
BRANCH   1  19
ATOM     18  C   UNL     1      -7.563  13.621  18.093  0.00  0.00    +0.000 C 
ATOM     19  S   UNL     1      -7.356  13.063  19.761  0.00  0.00    +0.000 S 
ATOM     20  O   UNL     1      -7.802  14.118  20.651  0.00  0.00    +0.000 OA
ATOM     21  O   UNL     1      -7.913  11.727  19.861  0.00  0.00    +0.000 OA
ENDBRANCH   1  19
BRANCH   9  22
ATOM     22  C   UNL     1      -0.215  12.873  20.797  0.00  0.00    +0.000 C 
BRANCH  22  23
ATOM     23  C   UNL     1       0.729  13.720  19.963  0.00  0.00    +0.000 A 
ATOM     24  C   UNL     1       2.097  13.476  19.794  0.00  0.00    +0.000 A 
ATOM     25  C   UNL     1       2.899  14.369  19.062  0.00  0.00    +0.000 A 
ATOM     26  C   UNL     1       2.342  15.502  18.478  0.00  0.00    +0.000 A 
ATOM     27 CL   UNL     1       3.337  16.602  17.605  0.00  0.00    +0.000 Cl
ATOM     28  C   UNL     1       0.983  15.755  18.604  0.00  0.00    +0.000 A 
ATOM     29  C   UNL     1       0.186  14.868  19.343  0.00  0.00    +0.000 A 
ENDBRANCH  22  23
ENDBRANCH   9  22
BRANCH  10  30
ATOM     30  C   UNL     1       0.772   9.869  19.048  0.00  0.00    +0.000 C 
BRANCH  30  31
ATOM     31  C   UNL     1       1.830   9.400  18.069  0.00  0.00    +0.000 C 
ATOM     32  O   UNL     1       2.216   8.245  17.967  0.00  0.00    +0.000 OA
BRANCH  31  33
ATOM     33  O   UNL     1       2.310  10.385  17.279  0.00  0.00    +0.000 OA
ATOM     34  H   UNL     1       2.776  10.075  16.480  0.00  0.00    +0.000 HD
ENDBRANCH  31  33
ENDBRANCH  30  31
ENDBRANCH  10  30
TORSDOF 7
ENDMDL
MODEL 6
REMARK VINA RESULT:      -6.4      2.883      5.712
REMARK  Name = 
REMARK  8 active torsions:
REMARK  status: ('A' for Active; 'I' for Inactive)
REMARK    1  A    between atoms: C_1  and  S_2
REMARK    2  A    between atoms: S_2  and  C_5
REMARK    3  A    between atoms: C_7  and  C_8
REMARK    4  A    between atoms: N_18  and  C_19
REMARK    5  A    between atoms: C_19  and  C_20
REMARK    6  A    between atoms: C_27  and  C_28
REMARK    7  A    between atoms: C_28  and  C_29
REMARK    8  A    between atoms: C_29  and  O_31
REMARK                            x       y       z     vdW  Elec       q    Type
REMARK                         _______ _______ _______ _____ _____    ______ ____
ROOT
ATOM      1  C   UNL     1      -5.523  13.088  20.138  0.00  0.00    +0.000 A 
ATOM      2  C   UNL     1      -4.782  13.663  21.154  0.00  0.00    +0.000 A 
ATOM      3  C   UNL     1      -3.383  13.449  21.313  0.00  0.00    +0.000 A 
ATOM      4  C   UNL     1      -2.740  12.548  20.403  0.00  0.00    +0.000 A 
ATOM      5  C   UNL     1      -3.536  11.986  19.361  0.00  0.00    +0.000 A 
ATOM      6  C   UNL     1      -4.907  12.259  19.224  0.00  0.00    +0.000 A 
ATOM      7  C   UNL     1      -2.692  11.256  18.537  0.00  0.00    +0.000 A 
ATOM      8  C   UNL     1      -1.444  11.226  19.081  0.00  0.00    +0.000 A 
ATOM      9  N   UNL     1      -1.429  12.013  20.218  0.00  0.00    +0.000 N 
ATOM     10  C   UNL     1      -0.451  10.565  18.160  0.00  0.00    +0.000 C 
ATOM     11  C   UNL     1      -1.449   9.834  17.160  0.00  0.00    +0.000 C 
ATOM     12  C   UNL     1      -2.782  10.613  17.211  0.00  0.00    +0.000 C 
ENDROOT
BRANCH   3  13
ATOM     13  C   UNL     1      -2.780  14.224  22.409  0.00  0.00    +0.000 A 
ATOM     14  C   UNL     1      -2.536  13.763  23.701  0.00  0.00    +0.000 A 
ATOM     15  C   UNL     1      -2.227  14.801  24.623  0.00  0.00    +0.000 A 
ATOM     16  C   UNL     1      -2.171  16.026  24.001  0.00  0.00    +0.000 A 
ATOM     17  S   UNL     1      -2.636  15.928  22.362  0.00  0.00    +0.000 S 
ENDBRANCH   3  13
BRANCH   1  19
ATOM     18  C   UNL     1      -7.398  15.115  20.442  0.00  0.00    +0.000 C 
ATOM     19  S   UNL     1      -7.264  13.401  20.021  0.00  0.00    +0.000 S 
ATOM     20  O   UNL     1      -7.911  12.626  21.062  0.00  0.00    +0.000 OA
ATOM     21  O   UNL     1      -7.657  13.246  18.632  0.00  0.00    +0.000 OA
ENDBRANCH   1  19
BRANCH   9  22
ATOM     22  C   UNL     1      -0.166  12.400  20.868  0.00  0.00    +0.000 C 
BRANCH  22  23
ATOM     23  C   UNL     1       0.445  13.762  20.590  0.00  0.00    +0.000 A 
ATOM     24  C   UNL     1       0.783  14.252  19.324  0.00  0.00    +0.000 A 
ATOM     25  C   UNL     1       1.418  15.499  19.184  0.00  0.00    +0.000 A 
ATOM     26  C   UNL     1       1.705  16.274  20.303  0.00  0.00    +0.000 A 
ATOM     27 CL   UNL     1       2.505  17.788  20.124  0.00  0.00    +0.000 Cl
ATOM     28  C   UNL     1       1.356  15.826  21.570  0.00  0.00    +0.000 A 
ATOM     29  C   UNL     1       0.731  14.578  21.708  0.00  0.00    +0.000 A 
ENDBRANCH  22  23
ENDBRANCH   9  22
BRANCH  10  30
ATOM     30  C   UNL     1       0.501   9.539  18.762  0.00  0.00    +0.000 C 
BRANCH  30  31
ATOM     31  C   UNL     1       1.768   9.471  17.934  0.00  0.00    +0.000 C 
ATOM     32  O   UNL     1       2.414   8.452  17.740  0.00  0.00    +0.000 OA
BRANCH  31  33
ATOM     33  O   UNL     1       2.124  10.654  17.391  0.00  0.00    +0.000 OA
ATOM     34  H   UNL     1       1.648  10.887  16.572  0.00  0.00    +0.000 HD
ENDBRANCH  31  33
ENDBRANCH  30  31
ENDBRANCH  10  30
TORSDOF 7
ENDMDL
MODEL 7
REMARK VINA RESULT:      -6.4      2.893      5.475
REMARK  Name = 
REMARK  8 active torsions:
REMARK  status: ('A' for Active; 'I' for Inactive)
REMARK    1  A    between atoms: C_1  and  S_2
REMARK    2  A    between atoms: S_2  and  C_5
REMARK    3  A    between atoms: C_7  and  C_8
REMARK    4  A    between atoms: N_18  and  C_19
REMARK    5  A    between atoms: C_19  and  C_20
REMARK    6  A    between atoms: C_27  and  C_28
REMARK    7  A    between atoms: C_28  and  C_29
REMARK    8  A    between atoms: C_29  and  O_31
REMARK                            x       y       z     vdW  Elec       q    Type
REMARK                         _______ _______ _______ _____ _____    ______ ____
ROOT
ATOM      1  C   UNL     1      -5.501  12.778  19.466  0.00  0.00    +0.000 A 
ATOM      2  C   UNL     1      -4.919  13.561  20.445  0.00  0.00    +0.000 A 
ATOM      3  C   UNL     1      -3.533  13.498  20.769  0.00  0.00    +0.000 A 
ATOM      4  C   UNL     1      -2.731  12.534  20.075  0.00  0.00    +0.000 A 
ATOM      5  C   UNL     1      -3.367  11.756  19.063  0.00  0.00    +0.000 A 
ATOM      6  C   UNL     1      -4.731  11.883  18.754  0.00  0.00    +0.000 A 
ATOM      7  C   UNL     1      -2.387  10.992  18.446  0.00  0.00    +0.000 A 
ATOM      8  C   UNL     1      -1.206  11.153  19.104  0.00  0.00    +0.000 A 
ATOM      9  N   UNL     1      -1.372  12.098  20.102  0.00  0.00    +0.000 N 
ATOM     10  C   UNL     1      -0.074  10.456  18.397  0.00  0.00    +0.000 C 
ATOM     11  C   UNL     1      -0.901   9.500  17.432  0.00  0.00    +0.000 C 
ATOM     12  C   UNL     1      -2.286  10.155  17.234  0.00  0.00    +0.000 C 
ENDROOT
BRANCH   3  13
ATOM     13  C   UNL     1      -3.111  14.476  21.784  0.00  0.00    +0.000 A 
ATOM     14  C   UNL     1      -2.559  15.730  21.533  0.00  0.00    +0.000 A 
ATOM     15  C   UNL     1      -1.976  16.333  22.683  0.00  0.00    +0.000 A 
ATOM     16  C   UNL     1      -2.159  15.557  23.803  0.00  0.00    +0.000 A 
ATOM     17  S   UNL     1      -2.889  14.060  23.429  0.00  0.00    +0.000 S 
ENDBRANCH   3  13
BRANCH   1  19
ATOM     18  C   UNL     1      -7.627  14.556  19.672  0.00  0.00    +0.000 C 
ATOM     19  S   UNL     1      -7.238  12.914  19.136  0.00  0.00    +0.000 S 
ATOM     20  O   UNL     1      -7.917  11.978  20.011  0.00  0.00    +0.000 OA
ATOM     21  O   UNL     1      -7.430  12.853  17.698  0.00  0.00    +0.000 OA
ENDBRANCH   1  19
BRANCH   9  22
ATOM     22  C   UNL     1      -0.219  12.687  20.801  0.00  0.00    +0.000 C 
BRANCH  22  23
ATOM     23  C   UNL     1       0.667  13.695  20.090  0.00  0.00    +0.000 A 
ATOM     24  C   UNL     1       0.225  14.892  19.514  0.00  0.00    +0.000 A 
ATOM     25  C   UNL     1       1.118  15.719  18.809  0.00  0.00    +0.000 A 
ATOM     26  C   UNL     1       2.458  15.369  18.686  0.00  0.00    +0.000 A 
ATOM     27 CL   UNL     1       3.537  16.375  17.800  0.00  0.00    +0.000 Cl
ATOM     28  C   UNL     1       2.931  14.201  19.271  0.00  0.00    +0.000 A 
ATOM     29  C   UNL     1       2.037  13.373  19.966  0.00  0.00    +0.000 A 
ENDBRANCH  22  23
ENDBRANCH   9  22
BRANCH  10  30
ATOM     30  C   UNL     1       0.881   9.619  19.239  0.00  0.00    +0.000 C 
BRANCH  30  31
ATOM     31  C   UNL     1       1.908   8.958  18.341  0.00  0.00    +0.000 C 
ATOM     32  O   UNL     1       2.357   9.455  17.319  0.00  0.00    +0.000 OA
BRANCH  31  33
ATOM     33  O   UNL     1       2.317   7.750  18.785  0.00  0.00    +0.000 OA
ATOM     34  H   UNL     1       2.105   7.005  18.193  0.00  0.00    +0.000 HD
ENDBRANCH  31  33
ENDBRANCH  30  31
ENDBRANCH  10  30
TORSDOF 7
ENDMDL
MODEL 8
REMARK VINA RESULT:      -6.3      1.173      1.657
REMARK  Name = 
REMARK  8 active torsions:
REMARK  status: ('A' for Active; 'I' for Inactive)
REMARK    1  A    between atoms: C_1  and  S_2
REMARK    2  A    between atoms: S_2  and  C_5
REMARK    3  A    between atoms: C_7  and  C_8
REMARK    4  A    between atoms: N_18  and  C_19
REMARK    5  A    between atoms: C_19  and  C_20
REMARK    6  A    between atoms: C_27  and  C_28
REMARK    7  A    between atoms: C_28  and  C_29
REMARK    8  A    between atoms: C_29  and  O_31
REMARK                            x       y       z     vdW  Elec       q    Type
REMARK                         _______ _______ _______ _____ _____    ______ ____
ROOT
ATOM      1  C   UNL     1      -5.605  12.280  20.511  0.00  0.00    +0.000 A 
ATOM      2  C   UNL     1      -5.251  11.658  19.329  0.00  0.00    +0.000 A 
ATOM      3  C   UNL     1      -3.910  11.601  18.851  0.00  0.00    +0.000 A 
ATOM      4  C   UNL     1      -2.902  12.272  19.618  0.00  0.00    +0.000 A 
ATOM      5  C   UNL     1      -3.306  12.890  20.838  0.00  0.00    +0.000 A 
ATOM      6  C   UNL     1      -4.637  12.886  21.285  0.00  0.00    +0.000 A 
ATOM      7  C   UNL     1      -2.163  13.361  21.467  0.00  0.00    +0.000 A 
ATOM      8  C   UNL     1      -1.091  13.187  20.646  0.00  0.00    +0.000 A 
ATOM      9  N   UNL     1      -1.500  12.514  19.508  0.00  0.00    +0.000 N 
ATOM     10  C   UNL     1       0.200  13.553  21.330  0.00  0.00    +0.000 C 
ATOM     11  C   UNL     1      -0.368  14.379  22.565  0.00  0.00    +0.000 C 
ATOM     12  C   UNL     1      -1.814  13.891  22.800  0.00  0.00    +0.000 C 
ENDROOT
BRANCH   3  13
ATOM     13  C   UNL     1      -3.748  10.819  17.615  0.00  0.00    +0.000 A 
ATOM     14  C   UNL     1      -2.984   9.664  17.471  0.00  0.00    +0.000 A 
ATOM     15  C   UNL     1      -2.770   9.291  16.115  0.00  0.00    +0.000 A 
ATOM     16  C   UNL     1      -3.435  10.131  15.253  0.00  0.00    +0.000 A 
ATOM     17  S   UNL     1      -4.175  11.431  16.075  0.00  0.00    +0.000 S 
ENDBRANCH   3  13
BRANCH   1  19
ATOM     18  C   UNL     1      -7.192  12.516  22.780  0.00  0.00    +0.000 C 
ATOM     19  S   UNL     1      -7.302  12.314  21.024  0.00  0.00    +0.000 S 
ATOM     20  O   UNL     1      -7.860  11.003  20.753  0.00  0.00    +0.000 OA
ATOM     21  O   UNL     1      -7.916  13.508  20.472  0.00  0.00    +0.000 OA
ENDBRANCH   1  19
BRANCH   9  22
ATOM     22  C   UNL     1      -0.527  11.940  18.564  0.00  0.00    +0.000 C 
BRANCH  22  23
ATOM     23  C   UNL     1       0.273  10.710  18.953  0.00  0.00    +0.000 A 
ATOM     24  C   UNL     1       1.352  10.187  18.230  0.00  0.00    +0.000 A 
ATOM     25  C   UNL     1       1.976   8.994  18.637  0.00  0.00    +0.000 A 
ATOM     26  C   UNL     1       1.541   8.323  19.775  0.00  0.00    +0.000 A 
ATOM     27 CL   UNL     1       2.295   6.851  20.252  0.00  0.00    +0.000 Cl
ATOM     28  C   UNL     1       0.492   8.833  20.529  0.00  0.00    +0.000 A 
ATOM     29  C   UNL     1      -0.135  10.018  20.116  0.00  0.00    +0.000 A 
ENDBRANCH  22  23
ENDBRANCH   9  22
BRANCH  10  30
ATOM     30  C   UNL     1       1.192  14.415  20.560  0.00  0.00    +0.000 C 
BRANCH  30  31
ATOM     31  C   UNL     1       0.500  15.667  20.059  0.00  0.00    +0.000 C 
ATOM     32  O   UNL     1      -0.080  15.755  18.987  0.00  0.00    +0.000 OA
BRANCH  31  33
ATOM     33  O   UNL     1       0.555  16.700  20.927  0.00  0.00    +0.000 OA
ATOM     34  H   UNL     1       0.559  16.441  21.867  0.00  0.00    +0.000 HD
ENDBRANCH  31  33
ENDBRANCH  30  31
ENDBRANCH  10  30
TORSDOF 7
ENDMDL
MODEL 9
REMARK VINA RESULT:      -6.3      3.729      8.424
REMARK  Name = 
REMARK  8 active torsions:
REMARK  status: ('A' for Active; 'I' for Inactive)
REMARK    1  A    between atoms: C_1  and  S_2
REMARK    2  A    between atoms: S_2  and  C_5
REMARK    3  A    between atoms: C_7  and  C_8
REMARK    4  A    between atoms: N_18  and  C_19
REMARK    5  A    between atoms: C_19  and  C_20
REMARK    6  A    between atoms: C_27  and  C_28
REMARK    7  A    between atoms: C_28  and  C_29
REMARK    8  A    between atoms: C_29  and  O_31
REMARK                            x       y       z     vdW  Elec       q    Type
REMARK                         _______ _______ _______ _____ _____    ______ ____
ROOT
ATOM      1  C   UNL     1       0.710  13.616  19.283  0.00  0.00    +0.000 A 
ATOM      2  C   UNL     1       0.112  14.125  20.421  0.00  0.00    +0.000 A 
ATOM      3  C   UNL     1      -1.236  13.838  20.785  0.00  0.00    +0.000 A 
ATOM      4  C   UNL     1      -2.008  13.028  19.890  0.00  0.00    +0.000 A 
ATOM      5  C   UNL     1      -1.350  12.511  18.736  0.00  0.00    +0.000 A 
ATOM      6  C   UNL     1      -0.006  12.793  18.440  0.00  0.00    +0.000 A 
ATOM      7  C   UNL     1      -2.239  11.664  18.091  0.00  0.00    +0.000 A 
ATOM      8  C   UNL     1      -3.452  11.728  18.707  0.00  0.00    +0.000 A 
ATOM      9  N   UNL     1      -3.349  12.544  19.819  0.00  0.00    +0.000 N 
ATOM     10  C   UNL     1      -4.420  10.725  18.136  0.00  0.00    +0.000 C 
ATOM     11  C   UNL     1      -3.670  10.359  16.782  0.00  0.00    +0.000 C 
ATOM     12  C   UNL     1      -2.173  10.667  17.005  0.00  0.00    +0.000 C 
ENDROOT
BRANCH   3  13
ATOM     13  C   UNL     1      -1.642  14.416  22.076  0.00  0.00    +0.000 A 
ATOM     14  C   UNL     1      -1.853  15.767  22.338  0.00  0.00    +0.000 A 
ATOM     15  C   UNL     1      -1.946  16.067  23.726  0.00  0.00    +0.000 A 
ATOM     16  C   UNL     1      -1.875  14.927  24.492  0.00  0.00    +0.000 A 
ATOM     17  S   UNL     1      -1.549  13.544  23.546  0.00  0.00    +0.000 S 
ENDBRANCH   3  13
BRANCH   1  19
ATOM     18  C   UNL     1       3.172  14.071  20.488  0.00  0.00    +0.000 C 
ATOM     19  S   UNL     1       2.390  14.034  18.900  0.00  0.00    +0.000 S 
ATOM     20  O   UNL     1       2.387  15.382  18.365  0.00  0.00    +0.000 OA
ATOM     21  O   UNL     1       2.965  12.939  18.141  0.00  0.00    +0.000 OA
ENDBRANCH   1  19
BRANCH   9  22
ATOM     22  C   UNL     1      -4.411  12.591  20.838  0.00  0.00    +0.000 C 
BRANCH  22  23
ATOM     23  C   UNL     1      -4.918  13.928  21.347  0.00  0.00    +0.000 A 
ATOM     24  C   UNL     1      -5.055  15.087  20.573  0.00  0.00    +0.000 A 
ATOM     25  C   UNL     1      -5.460  16.298  21.163  0.00  0.00    +0.000 A 
ATOM     26  C   UNL     1      -5.747  16.359  22.523  0.00  0.00    +0.000 A 
ATOM     27 CL   UNL     1      -6.218  17.852  23.240  0.00  0.00    +0.000 Cl
ATOM     28  C   UNL     1      -5.647  15.220  23.310  0.00  0.00    +0.000 A 
ATOM     29  C   UNL     1      -5.234  14.015  22.722  0.00  0.00    +0.000 A 
ENDBRANCH  22  23
ENDBRANCH   9  22
BRANCH  10  30
ATOM     30  C   UNL     1      -5.831  11.202  17.818  0.00  0.00    +0.000 C 
BRANCH  30  31
ATOM     31  C   UNL     1      -6.808  10.608  18.813  0.00  0.00    +0.000 C 
ATOM     32  O   UNL     1      -6.827   9.433  19.147  0.00  0.00    +0.000 OA
BRANCH  31  33
ATOM     33  O   UNL     1      -7.665  11.511  19.335  0.00  0.00    +0.000 OA
ATOM     34  H   UNL     1      -7.399  11.872  20.201  0.00  0.00    +0.000 HD
ENDBRANCH  31  33
ENDBRANCH  30  31
ENDBRANCH  10  30
TORSDOF 7
ENDMDL
