MODEL 1
REMARK VINA RESULT:      -8.4      0.000      0.000
REMARK  Name = 
REMARK  6 active torsions:
REMARK  status: ('A' for Active; 'I' for Inactive)
REMARK    1  A    between atoms: C_2  and  C_3
REMARK    2  A    between atoms: C_3  and  O_4
REMARK    3  A    between atoms: O_4  and  C_5
REMARK    4  A    between atoms: C_8  and  C_9
REMARK    5  A    between atoms: C_9  and  C_11
REMARK    6  A    between atoms: N_20  and  C_21
REMARK                            x       y       z     vdW  Elec       q    Type
REMARK                         _______ _______ _______ _____ _____    ______ ____
ROOT
ATOM      1  C   UNL     1       6.323   6.445  16.821  0.00  0.00    +0.000 A 
ATOM      2  C   UNL     1       5.034   6.906  17.105  0.00  0.00    +0.000 A 
ATOM      3  C   UNL     1       3.995   6.000  17.312  0.00  0.00    +0.000 A 
ATOM      4  C   UNL     1       4.224   4.627  17.201  0.00  0.00    +0.000 A 
ATOM      5  C   UNL     1       5.477   4.172  16.771  0.00  0.00    +0.000 A 
ATOM      6  C   UNL     1       6.529   5.084  16.600  0.00  0.00    +0.000 A 
ENDROOT
BRANCH   4   7
ATOM      7  C   UNL     1       3.108   3.716  17.569  0.00  0.00    +0.000 C 
ATOM      8  O   UNL     1       2.574   3.051  16.678  0.00  0.00    +0.000 OA
BRANCH   7   9
ATOM      9  C   UNL     1       2.618   3.543  18.959  0.00  0.00    +0.000 A 
ATOM     10  C   UNL     1       1.477   4.289  19.301  0.00  0.00    +0.000 A 
ATOM     11  C   UNL     1       0.915   4.194  20.575  0.00  0.00    +0.000 A 
ATOM     12  C   UNL     1       1.482   3.344  21.518  0.00  0.00    +0.000 A 
ATOM     13  C   UNL     1       2.639   2.630  21.205  0.00  0.00    +0.000 A 
ATOM     14  C   UNL     1       3.231   2.753  19.942  0.00  0.00    +0.000 A 
ATOM     15 CL   UNL     1       4.765   1.978  19.739  0.00  0.00    +0.000 Cl
ENDBRANCH   7   9
ENDBRANCH   4   7
BRANCH   1  16
ATOM     16  O   UNL     1       7.439   7.246  16.767  0.00  0.00    +0.000 OA
BRANCH  16  17
ATOM     17  C   UNL     1       7.948   7.590  18.055  0.00  0.00    +0.000 C 
BRANCH  17  19
ATOM     18  O   UNL     1       7.794   9.907  17.506  0.00  0.00    +0.000 OA
ATOM     19  C   UNL     1       8.307   9.062  18.236  0.00  0.00    +0.000 C 
ATOM     20  N   UNL     1       9.216   9.307  19.245  0.00  0.00    +0.000 N 
ATOM     21  H   UNL     1       9.678   8.490  19.636  0.00  0.00    +0.000 HD
BRANCH  20  22
ATOM     22  C   UNL     1       9.628  10.579  19.694  0.00  0.00    +0.000 A 
ATOM     23  C   UNL     1       9.212  11.147  20.898  0.00  0.00    +0.000 A 
ATOM     24  C   UNL     1       9.658  12.416  21.261  0.00  0.00    +0.000 A 
ATOM     25  C   UNL     1      10.516  13.084  20.404  0.00  0.00    +0.000 A 
ATOM     26  N   UNL     1      10.962  12.563  19.241  0.00  0.00    +0.000 NA
ATOM     27  C   UNL     1      10.513  11.325  18.920  0.00  0.00    +0.000 A 
ENDBRANCH  20  22
ENDBRANCH  17  19
ENDBRANCH  16  17
ENDBRANCH   1  16
TORSDOF 6
ENDMDL
MODEL 2
REMARK VINA RESULT:      -8.2      0.925      1.214
REMARK  Name = 
REMARK  6 active torsions:
REMARK  status: ('A' for Active; 'I' for Inactive)
REMARK    1  A    between atoms: C_2  and  C_3
REMARK    2  A    between atoms: C_3  and  O_4
REMARK    3  A    between atoms: O_4  and  C_5
REMARK    4  A    between atoms: C_8  and  C_9
REMARK    5  A    between atoms: C_9  and  C_11
REMARK    6  A    between atoms: N_20  and  C_21
REMARK                            x       y       z     vdW  Elec       q    Type
REMARK                         _______ _______ _______ _____ _____    ______ ____
ROOT
ATOM      1  C   UNL     1       6.827   6.588  17.111  0.00  0.00    +0.000 A 
ATOM      2  C   UNL     1       5.857   6.360  16.130  0.00  0.00    +0.000 A 
ATOM      3  C   UNL     1       4.839   5.432  16.352  0.00  0.00    +0.000 A 
ATOM      4  C   UNL     1       4.801   4.699  17.539  0.00  0.00    +0.000 A 
ATOM      5  C   UNL     1       5.853   4.820  18.456  0.00  0.00    +0.000 A 
ATOM      6  C   UNL     1       6.854   5.778  18.247  0.00  0.00    +0.000 A 
ENDROOT
BRANCH   4   7
ATOM      7  C   UNL     1       3.615   3.831  17.768  0.00  0.00    +0.000 C 
ATOM      8  O   UNL     1       3.164   3.189  16.817  0.00  0.00    +0.000 OA
BRANCH   7   9
ATOM      9  C   UNL     1       2.958   3.676  19.089  0.00  0.00    +0.000 A 
ATOM     10  C   UNL     1       1.913   4.576  19.361  0.00  0.00    +0.000 A 
ATOM     11  C   UNL     1       1.211   4.514  20.565  0.00  0.00    +0.000 A 
ATOM     12  C   UNL     1       1.537   3.543  21.507  0.00  0.00    +0.000 A 
ATOM     13  C   UNL     1       2.598   2.671  21.267  0.00  0.00    +0.000 A 
ATOM     14  C   UNL     1       3.335   2.755  20.078  0.00  0.00    +0.000 A 
ATOM     15 CL   UNL     1       4.745   1.758  19.981  0.00  0.00    +0.000 Cl
ENDBRANCH   7   9
ENDBRANCH   4   7
BRANCH   1  16
ATOM     16  O   UNL     1       7.763   7.592  17.057  0.00  0.00    +0.000 OA
BRANCH  16  17
ATOM     17  C   UNL     1       8.250   7.980  18.340  0.00  0.00    +0.000 C 
BRANCH  17  19
ATOM     18  O   UNL     1       8.060  10.277  17.728  0.00  0.00    +0.000 OA
ATOM     19  C   UNL     1       8.579   9.462  18.487  0.00  0.00    +0.000 C 
ATOM     20  N   UNL     1       9.472   9.750  19.499  0.00  0.00    +0.000 N 
ATOM     21  H   UNL     1       9.944   8.952  19.916  0.00  0.00    +0.000 HD
BRANCH  20  22
ATOM     22  C   UNL     1       9.855  11.041  19.919  0.00  0.00    +0.000 A 
ATOM     23  C   UNL     1      11.025  11.675  19.502  0.00  0.00    +0.000 A 
ATOM     24  C   UNL     1      11.335  12.948  19.974  0.00  0.00    +0.000 A 
ATOM     25  C   UNL     1      10.458  13.556  20.855  0.00  0.00    +0.000 A 
ATOM     26  N   UNL     1       9.303  12.990  21.267  0.00  0.00    +0.000 NA
ATOM     27  C   UNL     1       9.029  11.754  20.784  0.00  0.00    +0.000 A 
ENDBRANCH  20  22
ENDBRANCH  17  19
ENDBRANCH  16  17
ENDBRANCH   1  16
TORSDOF 6
ENDMDL
MODEL 3
REMARK VINA RESULT:      -8.0      1.022      1.526
REMARK  Name = 
REMARK  6 active torsions:
REMARK  status: ('A' for Active; 'I' for Inactive)
REMARK    1  A    between atoms: C_2  and  C_3
REMARK    2  A    between atoms: C_3  and  O_4
REMARK    3  A    between atoms: O_4  and  C_5
REMARK    4  A    between atoms: C_8  and  C_9
REMARK    5  A    between atoms: C_9  and  C_11
REMARK    6  A    between atoms: N_20  and  C_21
REMARK                            x       y       z     vdW  Elec       q    Type
REMARK                         _______ _______ _______ _____ _____    ______ ____
ROOT
ATOM      1  C   UNL     1       6.577   7.010  17.468  0.00  0.00    +0.000 A 
ATOM      2  C   UNL     1       6.920   5.795  18.069  0.00  0.00    +0.000 A 
ATOM      3  C   UNL     1       5.957   4.802  18.241  0.00  0.00    +0.000 A 
ATOM      4  C   UNL     1       4.636   5.025  17.848  0.00  0.00    +0.000 A 
ATOM      5  C   UNL     1       4.262   6.292  17.384  0.00  0.00    +0.000 A 
ATOM      6  C   UNL     1       5.239   7.276  17.178  0.00  0.00    +0.000 A 
ENDROOT
BRANCH   4   7
ATOM      7  C   UNL     1       3.695   3.876  17.934  0.00  0.00    +0.000 C 
ATOM      8  O   UNL     1       3.590   3.129  16.958  0.00  0.00    +0.000 OA
BRANCH   7   9
ATOM      9  C   UNL     1       2.893   3.564  19.142  0.00  0.00    +0.000 A 
ATOM     10  C   UNL     1       1.677   4.258  19.264  0.00  0.00    +0.000 A 
ATOM     11  C   UNL     1       0.831   4.034  20.351  0.00  0.00    +0.000 A 
ATOM     12  C   UNL     1       1.186   3.104  21.323  0.00  0.00    +0.000 A 
ATOM     13  C   UNL     1       2.409   2.438  21.235  0.00  0.00    +0.000 A 
ATOM     14  C   UNL     1       3.282   2.690  20.169  0.00  0.00    +0.000 A 
ATOM     15 CL   UNL     1       4.846   1.959  20.273  0.00  0.00    +0.000 Cl
ENDBRANCH   7   9
ENDBRANCH   4   7
BRANCH   1  16
ATOM     16  O   UNL     1       7.483   7.978  17.104  0.00  0.00    +0.000 OA
BRANCH  16  17
ATOM     17  C   UNL     1       8.455   8.248  18.113  0.00  0.00    +0.000 C 
BRANCH  17  19
ATOM     18  O   UNL     1       8.141  10.580  17.724  0.00  0.00    +0.000 OA
ATOM     19  C   UNL     1       8.656   9.724  18.440  0.00  0.00    +0.000 C 
ATOM     20  N   UNL     1       9.435   9.961  19.554  0.00  0.00    +0.000 N 
ATOM     21  H   UNL     1       9.930   9.156  19.929  0.00  0.00    +0.000 HD
BRANCH  20  22
ATOM     22  C   UNL     1       9.681  11.222  20.137  0.00  0.00    +0.000 A 
ATOM     23  C   UNL     1      10.621  12.130  19.649  0.00  0.00    +0.000 A 
ATOM     24  C   UNL     1      10.809  13.350  20.293  0.00  0.00    +0.000 A 
ATOM     25  C   UNL     1      10.045  13.631  21.412  0.00  0.00    +0.000 A 
ATOM     26  N   UNL     1       9.108  12.792  21.905  0.00  0.00    +0.000 NA
ATOM     27  C   UNL     1       8.946  11.616  21.252  0.00  0.00    +0.000 A 
ENDBRANCH  20  22
ENDBRANCH  17  19
ENDBRANCH  16  17
ENDBRANCH   1  16
TORSDOF 6
ENDMDL
MODEL 4
REMARK VINA RESULT:      -7.9      2.054      2.819
REMARK  Name = 
REMARK  6 active torsions:
REMARK  status: ('A' for Active; 'I' for Inactive)
REMARK    1  A    between atoms: C_2  and  C_3
REMARK    2  A    between atoms: C_3  and  O_4
REMARK    3  A    between atoms: O_4  and  C_5
REMARK    4  A    between atoms: C_8  and  C_9
REMARK    5  A    between atoms: C_9  and  C_11
REMARK    6  A    between atoms: N_20  and  C_21
REMARK                            x       y       z     vdW  Elec       q    Type
REMARK                         _______ _______ _______ _____ _____    ______ ____
ROOT
ATOM      1  C   UNL     1       7.557   7.092  18.328  0.00  0.00    +0.000 A 
ATOM      2  C   UNL     1       7.451   5.826  18.912  0.00  0.00    +0.000 A 
ATOM      3  C   UNL     1       6.470   4.934  18.478  0.00  0.00    +0.000 A 
ATOM      4  C   UNL     1       5.565   5.310  17.484  0.00  0.00    +0.000 A 
ATOM      5  C   UNL     1       5.578   6.626  17.005  0.00  0.00    +0.000 A 
ATOM      6  C   UNL     1       6.587   7.508  17.417  0.00  0.00    +0.000 A 
ENDROOT
BRANCH   4   7
ATOM      7  C   UNL     1       4.638   4.265  16.974  0.00  0.00    +0.000 C 
ATOM      8  O   UNL     1       4.846   3.791  15.854  0.00  0.00    +0.000 OA
BRANCH   7   9
ATOM      9  C   UNL     1       3.488   3.742  17.751  0.00  0.00    +0.000 A 
ATOM     10  C   UNL     1       3.439   2.346  17.905  0.00  0.00    +0.000 A 
ATOM     11  C   UNL     1       2.413   1.741  18.631  0.00  0.00    +0.000 A 
ATOM     12  C   UNL     1       1.429   2.526  19.223  0.00  0.00    +0.000 A 
ATOM     13  C   UNL     1       1.442   3.909  19.043  0.00  0.00    +0.000 A 
ATOM     14  C   UNL     1       2.447   4.519  18.280  0.00  0.00    +0.000 A 
ATOM     15 CL   UNL     1       2.247   6.208  17.964  0.00  0.00    +0.000 Cl
ENDBRANCH   7   9
ENDBRANCH   4   7
BRANCH   1  16
ATOM     16  O   UNL     1       8.586   7.971  18.567  0.00  0.00    +0.000 OA
BRANCH  16  17
ATOM     17  C   UNL     1       8.367   9.262  18.000  0.00  0.00    +0.000 C 
BRANCH  17  19
ATOM     18  O   UNL     1       9.688  10.234  19.732  0.00  0.00    +0.000 OA
ATOM     19  C   UNL     1       9.186  10.389  18.621  0.00  0.00    +0.000 C 
ATOM     20  N   UNL     1       9.281  11.523  17.840  0.00  0.00    +0.000 N 
ATOM     21  H   UNL     1       8.665  11.559  17.032  0.00  0.00    +0.000 HD
BRANCH  20  22
ATOM     22  C   UNL     1      10.067  12.659  18.126  0.00  0.00    +0.000 A 
ATOM     23  C   UNL     1      11.451  12.703  17.963  0.00  0.00    +0.000 A 
ATOM     24  C   UNL     1      12.153  13.863  18.280  0.00  0.00    +0.000 A 
ATOM     25  C   UNL     1      11.445  14.955  18.752  0.00  0.00    +0.000 A 
ATOM     26  N   UNL     1      10.103  14.965  18.902  0.00  0.00    +0.000 NA
ATOM     27  C   UNL     1       9.450  13.822  18.579  0.00  0.00    +0.000 A 
ENDBRANCH  20  22
ENDBRANCH  17  19
ENDBRANCH  16  17
ENDBRANCH   1  16
TORSDOF 6
ENDMDL
MODEL 5
REMARK VINA RESULT:      -7.9      5.761      8.237
REMARK  Name = 
REMARK  6 active torsions:
REMARK  status: ('A' for Active; 'I' for Inactive)
REMARK    1  A    between atoms: C_2  and  C_3
REMARK    2  A    between atoms: C_3  and  O_4
REMARK    3  A    between atoms: O_4  and  C_5
REMARK    4  A    between atoms: C_8  and  C_9
REMARK    5  A    between atoms: C_9  and  C_11
REMARK    6  A    between atoms: N_20  and  C_21
REMARK                            x       y       z     vdW  Elec       q    Type
REMARK                         _______ _______ _______ _____ _____    ______ ____
ROOT
ATOM      1  C   UNL     1       2.125   7.334  19.846  0.00  0.00    +0.000 A 
ATOM      2  C   UNL     1       1.400   8.079  20.781  0.00  0.00    +0.000 A 
ATOM      3  C   UNL     1       0.788   9.274  20.402  0.00  0.00    +0.000 A 
ATOM      4  C   UNL     1       0.923   9.753  19.098  0.00  0.00    +0.000 A 
ATOM      5  C   UNL     1       1.769   9.084  18.205  0.00  0.00    +0.000 A 
ATOM      6  C   UNL     1       2.353   7.865  18.577  0.00  0.00    +0.000 A 
ENDROOT
BRANCH   4   7
ATOM      7  C   UNL     1       0.132  10.956  18.727  0.00  0.00    +0.000 C 
ATOM      8  O   UNL     1       0.704  12.049  18.696  0.00  0.00    +0.000 OA
BRANCH   7   9
ATOM      9  C   UNL     1      -1.306  10.911  18.366  0.00  0.00    +0.000 A 
ATOM     10  C   UNL     1      -1.652  10.006  17.348  0.00  0.00    +0.000 A 
ATOM     11  C   UNL     1      -2.977   9.864  16.936  0.00  0.00    +0.000 A 
ATOM     12  C   UNL     1      -3.975  10.618  17.546  0.00  0.00    +0.000 A 
ATOM     13  C   UNL     1      -3.640  11.550  18.528  0.00  0.00    +0.000 A 
ATOM     14  C   UNL     1      -2.305  11.727  18.916  0.00  0.00    +0.000 A 
ATOM     15 CL   UNL     1      -1.992  13.044  19.993  0.00  0.00    +0.000 Cl
ENDBRANCH   7   9
ENDBRANCH   4   7
BRANCH   1  16
ATOM     16  O   UNL     1       2.619   6.072  20.075  0.00  0.00    +0.000 OA
BRANCH  16  17
ATOM     17  C   UNL     1       2.399   5.174  18.989  0.00  0.00    +0.000 C 
BRANCH  17  19
ATOM     18  O   UNL     1       4.227   3.672  18.687  0.00  0.00    +0.000 OA
ATOM     19  C   UNL     1       3.662   4.687  18.286  0.00  0.00    +0.000 C 
ATOM     20  N   UNL     1       4.065   5.474  17.226  0.00  0.00    +0.000 N 
ATOM     21  H   UNL     1       3.595   6.371  17.135  0.00  0.00    +0.000 HD
BRANCH  20  22
ATOM     22  C   UNL     1       5.127   5.188  16.342  0.00  0.00    +0.000 A 
ATOM     23  C   UNL     1       5.066   4.211  15.349  0.00  0.00    +0.000 A 
ATOM     24  C   UNL     1       6.166   3.985  14.525  0.00  0.00    +0.000 A 
ATOM     25  C   UNL     1       7.303   4.750  14.718  0.00  0.00    +0.000 A 
ATOM     26  N   UNL     1       7.398   5.722  15.651  0.00  0.00    +0.000 NA
ATOM     27  C   UNL     1       6.307   5.920  16.432  0.00  0.00    +0.000 A 
ENDBRANCH  20  22
ENDBRANCH  17  19
ENDBRANCH  16  17
ENDBRANCH   1  16
TORSDOF 6
ENDMDL
MODEL 6
REMARK VINA RESULT:      -7.8      1.376      1.730
REMARK  Name = 
REMARK  6 active torsions:
REMARK  status: ('A' for Active; 'I' for Inactive)
REMARK    1  A    between atoms: C_2  and  C_3
REMARK    2  A    between atoms: C_3  and  O_4
REMARK    3  A    between atoms: O_4  and  C_5
REMARK    4  A    between atoms: C_8  and  C_9
REMARK    5  A    between atoms: C_9  and  C_11
REMARK    6  A    between atoms: N_20  and  C_21
REMARK                            x       y       z     vdW  Elec       q    Type
REMARK                         _______ _______ _______ _____ _____    ______ ____
ROOT
ATOM      1  C   UNL     1       6.008   6.496  16.899  0.00  0.00    +0.000 A 
ATOM      2  C   UNL     1       4.874   7.220  17.277  0.00  0.00    +0.000 A 
ATOM      3  C   UNL     1       3.680   6.557  17.559  0.00  0.00    +0.000 A 
ATOM      4  C   UNL     1       3.598   5.169  17.432  0.00  0.00    +0.000 A 
ATOM      5  C   UNL     1       4.689   4.461  16.911  0.00  0.00    +0.000 A 
ATOM      6  C   UNL     1       5.898   5.126  16.664  0.00  0.00    +0.000 A 
ENDROOT
BRANCH   4   7
ATOM      7  C   UNL     1       2.340   4.515  17.880  0.00  0.00    +0.000 C 
ATOM      8  O   UNL     1       1.391   4.464  17.094  0.00  0.00    +0.000 OA
BRANCH   7   9
ATOM      9  C   UNL     1       2.172   3.895  19.218  0.00  0.00    +0.000 A 
ATOM     10  C   UNL     1       2.093   2.492  19.235  0.00  0.00    +0.000 A 
ATOM     11  C   UNL     1       1.951   1.797  20.436  0.00  0.00    +0.000 A 
ATOM     12  C   UNL     1       1.899   2.498  21.637  0.00  0.00    +0.000 A 
ATOM     13  C   UNL     1       1.935   3.892  21.631  0.00  0.00    +0.000 A 
ATOM     14  C   UNL     1       2.034   4.597  20.424  0.00  0.00    +0.000 A 
ATOM     15 CL   UNL     1       1.869   6.315  20.528  0.00  0.00    +0.000 Cl
ENDBRANCH   7   9
ENDBRANCH   4   7
BRANCH   1  16
ATOM     16  O   UNL     1       7.264   7.038  16.765  0.00  0.00    +0.000 OA
BRANCH  16  17
ATOM     17  C   UNL     1       7.848   7.425  18.008  0.00  0.00    +0.000 C 
BRANCH  17  19
ATOM     18  O   UNL     1       7.573   9.727  17.444  0.00  0.00    +0.000 OA
ATOM     19  C   UNL     1       8.180   8.909  18.132  0.00  0.00    +0.000 C 
ATOM     20  N   UNL     1       9.177   9.196  19.041  0.00  0.00    +0.000 N 
ATOM     21  H   UNL     1       9.699   8.398  19.396  0.00  0.00    +0.000 HD
BRANCH  20  22
ATOM     22  C   UNL     1       9.595  10.487  19.429  0.00  0.00    +0.000 A 
ATOM     23  C   UNL     1      10.330  11.341  18.608  0.00  0.00    +0.000 A 
ATOM     24  C   UNL     1      10.713  12.597  19.074  0.00  0.00    +0.000 A 
ATOM     25  C   UNL     1      10.344  12.965  20.356  0.00  0.00    +0.000 A 
ATOM     26  N   UNL     1       9.612  12.180  21.176  0.00  0.00    +0.000 NA
ATOM     27  C   UNL     1       9.251  10.967  20.690  0.00  0.00    +0.000 A 
ENDBRANCH  20  22
ENDBRANCH  17  19
ENDBRANCH  16  17
ENDBRANCH   1  16
TORSDOF 6
ENDMDL
MODEL 7
REMARK VINA RESULT:      -7.8      1.849      2.497
REMARK  Name = 
REMARK  6 active torsions:
REMARK  status: ('A' for Active; 'I' for Inactive)
REMARK    1  A    between atoms: C_2  and  C_3
REMARK    2  A    between atoms: C_3  and  O_4
REMARK    3  A    between atoms: O_4  and  C_5
REMARK    4  A    between atoms: C_8  and  C_9
REMARK    5  A    between atoms: C_9  and  C_11
REMARK    6  A    between atoms: N_20  and  C_21
REMARK                            x       y       z     vdW  Elec       q    Type
REMARK                         _______ _______ _______ _____ _____    ______ ____
ROOT
ATOM      1  C   UNL     1       7.536   6.934  18.284  0.00  0.00    +0.000 A 
ATOM      2  C   UNL     1       7.488   5.742  19.013  0.00  0.00    +0.000 A 
ATOM      3  C   UNL     1       6.566   4.751  18.677  0.00  0.00    +0.000 A 
ATOM      4  C   UNL     1       5.660   4.955  17.634  0.00  0.00    +0.000 A 
ATOM      5  C   UNL     1       5.610   6.204  17.003  0.00  0.00    +0.000 A 
ATOM      6  C   UNL     1       6.561   7.185  17.319  0.00  0.00    +0.000 A 
ENDROOT
BRANCH   4   7
ATOM      7  C   UNL     1       4.801   3.807  17.241  0.00  0.00    +0.000 C 
ATOM      8  O   UNL     1       5.178   3.079  16.319  0.00  0.00    +0.000 OA
BRANCH   7   9
ATOM      9  C   UNL     1       3.523   3.473  17.916  0.00  0.00    +0.000 A 
ATOM     10  C   UNL     1       2.385   4.144  17.437  0.00  0.00    +0.000 A 
ATOM     11  C   UNL     1       1.126   3.898  17.984  0.00  0.00    +0.000 A 
ATOM     12  C   UNL     1       0.987   2.968  19.009  0.00  0.00    +0.000 A 
ATOM     13  C   UNL     1       2.114   2.325  19.522  0.00  0.00    +0.000 A 
ATOM     14  C   UNL     1       3.387   2.599  19.005  0.00  0.00    +0.000 A 
ATOM     15 CL   UNL     1       4.722   1.895  19.850  0.00  0.00    +0.000 Cl
ENDBRANCH   7   9
ENDBRANCH   4   7
BRANCH   1  16
ATOM     16  O   UNL     1       8.510   7.892  18.429  0.00  0.00    +0.000 OA
BRANCH  16  17
ATOM     17  C   UNL     1       8.135   9.162  17.898  0.00  0.00    +0.000 C 
BRANCH  17  19
ATOM     18  O   UNL     1       9.627  10.204  19.441  0.00  0.00    +0.000 OA
ATOM     19  C   UNL     1       8.920  10.350  18.446  0.00  0.00    +0.000 C 
ATOM     20  N   UNL     1       8.745  11.523  17.742  0.00  0.00    +0.000 N 
ATOM     21  H   UNL     1       7.994  11.523  17.056  0.00  0.00    +0.000 HD
BRANCH  20  22
ATOM     22  C   UNL     1       9.436  12.732  17.967  0.00  0.00    +0.000 A 
ATOM     23  C   UNL     1      10.662  13.044  17.379  0.00  0.00    +0.000 A 
ATOM     24  C   UNL     1      11.283  14.257  17.665  0.00  0.00    +0.000 A 
ATOM     25  C   UNL     1      10.655  15.132  18.535  0.00  0.00    +0.000 A 
ATOM     26  N   UNL     1       9.457  14.882  19.108  0.00  0.00    +0.000 NA
ATOM     27  C   UNL     1       8.877  13.695  18.804  0.00  0.00    +0.000 A 
ENDBRANCH  20  22
ENDBRANCH  17  19
ENDBRANCH  16  17
ENDBRANCH   1  16
TORSDOF 6
ENDMDL
MODEL 8
REMARK VINA RESULT:      -7.8      1.587      2.050
REMARK  Name = 
REMARK  6 active torsions:
REMARK  status: ('A' for Active; 'I' for Inactive)
REMARK    1  A    between atoms: C_2  and  C_3
REMARK    2  A    between atoms: C_3  and  O_4
REMARK    3  A    between atoms: O_4  and  C_5
REMARK    4  A    between atoms: C_8  and  C_9
REMARK    5  A    between atoms: C_9  and  C_11
REMARK    6  A    between atoms: N_20  and  C_21
REMARK                            x       y       z     vdW  Elec       q    Type
REMARK                         _______ _______ _______ _____ _____    ______ ____
ROOT
ATOM      1  C   UNL     1       7.457   6.972  18.210  0.00  0.00    +0.000 A 
ATOM      2  C   UNL     1       7.416   5.802  18.975  0.00  0.00    +0.000 A 
ATOM      3  C   UNL     1       6.378   4.887  18.802  0.00  0.00    +0.000 A 
ATOM      4  C   UNL     1       5.353   5.148  17.890  0.00  0.00    +0.000 A 
ATOM      5  C   UNL     1       5.315   6.384  17.234  0.00  0.00    +0.000 A 
ATOM      6  C   UNL     1       6.379   7.286  17.383  0.00  0.00    +0.000 A 
ENDROOT
BRANCH   4   7
ATOM      7  C   UNL     1       4.356   4.069  17.657  0.00  0.00    +0.000 C 
ATOM      8  O   UNL     1       4.486   3.354  16.661  0.00  0.00    +0.000 OA
BRANCH   7   9
ATOM      9  C   UNL     1       3.224   3.789  18.574  0.00  0.00    +0.000 A 
ATOM     10  C   UNL     1       2.561   4.917  19.089  0.00  0.00    +0.000 A 
ATOM     11  C   UNL     1       1.471   4.776  19.948  0.00  0.00    +0.000 A 
ATOM     12  C   UNL     1       1.024   3.505  20.295  0.00  0.00    +0.000 A 
ATOM     13  C   UNL     1       1.698   2.379  19.825  0.00  0.00    +0.000 A 
ATOM     14  C   UNL     1       2.819   2.514  18.996  0.00  0.00    +0.000 A 
ATOM     15 CL   UNL     1       3.687   1.060  18.641  0.00  0.00    +0.000 Cl
ENDBRANCH   7   9
ENDBRANCH   4   7
BRANCH   1  16
ATOM     16  O   UNL     1       8.517   7.846  18.187  0.00  0.00    +0.000 OA
BRANCH  16  17
ATOM     17  C   UNL     1       8.123   9.205  18.004  0.00  0.00    +0.000 C 
BRANCH  17  19
ATOM     18  O   UNL     1       9.354  10.012  19.881  0.00  0.00    +0.000 OA
ATOM     19  C   UNL     1       8.986  10.233  18.729  0.00  0.00    +0.000 C 
ATOM     20  N   UNL     1       9.276  11.359  17.987  0.00  0.00    +0.000 N 
ATOM     21  H   UNL     1       8.752  11.470  17.123  0.00  0.00    +0.000 HD
BRANCH  20  22
ATOM     22  C   UNL     1      10.142  12.404  18.376  0.00  0.00    +0.000 A 
ATOM     23  C   UNL     1       9.799  13.390  19.300  0.00  0.00    +0.000 A 
ATOM     24  C   UNL     1      10.711  14.393  19.619  0.00  0.00    +0.000 A 
ATOM     25  C   UNL     1      11.949  14.380  19.001  0.00  0.00    +0.000 A 
ATOM     26  N   UNL     1      12.332  13.432  18.119  0.00  0.00    +0.000 NA
ATOM     27  C   UNL     1      11.423  12.467  17.835  0.00  0.00    +0.000 A 
ENDBRANCH  20  22
ENDBRANCH  17  19
ENDBRANCH  16  17
ENDBRANCH   1  16
TORSDOF 6
ENDMDL
MODEL 9
REMARK VINA RESULT:      -7.8      6.806      8.105
REMARK  Name = 
REMARK  6 active torsions:
REMARK  status: ('A' for Active; 'I' for Inactive)
REMARK    1  A    between atoms: C_2  and  C_3
REMARK    2  A    between atoms: C_3  and  O_4
REMARK    3  A    between atoms: O_4  and  C_5
REMARK    4  A    between atoms: C_8  and  C_9
REMARK    5  A    between atoms: C_9  and  C_11
REMARK    6  A    between atoms: N_20  and  C_21
REMARK                            x       y       z     vdW  Elec       q    Type
REMARK                         _______ _______ _______ _____ _____    ______ ____
ROOT
ATOM      1  C   UNL     1       1.041   9.687  18.761  0.00  0.00    +0.000 A 
ATOM      2  C   UNL     1       1.866   9.139  17.774  0.00  0.00    +0.000 A 
ATOM      3  C   UNL     1       2.560   7.954  18.020  0.00  0.00    +0.000 A 
ATOM      4  C   UNL     1       2.464   7.326  19.263  0.00  0.00    +0.000 A 
ATOM      5  C   UNL     1       1.758   7.953  20.297  0.00  0.00    +0.000 A 
ATOM      6  C   UNL     1       1.032   9.124  20.036  0.00  0.00    +0.000 A 
ENDROOT
BRANCH   4   7
ATOM      7  C   UNL     1       3.117   5.998  19.410  0.00  0.00    +0.000 C 
ATOM      8  O   UNL     1       4.320   5.903  19.150  0.00  0.00    +0.000 OA
BRANCH   7   9
ATOM      9  C   UNL     1       2.406   4.784  19.878  0.00  0.00    +0.000 A 
ATOM     10  C   UNL     1       2.687   4.380  21.194  0.00  0.00    +0.000 A 
ATOM     11  C   UNL     1       2.064   3.261  21.749  0.00  0.00    +0.000 A 
ATOM     12  C   UNL     1       1.143   2.540  20.997  0.00  0.00    +0.000 A 
ATOM     13  C   UNL     1       0.886   2.905  19.675  0.00  0.00    +0.000 A 
ATOM     14  C   UNL     1       1.539   4.002  19.099  0.00  0.00    +0.000 A 
ATOM     15 CL   UNL     1       1.290   4.235  17.404  0.00  0.00    +0.000 Cl
ENDBRANCH   7   9
ENDBRANCH   4   7
BRANCH   1  16
ATOM     16  O   UNL     1       0.193  10.750  18.559  0.00  0.00    +0.000 OA
BRANCH  16  17
ATOM     17  C   UNL     1      -1.069  10.595  19.205  0.00  0.00    +0.000 C 
BRANCH  17  19
ATOM     18  O   UNL     1      -2.061  12.743  19.508  0.00  0.00    +0.000 OA
ATOM     19  C   UNL     1      -1.515  11.784  20.049  0.00  0.00    +0.000 C 
ATOM     20  N   UNL     1      -1.244  11.661  21.396  0.00  0.00    +0.000 N 
ATOM     21  H   UNL     1      -0.632  10.893  21.659  0.00  0.00    +0.000 HD
BRANCH  20  22
ATOM     22  C   UNL     1      -1.650  12.559  22.406  0.00  0.00    +0.000 A 
ATOM     23  C   UNL     1      -2.911  12.537  23.001  0.00  0.00    +0.000 A 
ATOM     24  C   UNL     1      -3.235  13.469  23.983  0.00  0.00    +0.000 A 
ATOM     25  C   UNL     1      -2.280  14.402  24.348  0.00  0.00    +0.000 A 
ATOM     26  N   UNL     1      -1.039  14.445  23.817  0.00  0.00    +0.000 NA
ATOM     27  C   UNL     1      -0.755  13.521  22.867  0.00  0.00    +0.000 A 
ENDBRANCH  20  22
ENDBRANCH  17  19
ENDBRANCH  16  17
ENDBRANCH   1  16
TORSDOF 6
ENDMDL
