MODEL 1
REMARK VINA RESULT:      -6.4      0.000      0.000
REMARK  Name = 
REMARK  14 active torsions:
REMARK  status: ('A' for Active; 'I' for Inactive)
REMARK    1  A    between atoms: C_1  and  C_2
REMARK    2  A    between atoms: C_2  and  N_3
REMARK    3  A    between atoms: N_3  and  C_4
REMARK    4  A    between atoms: N_3  and  P_6
REMARK    5  A    between atoms: C_4  and  C_5
REMARK    6  A    between atoms: P_6  and  O_8
REMARK    7  A    between atoms: P_6  and  N_21
REMARK    8  A    between atoms: O_8  and  C_9
REMARK    9  A    between atoms: C_13  and  C_14
REMARK   10  A    between atoms: C_14  and  C_15
REMARK   11  A    between atoms: N_21  and  C_22
REMARK   12  A    between atoms: N_21  and  C_24
REMARK   13  A    between atoms: C_22  and  C_23
REMARK   14  A    between atoms: C_24  and  C_25
REMARK                            x       y       z     vdW  Elec       q    Type
REMARK                         _______ _______ _______ _____ _____    ______ ____
ROOT
ATOM      1  O   UNL     1       4.894   6.913  16.622  0.00  0.00    +0.000 OA
ENDROOT
BRANCH   1   2
ATOM      2  C   UNL     1       3.914   7.255  17.464  0.00  0.00    +0.000 A 
ATOM      3  O   UNL     1       3.196   8.345  17.070  0.00  0.00    +0.000 OA
ATOM      4  C   UNL     1       2.173   8.498  17.946  0.00  0.00    +0.000 A 
ATOM      5  C   UNL     1       2.220   7.518  18.907  0.00  0.00    +0.000 A 
ATOM      6  C   UNL     1       3.383   6.717  18.627  0.00  0.00    +0.000 A 
BRANCH   6   7
ATOM      7  C   UNL     1       3.935   5.675  19.558  0.00  0.00    +0.000 C 
BRANCH   7   8
ATOM      8  C   UNL     1       2.929   4.702  20.134  0.00  0.00    +0.000 A 
ATOM      9  C   UNL     1       1.545   4.763  19.993  0.00  0.00    +0.000 A 
ATOM     10  C   UNL     1       0.724   3.719  20.439  0.00  0.00    +0.000 A 
ATOM     11  C   UNL     1       1.266   2.597  21.057  0.00  0.00    +0.000 A 
ATOM     12  C   UNL     1       2.635   2.538  21.262  0.00  0.00    +0.000 A 
ATOM     13  C   UNL     1       3.453   3.577  20.807  0.00  0.00    +0.000 A 
ENDBRANCH   7   8
ENDBRANCH   6   7
ENDBRANCH   1   2
BRANCH   1  14
ATOM     14  P   UNL     1       6.059   5.761  17.010  0.00  0.00    +0.000 P 
ATOM     15  O   UNL     1       7.235   5.828  16.016  0.00  0.00    +0.000 OA
BRANCH  14  16
ATOM     16  N   UNL     1       5.183   4.611  15.972  0.00  0.00    +0.000 NA
BRANCH  16  18
ATOM     17  C   UNL     1       5.881   3.837  13.558  0.00  0.00    +0.000 C 
ATOM     18  C   UNL     1       6.204   3.920  15.047  0.00  0.00    +0.000 C 
ENDBRANCH  16  18
BRANCH  16  19
ATOM     19  C   UNL     1       4.472   3.459  16.578  0.00  0.00    +0.000 C 
ATOM     20  C   UNL     1       2.969   3.515  16.777  0.00  0.00    +0.000 C 
ENDBRANCH  16  19
ENDBRANCH  14  16
BRANCH  14  21
ATOM     21  N   UNL     1       6.935   6.911  18.049  0.00  0.00    +0.000 NA
BRANCH  21  22
ATOM     22  C   UNL     1       8.069   6.361  18.869  0.00  0.00    +0.000 C 
ATOM     23  C   UNL     1       7.852   5.356  19.999  0.00  0.00    +0.000 C 
ENDBRANCH  21  22
BRANCH  21  24
ATOM     24  C   UNL     1       7.543   7.993  17.202  0.00  0.00    +0.000 C 
ATOM     25  C   UNL     1       8.211   9.147  17.969  0.00  0.00    +0.000 C 
ENDBRANCH  21  24
ENDBRANCH  14  21
ENDBRANCH   1  14
TORSDOF 10
ENDMDL
MODEL 2
REMARK VINA RESULT:      -6.3      2.205      6.284
REMARK  Name = 
REMARK  14 active torsions:
REMARK  status: ('A' for Active; 'I' for Inactive)
REMARK    1  A    between atoms: C_1  and  C_2
REMARK    2  A    between atoms: C_2  and  N_3
REMARK    3  A    between atoms: N_3  and  C_4
REMARK    4  A    between atoms: N_3  and  P_6
REMARK    5  A    between atoms: C_4  and  C_5
REMARK    6  A    between atoms: P_6  and  O_8
REMARK    7  A    between atoms: P_6  and  N_21
REMARK    8  A    between atoms: O_8  and  C_9
REMARK    9  A    between atoms: C_13  and  C_14
REMARK   10  A    between atoms: C_14  and  C_15
REMARK   11  A    between atoms: N_21  and  C_22
REMARK   12  A    between atoms: N_21  and  C_24
REMARK   13  A    between atoms: C_22  and  C_23
REMARK   14  A    between atoms: C_24  and  C_25
REMARK                            x       y       z     vdW  Elec       q    Type
REMARK                         _______ _______ _______ _____ _____    ______ ____
ROOT
ATOM      1  O   UNL     1       3.848   5.847  17.451  0.00  0.00    +0.000 OA
ENDROOT
BRANCH   1   2
ATOM      2  C   UNL     1       5.168   5.635  17.436  0.00  0.00    +0.000 A 
ATOM      3  O   UNL     1       5.878   6.487  18.230  0.00  0.00    +0.000 OA
ATOM      4  C   UNL     1       7.170   6.079  18.211  0.00  0.00    +0.000 A 
ATOM      5  C   UNL     1       7.307   4.971  17.410  0.00  0.00    +0.000 A 
ATOM      6  C   UNL     1       6.007   4.692  16.861  0.00  0.00    +0.000 A 
BRANCH   6   7
ATOM      7  C   UNL     1       5.749   3.701  15.761  0.00  0.00    +0.000 C 
BRANCH   7   8
ATOM      8  C   UNL     1       6.260   4.087  14.390  0.00  0.00    +0.000 A 
ATOM      9  C   UNL     1       7.255   5.021  14.110  0.00  0.00    +0.000 A 
ATOM     10  C   UNL     1       7.754   5.181  12.812  0.00  0.00    +0.000 A 
ATOM     11  C   UNL     1       7.255   4.426  11.755  0.00  0.00    +0.000 A 
ATOM     12  C   UNL     1       6.225   3.532  11.996  0.00  0.00    +0.000 A 
ATOM     13  C   UNL     1       5.735   3.366  13.295  0.00  0.00    +0.000 A 
ENDBRANCH   7   8
ENDBRANCH   6   7
ENDBRANCH   1   2
BRANCH   1  14
ATOM     14  P   UNL     1       2.904   5.575  18.818  0.00  0.00    +0.000 P 
ATOM     15  O   UNL     1       3.785   5.535  20.083  0.00  0.00    +0.000 OA
BRANCH  14  16
ATOM     16  N   UNL     1       3.124   3.829  18.549  0.00  0.00    +0.000 NA
BRANCH  16  18
ATOM     17  C   UNL     1       4.302   1.791  19.721  0.00  0.00    +0.000 C 
ATOM     18  C   UNL     1       4.126   3.302  19.595  0.00  0.00    +0.000 C 
ENDBRANCH  16  18
BRANCH  16  19
ATOM     19  C   UNL     1       1.976   2.903  18.713  0.00  0.00    +0.000 C 
ATOM     20  C   UNL     1       0.825   3.279  19.626  0.00  0.00    +0.000 C 
ENDBRANCH  16  19
ENDBRANCH  14  16
BRANCH  14  21
ATOM     21  N   UNL     1       2.684   7.320  19.088  0.00  0.00    +0.000 NA
BRANCH  21  22
ATOM     22  C   UNL     1       2.567   8.188  17.866  0.00  0.00    +0.000 C 
ATOM     23  C   UNL     1       1.986   9.600  17.914  0.00  0.00    +0.000 C 
ENDBRANCH  21  22
BRANCH  21  24
ATOM     24  C   UNL     1       1.421   7.556  19.867  0.00  0.00    +0.000 C 
ATOM     25  C   UNL     1       1.601   8.179  21.262  0.00  0.00    +0.000 C 
ENDBRANCH  21  24
ENDBRANCH  14  21
ENDBRANCH   1  14
TORSDOF 10
ENDMDL
MODEL 3
REMARK VINA RESULT:      -6.3      3.275      5.717
REMARK  Name = 
REMARK  14 active torsions:
REMARK  status: ('A' for Active; 'I' for Inactive)
REMARK    1  A    between atoms: C_1  and  C_2
REMARK    2  A    between atoms: C_2  and  N_3
REMARK    3  A    between atoms: N_3  and  C_4
REMARK    4  A    between atoms: N_3  and  P_6
REMARK    5  A    between atoms: C_4  and  C_5
REMARK    6  A    between atoms: P_6  and  O_8
REMARK    7  A    between atoms: P_6  and  N_21
REMARK    8  A    between atoms: O_8  and  C_9
REMARK    9  A    between atoms: C_13  and  C_14
REMARK   10  A    between atoms: C_14  and  C_15
REMARK   11  A    between atoms: N_21  and  C_22
REMARK   12  A    between atoms: N_21  and  C_24
REMARK   13  A    between atoms: C_22  and  C_23
REMARK   14  A    between atoms: C_24  and  C_25
REMARK                            x       y       z     vdW  Elec       q    Type
REMARK                         _______ _______ _______ _____ _____    ______ ____
ROOT
ATOM      1  O   UNL     1       3.276   6.302  19.800  0.00  0.00    +0.000 OA
ENDROOT
BRANCH   1   2
ATOM      2  C   UNL     1       2.556   7.359  19.412  0.00  0.00    +0.000 A 
ATOM      3  O   UNL     1       2.717   7.691  18.099  0.00  0.00    +0.000 OA
ATOM      4  C   UNL     1       1.844   8.690  17.821  0.00  0.00    +0.000 A 
ATOM      5  C   UNL     1       1.118   9.011  18.942  0.00  0.00    +0.000 A 
ATOM      6  C   UNL     1       1.603   8.173  20.007  0.00  0.00    +0.000 A 
BRANCH   6   7
ATOM      7  C   UNL     1       1.240   8.349  21.454  0.00  0.00    +0.000 C 
BRANCH   7   8
ATOM      8  C   UNL     1       0.581   9.662  21.816  0.00  0.00    +0.000 A 
ATOM      9  C   UNL     1       0.785  10.890  21.191  0.00  0.00    +0.000 A 
ATOM     10  C   UNL     1       0.001  12.006  21.512  0.00  0.00    +0.000 A 
ATOM     11  C   UNL     1      -0.991  11.927  22.483  0.00  0.00    +0.000 A 
ATOM     12  C   UNL     1      -1.175  10.733  23.161  0.00  0.00    +0.000 A 
ATOM     13  C   UNL     1      -0.398   9.618  22.832  0.00  0.00    +0.000 A 
ENDBRANCH   7   8
ENDBRANCH   6   7
ENDBRANCH   1   2
BRANCH   1  14
ATOM     14  P   UNL     1       3.658   5.035  18.758  0.00  0.00    +0.000 P 
ATOM     15  O   UNL     1       4.541   3.995  19.475  0.00  0.00    +0.000 OA
BRANCH  14  16
ATOM     16  N   UNL     1       5.085   5.966  18.244  0.00  0.00    +0.000 NA
BRANCH  16  18
ATOM     17  C   UNL     1       7.656   6.086  18.786  0.00  0.00    +0.000 C 
ATOM     18  C   UNL     1       6.334   5.330  18.887  0.00  0.00    +0.000 C 
ENDBRANCH  16  18
BRANCH  16  19
ATOM     19  C   UNL     1       5.458   6.019  16.809  0.00  0.00    +0.000 C 
ATOM     20  C   UNL     1       5.377   4.766  15.959  0.00  0.00    +0.000 C 
ENDBRANCH  16  19
ENDBRANCH  14  16
BRANCH  14  21
ATOM     21  N   UNL     1       2.230   4.104  19.272  0.00  0.00    +0.000 NA
BRANCH  21  22
ATOM     22  C   UNL     1       1.621   3.176  18.258  0.00  0.00    +0.000 C 
ATOM     23  C   UNL     1       2.430   2.092  17.547  0.00  0.00    +0.000 C 
ENDBRANCH  21  22
BRANCH  21  24
ATOM     24  C   UNL     1       2.589   3.235  20.444  0.00  0.00    +0.000 C 
ATOM     25  C   UNL     1       1.455   2.962  21.446  0.00  0.00    +0.000 C 
ENDBRANCH  21  24
ENDBRANCH  14  21
ENDBRANCH   1  14
TORSDOF 10
ENDMDL
MODEL 4
REMARK VINA RESULT:      -6.3      3.416      5.869
REMARK  Name = 
REMARK  14 active torsions:
REMARK  status: ('A' for Active; 'I' for Inactive)
REMARK    1  A    between atoms: C_1  and  C_2
REMARK    2  A    between atoms: C_2  and  N_3
REMARK    3  A    between atoms: N_3  and  C_4
REMARK    4  A    between atoms: N_3  and  P_6
REMARK    5  A    between atoms: C_4  and  C_5
REMARK    6  A    between atoms: P_6  and  O_8
REMARK    7  A    between atoms: P_6  and  N_21
REMARK    8  A    between atoms: O_8  and  C_9
REMARK    9  A    between atoms: C_13  and  C_14
REMARK   10  A    between atoms: C_14  and  C_15
REMARK   11  A    between atoms: N_21  and  C_22
REMARK   12  A    between atoms: N_21  and  C_24
REMARK   13  A    between atoms: C_22  and  C_23
REMARK   14  A    between atoms: C_24  and  C_25
REMARK                            x       y       z     vdW  Elec       q    Type
REMARK                         _______ _______ _______ _____ _____    ______ ____
ROOT
ATOM      1  O   UNL     1       3.104   6.273  19.921  0.00  0.00    +0.000 OA
ENDROOT
BRANCH   1   2
ATOM      2  C   UNL     1       2.454   7.368  19.516  0.00  0.00    +0.000 A 
ATOM      3  O   UNL     1       2.540   7.605  18.177  0.00  0.00    +0.000 OA
ATOM      4  C   UNL     1       1.741   8.663  17.897  0.00  0.00    +0.000 A 
ATOM      5  C   UNL     1       1.138   9.119  19.044  0.00  0.00    +0.000 A 
ATOM      6  C   UNL     1       1.628   8.303  20.124  0.00  0.00    +0.000 A 
BRANCH   6   7
ATOM      7  C   UNL     1       1.398   8.599  21.579  0.00  0.00    +0.000 C 
BRANCH   7   8
ATOM      8  C   UNL     1       0.456   9.745  21.881  0.00  0.00    +0.000 A 
ATOM      9  C   UNL     1      -0.591   9.735  22.799  0.00  0.00    +0.000 A 
ATOM     10  C   UNL     1      -1.296  10.906  23.106  0.00  0.00    +0.000 A 
ATOM     11  C   UNL     1      -0.986  12.111  22.486  0.00  0.00    +0.000 A 
ATOM     12  C   UNL     1       0.013  12.136  21.526  0.00  0.00    +0.000 A 
ATOM     13  C   UNL     1       0.722  10.968  21.228  0.00  0.00    +0.000 A 
ENDBRANCH   7   8
ENDBRANCH   6   7
ENDBRANCH   1   2
BRANCH   1  14
ATOM     14  P   UNL     1       3.382   4.959  18.904  0.00  0.00    +0.000 P 
ATOM     15  O   UNL     1       4.199   3.875  19.636  0.00  0.00    +0.000 OA
BRANCH  14  16
ATOM     16  N   UNL     1       4.864   5.775  18.352  0.00  0.00    +0.000 NA
BRANCH  16  18
ATOM     17  C   UNL     1       7.451   5.612  18.798  0.00  0.00    +0.000 C 
ATOM     18  C   UNL     1       6.025   5.340  19.269  0.00  0.00    +0.000 C 
ENDBRANCH  16  18
BRANCH  16  19
ATOM     19  C   UNL     1       5.404   5.495  16.999  0.00  0.00    +0.000 C 
ATOM     20  C   UNL     1       5.135   6.461  15.862  0.00  0.00    +0.000 C 
ENDBRANCH  16  19
ENDBRANCH  14  16
BRANCH  14  21
ATOM     21  N   UNL     1       1.899   4.143  19.456  0.00  0.00    +0.000 NA
BRANCH  21  22
ATOM     22  C   UNL     1       1.669   2.742  18.962  0.00  0.00    +0.000 C 
ATOM     23  C   UNL     1       2.311   2.206  17.683  0.00  0.00    +0.000 C 
ENDBRANCH  21  22
BRANCH  21  24
ATOM     24  C   UNL     1       1.907   4.041  20.955  0.00  0.00    +0.000 C 
ATOM     25  C   UNL     1       1.462   2.689  21.537  0.00  0.00    +0.000 C 
ENDBRANCH  21  24
ENDBRANCH  14  21
ENDBRANCH   1  14
TORSDOF 10
ENDMDL
MODEL 5
REMARK VINA RESULT:      -6.2      0.935      3.935
REMARK  Name = 
REMARK  14 active torsions:
REMARK  status: ('A' for Active; 'I' for Inactive)
REMARK    1  A    between atoms: C_1  and  C_2
REMARK    2  A    between atoms: C_2  and  N_3
REMARK    3  A    between atoms: N_3  and  C_4
REMARK    4  A    between atoms: N_3  and  P_6
REMARK    5  A    between atoms: C_4  and  C_5
REMARK    6  A    between atoms: P_6  and  O_8
REMARK    7  A    between atoms: P_6  and  N_21
REMARK    8  A    between atoms: O_8  and  C_9
REMARK    9  A    between atoms: C_13  and  C_14
REMARK   10  A    between atoms: C_14  and  C_15
REMARK   11  A    between atoms: N_21  and  C_22
REMARK   12  A    between atoms: N_21  and  C_24
REMARK   13  A    between atoms: C_22  and  C_23
REMARK   14  A    between atoms: C_24  and  C_25
REMARK                            x       y       z     vdW  Elec       q    Type
REMARK                         _______ _______ _______ _____ _____    ______ ____
ROOT
ATOM      1  O   UNL     1       4.593   5.858  18.373  0.00  0.00    +0.000 OA
ENDROOT
BRANCH   1   2
ATOM      2  C   UNL     1       3.654   6.809  18.373  0.00  0.00    +0.000 A 
ATOM      3  O   UNL     1       3.749   7.686  17.335  0.00  0.00    +0.000 OA
ATOM      4  C   UNL     1       2.673   8.508  17.395  0.00  0.00    +0.000 A 
ATOM      5  C   UNL     1       1.879   8.173  18.465  0.00  0.00    +0.000 A 
ATOM      6  C   UNL     1       2.532   7.084  19.142  0.00  0.00    +0.000 A 
BRANCH   6   7
ATOM      7  C   UNL     1       2.121   6.557  20.488  0.00  0.00    +0.000 C 
BRANCH   7   8
ATOM      8  C   UNL     1       1.978   5.055  20.597  0.00  0.00    +0.000 A 
ATOM      9  C   UNL     1       2.666   4.220  21.474  0.00  0.00    +0.000 A 
ATOM     10  C   UNL     1       2.337   2.864  21.591  0.00  0.00    +0.000 A 
ATOM     11  C   UNL     1       1.325   2.304  20.818  0.00  0.00    +0.000 A 
ATOM     12  C   UNL     1       0.664   3.099  19.897  0.00  0.00    +0.000 A 
ATOM     13  C   UNL     1       0.988   4.456  19.788  0.00  0.00    +0.000 A 
ENDBRANCH   7   8
ENDBRANCH   6   7
ENDBRANCH   1   2
BRANCH   1  14
ATOM     14  P   UNL     1       5.737   5.717  17.145  0.00  0.00    +0.000 P 
ATOM     15  O   UNL     1       6.666   4.516  17.410  0.00  0.00    +0.000 OA
BRANCH  14  16
ATOM     16  N   UNL     1       6.791   6.802  18.083  0.00  0.00    +0.000 NA
BRANCH  16  18
ATOM     17  C   UNL     1       7.962   5.628  20.124  0.00  0.00    +0.000 C 
ATOM     18  C   UNL     1       7.966   5.973  18.638  0.00  0.00    +0.000 C 
ENDBRANCH  16  18
BRANCH  16  19
ATOM     19  C   UNL     1       7.484   7.927  17.409  0.00  0.00    +0.000 C 
ATOM     20  C   UNL     1       8.334   8.887  18.219  0.00  0.00    +0.000 C 
ENDBRANCH  16  19
ENDBRANCH  14  16
BRANCH  14  21
ATOM     21  N   UNL     1       4.683   4.632  16.207  0.00  0.00    +0.000 NA
BRANCH  21  22
ATOM     22  C   UNL     1       5.148   4.256  14.828  0.00  0.00    +0.000 C 
ATOM     23  C   UNL     1       6.540   4.608  14.306  0.00  0.00    +0.000 C 
ENDBRANCH  21  22
BRANCH  21  24
ATOM     24  C   UNL     1       4.516   3.331  16.941  0.00  0.00    +0.000 C 
ATOM     25  C   UNL     1       3.077   2.971  17.346  0.00  0.00    +0.000 C 
ENDBRANCH  21  24
ENDBRANCH  14  21
ENDBRANCH   1  14
TORSDOF 10
ENDMDL
MODEL 6
REMARK VINA RESULT:      -6.2      2.683      5.791
REMARK  Name = 
REMARK  14 active torsions:
REMARK  status: ('A' for Active; 'I' for Inactive)
REMARK    1  A    between atoms: C_1  and  C_2
REMARK    2  A    between atoms: C_2  and  N_3
REMARK    3  A    between atoms: N_3  and  C_4
REMARK    4  A    between atoms: N_3  and  P_6
REMARK    5  A    between atoms: C_4  and  C_5
REMARK    6  A    between atoms: P_6  and  O_8
REMARK    7  A    between atoms: P_6  and  N_21
REMARK    8  A    between atoms: O_8  and  C_9
REMARK    9  A    between atoms: C_13  and  C_14
REMARK   10  A    between atoms: C_14  and  C_15
REMARK   11  A    between atoms: N_21  and  C_22
REMARK   12  A    between atoms: N_21  and  C_24
REMARK   13  A    between atoms: C_22  and  C_23
REMARK   14  A    between atoms: C_24  and  C_25
REMARK                            x       y       z     vdW  Elec       q    Type
REMARK                         _______ _______ _______ _____ _____    ______ ____
ROOT
ATOM      1  O   UNL     1       2.899   5.852  17.875  0.00  0.00    +0.000 OA
ENDROOT
BRANCH   1   2
ATOM      2  C   UNL     1       2.377   6.616  18.839  0.00  0.00    +0.000 A 
ATOM      3  O   UNL     1       2.102   5.945  19.994  0.00  0.00    +0.000 OA
ATOM      4  C   UNL     1       1.699   6.859  20.910  0.00  0.00    +0.000 A 
ATOM      5  C   UNL     1       1.708   8.118  20.361  0.00  0.00    +0.000 A 
ATOM      6  C   UNL     1       2.112   7.970  18.988  0.00  0.00    +0.000 A 
BRANCH   6   7
ATOM      7  C   UNL     1       2.041   9.066  17.963  0.00  0.00    +0.000 C 
BRANCH   7   8
ATOM      8  C   UNL     1       1.088  10.200  18.271  0.00  0.00    +0.000 A 
ATOM      9  C   UNL     1       1.436  11.489  18.668  0.00  0.00    +0.000 A 
ATOM     10  C   UNL     1       0.472  12.500  18.773  0.00  0.00    +0.000 A 
ATOM     11  C   UNL     1      -0.868  12.241  18.507  0.00  0.00    +0.000 A 
ATOM     12  C   UNL     1      -1.250  10.954  18.168  0.00  0.00    +0.000 A 
ATOM     13  C   UNL     1      -0.284   9.948  18.053  0.00  0.00    +0.000 A 
ENDBRANCH   7   8
ENDBRANCH   6   7
ENDBRANCH   1   2
BRANCH   1  14
ATOM     14  P   UNL     1       4.269   4.902  18.115  0.00  0.00    +0.000 P 
ATOM     15  O   UNL     1       4.910   5.217  19.481  0.00  0.00    +0.000 OA
BRANCH  14  16
ATOM     16  N   UNL     1       5.221   6.177  17.318  0.00  0.00    +0.000 NA
BRANCH  16  18
ATOM     17  C   UNL     1       7.603   7.102  17.937  0.00  0.00    +0.000 C 
ATOM     18  C   UNL     1       6.713   5.910  17.595  0.00  0.00    +0.000 C 
ENDBRANCH  16  18
BRANCH  16  19
ATOM     19  C   UNL     1       5.190   6.311  15.841  0.00  0.00    +0.000 C 
ATOM     20  C   UNL     1       5.633   5.154  14.966  0.00  0.00    +0.000 C 
ENDBRANCH  16  19
ENDBRANCH  14  16
BRANCH  14  21
ATOM     21  N   UNL     1       3.316   3.626  18.912  0.00  0.00    +0.000 NA
BRANCH  21  22
ATOM     22  C   UNL     1       2.196   3.015  18.117  0.00  0.00    +0.000 C 
ATOM     23  C   UNL     1       0.773   2.900  18.659  0.00  0.00    +0.000 C 
ENDBRANCH  21  22
BRANCH  21  24
ATOM     24  C   UNL     1       4.216   2.481  19.282  0.00  0.00    +0.000 C 
ATOM     25  C   UNL     1       3.914   1.142  18.588  0.00  0.00    +0.000 C 
ENDBRANCH  21  24
ENDBRANCH  14  21
ENDBRANCH   1  14
TORSDOF 10
ENDMDL
MODEL 7
REMARK VINA RESULT:      -6.1      2.327      6.746
REMARK  Name = 
REMARK  14 active torsions:
REMARK  status: ('A' for Active; 'I' for Inactive)
REMARK    1  A    between atoms: C_1  and  C_2
REMARK    2  A    between atoms: C_2  and  N_3
REMARK    3  A    between atoms: N_3  and  C_4
REMARK    4  A    between atoms: N_3  and  P_6
REMARK    5  A    between atoms: C_4  and  C_5
REMARK    6  A    between atoms: P_6  and  O_8
REMARK    7  A    between atoms: P_6  and  N_21
REMARK    8  A    between atoms: O_8  and  C_9
REMARK    9  A    between atoms: C_13  and  C_14
REMARK   10  A    between atoms: C_14  and  C_15
REMARK   11  A    between atoms: N_21  and  C_22
REMARK   12  A    between atoms: N_21  and  C_24
REMARK   13  A    between atoms: C_22  and  C_23
REMARK   14  A    between atoms: C_24  and  C_25
REMARK                            x       y       z     vdW  Elec       q    Type
REMARK                         _______ _______ _______ _____ _____    ______ ____
ROOT
ATOM      1  O   UNL     1       3.862   5.611  18.016  0.00  0.00    +0.000 OA
ENDROOT
BRANCH   1   2
ATOM      2  C   UNL     1       5.162   5.337  17.868  0.00  0.00    +0.000 A 
ATOM      3  O   UNL     1       5.973   6.006  18.735  0.00  0.00    +0.000 OA
ATOM      4  C   UNL     1       7.234   5.542  18.554  0.00  0.00    +0.000 A 
ATOM      5  C   UNL     1       7.249   4.578  17.575  0.00  0.00    +0.000 A 
ATOM      6  C   UNL     1       5.900   4.461  17.086  0.00  0.00    +0.000 A 
BRANCH   6   7
ATOM      7  C   UNL     1       5.510   3.683  15.861  0.00  0.00    +0.000 C 
BRANCH   7   8
ATOM      8  C   UNL     1       6.147   4.128  14.563  0.00  0.00    +0.000 A 
ATOM      9  C   UNL     1       7.178   5.054  14.422  0.00  0.00    +0.000 A 
ATOM     10  C   UNL     1       7.793   5.271  13.183  0.00  0.00    +0.000 A 
ATOM     11  C   UNL     1       7.378   4.582  12.048  0.00  0.00    +0.000 A 
ATOM     12  C   UNL     1       6.317   3.698  12.149  0.00  0.00    +0.000 A 
ATOM     13  C   UNL     1       5.710   3.476  13.389  0.00  0.00    +0.000 A 
ENDBRANCH   7   8
ENDBRANCH   6   7
ENDBRANCH   1   2
BRANCH   1  14
ATOM     14  P   UNL     1       3.009   5.224  19.415  0.00  0.00    +0.000 P 
ATOM     15  O   UNL     1       1.526   4.957  19.086  0.00  0.00    +0.000 OA
BRANCH  14  16
ATOM     16  N   UNL     1       2.699   6.962  19.636  0.00  0.00    +0.000 NA
BRANCH  16  18
ATOM     17  C   UNL     1       2.689   8.704  17.666  0.00  0.00    +0.000 C 
ATOM     18  C   UNL     1       2.042   7.503  18.350  0.00  0.00    +0.000 C 
ENDBRANCH  16  18
BRANCH  16  19
ATOM     19  C   UNL     1       1.760   7.420  20.690  0.00  0.00    +0.000 C 
ATOM     20  C   UNL     1       1.051   8.752  20.546  0.00  0.00    +0.000 C 
ENDBRANCH  16  19
ENDBRANCH  14  16
BRANCH  14  21
ATOM     21  N   UNL     1       3.319   3.485  19.194  0.00  0.00    +0.000 NA
BRANCH  21  22
ATOM     22  C   UNL     1       3.127   2.601  20.395  0.00  0.00    +0.000 C 
ATOM     23  C   UNL     1       2.457   3.092  21.677  0.00  0.00    +0.000 C 
ENDBRANCH  21  22
BRANCH  21  24
ATOM     24  C   UNL     1       2.395   2.937  18.143  0.00  0.00    +0.000 C 
ATOM     25  C   UNL     1       1.459   1.805  18.599  0.00  0.00    +0.000 C 
ENDBRANCH  21  24
ENDBRANCH  14  21
ENDBRANCH   1  14
TORSDOF 10
ENDMDL
MODEL 8
REMARK VINA RESULT:      -6.1      3.259      5.088
REMARK  Name = 
REMARK  14 active torsions:
REMARK  status: ('A' for Active; 'I' for Inactive)
REMARK    1  A    between atoms: C_1  and  C_2
REMARK    2  A    between atoms: C_2  and  N_3
REMARK    3  A    between atoms: N_3  and  C_4
REMARK    4  A    between atoms: N_3  and  P_6
REMARK    5  A    between atoms: C_4  and  C_5
REMARK    6  A    between atoms: P_6  and  O_8
REMARK    7  A    between atoms: P_6  and  N_21
REMARK    8  A    between atoms: O_8  and  C_9
REMARK    9  A    between atoms: C_13  and  C_14
REMARK   10  A    between atoms: C_14  and  C_15
REMARK   11  A    between atoms: N_21  and  C_22
REMARK   12  A    between atoms: N_21  and  C_24
REMARK   13  A    between atoms: C_22  and  C_23
REMARK   14  A    between atoms: C_24  and  C_25
REMARK                            x       y       z     vdW  Elec       q    Type
REMARK                         _______ _______ _______ _____ _____    ______ ____
ROOT
ATOM      1  O   UNL     1       3.286   6.069  19.798  0.00  0.00    +0.000 OA
ENDROOT
BRANCH   1   2
ATOM      2  C   UNL     1       2.655   7.173  19.385  0.00  0.00    +0.000 A 
ATOM      3  O   UNL     1       3.011   7.582  18.134  0.00  0.00    +0.000 OA
ATOM      4  C   UNL     1       2.212   8.626  17.804  0.00  0.00    +0.000 A 
ATOM      5  C   UNL     1       1.341   8.900  18.830  0.00  0.00    +0.000 A 
ATOM      6  C   UNL     1       1.647   7.979  19.892  0.00  0.00    +0.000 A 
BRANCH   6   7
ATOM      7  C   UNL     1       1.084   8.076  21.282  0.00  0.00    +0.000 C 
BRANCH   7   8
ATOM      8  C   UNL     1       0.556   9.433  21.691  0.00  0.00    +0.000 A 
ATOM      9  C   UNL     1       0.873  10.655  21.102  0.00  0.00    +0.000 A 
ATOM     10  C   UNL     1       0.202  11.830  21.464  0.00  0.00    +0.000 A 
ATOM     11  C   UNL     1      -0.788  11.816  22.442  0.00  0.00    +0.000 A 
ATOM     12  C   UNL     1      -1.082  10.624  23.084  0.00  0.00    +0.000 A 
ATOM     13  C   UNL     1      -0.417   9.451  22.713  0.00  0.00    +0.000 A 
ENDBRANCH   7   8
ENDBRANCH   6   7
ENDBRANCH   1   2
BRANCH   1  14
ATOM     14  P   UNL     1       3.493   4.722  18.809  0.00  0.00    +0.000 P 
ATOM     15  O   UNL     1       2.762   4.921  17.467  0.00  0.00    +0.000 OA
BRANCH  14  16
ATOM     16  N   UNL     1       2.036   4.024  19.556  0.00  0.00    +0.000 NA
BRANCH  16  18
ATOM     17  C   UNL     1       3.239   1.864  18.661  0.00  0.00    +0.000 C 
ATOM     18  C   UNL     1       1.969   2.530  19.181  0.00  0.00    +0.000 C 
ENDBRANCH  16  18
BRANCH  16  19
ATOM     19  C   UNL     1       1.905   3.987  21.034  0.00  0.00    +0.000 C 
ATOM     20  C   UNL     1       1.650   2.669  21.739  0.00  0.00    +0.000 C 
ENDBRANCH  16  19
ENDBRANCH  14  16
BRANCH  14  21
ATOM     21  N   UNL     1       4.950   5.420  18.063  0.00  0.00    +0.000 NA
BRANCH  21  22
ATOM     22  C   UNL     1       6.275   5.015  18.647  0.00  0.00    +0.000 C 
ATOM     23  C   UNL     1       7.473   4.633  17.780  0.00  0.00    +0.000 C 
ENDBRANCH  21  22
BRANCH  21  24
ATOM     24  C   UNL     1       5.014   5.024  16.615  0.00  0.00    +0.000 C 
ATOM     25  C   UNL     1       5.214   6.175  15.614  0.00  0.00    +0.000 C 
ENDBRANCH  21  24
ENDBRANCH  14  21
ENDBRANCH   1  14
TORSDOF 10
ENDMDL
MODEL 9
REMARK VINA RESULT:      -6.1      3.002      5.296
REMARK  Name = 
REMARK  14 active torsions:
REMARK  status: ('A' for Active; 'I' for Inactive)
REMARK    1  A    between atoms: C_1  and  C_2
REMARK    2  A    between atoms: C_2  and  N_3
REMARK    3  A    between atoms: N_3  and  C_4
REMARK    4  A    between atoms: N_3  and  P_6
REMARK    5  A    between atoms: C_4  and  C_5
REMARK    6  A    between atoms: P_6  and  O_8
REMARK    7  A    between atoms: P_6  and  N_21
REMARK    8  A    between atoms: O_8  and  C_9
REMARK    9  A    between atoms: C_13  and  C_14
REMARK   10  A    between atoms: C_14  and  C_15
REMARK   11  A    between atoms: N_21  and  C_22
REMARK   12  A    between atoms: N_21  and  C_24
REMARK   13  A    between atoms: C_22  and  C_23
REMARK   14  A    between atoms: C_24  and  C_25
REMARK                            x       y       z     vdW  Elec       q    Type
REMARK                         _______ _______ _______ _____ _____    ______ ____
ROOT
ATOM      1  O   UNL     1       3.834   6.212  19.608  0.00  0.00    +0.000 OA
ENDROOT
BRANCH   1   2
ATOM      2  C   UNL     1       2.990   7.158  19.184  0.00  0.00    +0.000 A 
ATOM      3  O   UNL     1       3.228   7.588  17.913  0.00  0.00    +0.000 OA
ATOM      4  C   UNL     1       2.233   8.446  17.579  0.00  0.00    +0.000 A 
ATOM      5  C   UNL     1       1.351   8.578  18.624  0.00  0.00    +0.000 A 
ATOM      6  C   UNL     1       1.857   7.770  19.701  0.00  0.00    +0.000 A 
BRANCH   6   7
ATOM      7  C   UNL     1       1.320   7.800  21.104  0.00  0.00    +0.000 C 
BRANCH   7   8
ATOM      8  C   UNL     1       0.752   9.123  21.568  0.00  0.00    +0.000 A 
ATOM      9  C   UNL     1       0.978  10.369  20.988  0.00  0.00    +0.000 A 
ATOM     10  C   UNL     1       0.272  11.503  21.410  0.00  0.00    +0.000 A 
ATOM     11  C   UNL     1      -0.662  11.423  22.437  0.00  0.00    +0.000 A 
ATOM     12  C   UNL     1      -0.864  10.207  23.069  0.00  0.00    +0.000 A 
ATOM     13  C   UNL     1      -0.165   9.074  22.640  0.00  0.00    +0.000 A 
ENDBRANCH   7   8
ENDBRANCH   6   7
ENDBRANCH   1   2
BRANCH   1  14
ATOM     14  P   UNL     1       4.313   4.925  18.634  0.00  0.00    +0.000 P 
ATOM     15  O   UNL     1       5.579   4.258  19.206  0.00  0.00    +0.000 OA
BRANCH  14  16
ATOM     16  N   UNL     1       5.287   6.079  17.691  0.00  0.00    +0.000 NA
BRANCH  16  18
ATOM     17  C   UNL     1       7.696   7.130  17.753  0.00  0.00    +0.000 C 
ATOM     18  C   UNL     1       6.727   6.058  18.241  0.00  0.00    +0.000 C 
ENDBRANCH  16  18
BRANCH  16  19
ATOM     19  C   UNL     1       5.497   5.858  16.239  0.00  0.00    +0.000 C 
ATOM     20  C   UNL     1       5.375   4.462  15.660  0.00  0.00    +0.000 C 
ENDBRANCH  16  19
ENDBRANCH  14  16
BRANCH  14  21
ATOM     21  N   UNL     1       3.339   3.771  19.576  0.00  0.00    +0.000 NA
BRANCH  21  22
ATOM     22  C   UNL     1       1.873   3.692  19.251  0.00  0.00    +0.000 C 
ATOM     23  C   UNL     1       0.787   3.872  20.309  0.00  0.00    +0.000 C 
ENDBRANCH  21  22
BRANCH  21  24
ATOM     24  C   UNL     1       3.869   2.380  19.375  0.00  0.00    +0.000 C 
ATOM     25  C   UNL     1       3.438   1.681  18.074  0.00  0.00    +0.000 C 
ENDBRANCH  21  24
ENDBRANCH  14  21
ENDBRANCH   1  14
TORSDOF 10
ENDMDL
