MODEL 1
REMARK VINA RESULT:      -9.8      0.000      0.000
REMARK  Name = 
REMARK  9 active torsions:
REMARK  status: ('A' for Active; 'I' for Inactive)
REMARK    1  A    between atoms: C_1  and  O_2
REMARK    2  A    between atoms: O_2  and  C_3
REMARK    3  A    between atoms: N_11  and  C_12
REMARK    4  A    between atoms: C_12  and  C_13
REMARK    5  A    between atoms: C_13  and  N_14
REMARK    6  A    between atoms: C_13  and  C_15
REMARK    7  A    between atoms: C_18  and  N_19
REMARK    8  A    between atoms: N_19  and  C_20
REMARK    9  A    between atoms: C_20  and  C_21
REMARK                            x       y       z     vdW  Elec       q    Type
REMARK                         _______ _______ _______ _____ _____    ______ ____
ROOT
ATOM      1  C   UNL     1       5.953   5.171  17.730  0.00  0.00    +0.000 C 
ATOM      2  C   UNL     1       7.311   4.782  18.333  0.00  0.00    +0.000 C 
ATOM      3  C   UNL     1       7.934   5.950  19.083  0.00  0.00    +0.000 C 
ATOM      4  C   UNL     1       8.099   7.190  18.192  0.00  0.00    +0.000 C 
ATOM      5  C   UNL     1       6.757   7.559  17.528  0.00  0.00    +0.000 C 
ATOM      6  C   UNL     1       6.145   6.365  16.778  0.00  0.00    +0.000 C 
ENDROOT
BRANCH   4   7
ATOM      7  N   UNL     1       8.593   8.324  18.977  0.00  0.00    +0.000 NA
ATOM      8  H   UNL     1       8.020   8.448  19.816  0.00  0.00    +0.000 HD
BRANCH   7   9
ATOM      9  C   UNL     1       8.550   9.602  18.226  0.00  0.00    +0.000 C 
BRANCH   9  10
ATOM     10  C   UNL     1       9.568  10.601  18.753  0.00  0.00    +0.000 A 
ATOM     11  N   UNL     1       9.619  10.837  20.084  0.00  0.00    +0.000 NA
ATOM     12  C   UNL     1      10.326  11.920  20.480  0.00  0.00    +0.000 A 
ATOM     13  C   UNL     1      10.925  12.776  19.588  0.00  0.00    +0.000 A 
ATOM     14  C   UNL     1      10.877  12.388  18.262  0.00  0.00    +0.000 A 
ATOM     15  N   UNL     1      10.239  11.298  17.822  0.00  0.00    +0.000 NA
ATOM     16  N   UNL     1      11.477  13.212  17.296  0.00  0.00    +0.000 N 
ATOM     17  C   UNL     1      11.301  14.549  17.553  0.00  0.00    +0.000 C 
ATOM     18  O   UNL     1      11.058  15.369  16.666  0.00  0.00    +0.000 OA
ATOM     19  C   UNL     1      11.469  14.954  19.019  0.00  0.00    +0.000 C 
ATOM     20  O   UNL     1      11.519  13.926  20.011  0.00  0.00    +0.000 OA
ATOM     21  H   UNL     1      12.474  13.024  17.361  0.00  0.00    +0.000 HD
ENDBRANCH   9  10
ENDBRANCH   7   9
ENDBRANCH   4   7
BRANCH   1  22
ATOM     22  C   UNL     1       5.244   3.934  17.122  0.00  0.00    +0.000 C 
BRANCH  22  23
ATOM     23  N   UNL     1       5.865   3.506  15.858  0.00  0.00    +0.000 NA
ATOM     24  H   UNL     1       5.679   4.195  15.129  0.00  0.00    +0.000 HD
ATOM     25  H   UNL     1       5.401   2.653  15.542  0.00  0.00    +0.000 HD
ENDBRANCH  22  23
BRANCH  22  26
ATOM     26  C   UNL     1       3.705   4.158  17.002  0.00  0.00    +0.000 C 
BRANCH  26  35
ATOM     27  C   UNL     1       2.220   7.989  18.454  0.00  0.00    +0.000 A 
ATOM     28  C   UNL     1       1.773   8.098  19.768  0.00  0.00    +0.000 A 
ATOM     29  C   UNL     1       1.788   6.978  20.601  0.00  0.00    +0.000 A 
ATOM     30  C   UNL     1       2.219   5.739  20.113  0.00  0.00    +0.000 A 
ATOM     31  C   UNL     1       2.168   4.565  20.977  0.00  0.00    +0.000 A 
ATOM     32  C   UNL     1       2.376   3.354  20.455  0.00  0.00    +0.000 A 
ATOM     33  C   UNL     1       2.759   3.169  19.035  0.00  0.00    +0.000 A 
ATOM     34  O   UNL     1       2.846   2.023  18.601  0.00  0.00    +0.000 OA
ATOM     35  N   UNL     1       3.048   4.317  18.305  0.00  0.00    +0.000 N 
ATOM     36  C   UNL     1       2.673   5.614  18.789  0.00  0.00    +0.000 A 
ATOM     37  C   UNL     1       2.678   6.756  17.975  0.00  0.00    +0.000 A 
BRANCH  27  39
ATOM     38  C   UNL     1       1.880  10.293  18.004  0.00  0.00    +0.000 C 
ATOM     39  O   UNL     1       2.207   8.995  17.526  0.00  0.00    +0.000 OA
ENDBRANCH  27  39
ENDBRANCH  26  35
ENDBRANCH  22  26
ENDBRANCH   1  22
TORSDOF 8
ENDMDL
MODEL 2
REMARK VINA RESULT:      -8.8      0.803      1.252
REMARK  Name = 
REMARK  9 active torsions:
REMARK  status: ('A' for Active; 'I' for Inactive)
REMARK    1  A    between atoms: C_1  and  O_2
REMARK    2  A    between atoms: O_2  and  C_3
REMARK    3  A    between atoms: N_11  and  C_12
REMARK    4  A    between atoms: C_12  and  C_13
REMARK    5  A    between atoms: C_13  and  N_14
REMARK    6  A    between atoms: C_13  and  C_15
REMARK    7  A    between atoms: C_18  and  N_19
REMARK    8  A    between atoms: N_19  and  C_20
REMARK    9  A    between atoms: C_20  and  C_21
REMARK                            x       y       z     vdW  Elec       q    Type
REMARK                         _______ _______ _______ _____ _____    ______ ____
ROOT
ATOM      1  C   UNL     1       6.693   5.069  17.298  0.00  0.00    +0.000 C 
ATOM      2  C   UNL     1       6.251   6.445  16.778  0.00  0.00    +0.000 C 
ATOM      3  C   UNL     1       7.318   7.498  17.036  0.00  0.00    +0.000 C 
ATOM      4  C   UNL     1       7.685   7.600  18.524  0.00  0.00    +0.000 C 
ATOM      5  C   UNL     1       8.072   6.215  19.079  0.00  0.00    +0.000 C 
ATOM      6  C   UNL     1       6.982   5.167  18.807  0.00  0.00    +0.000 C 
ENDROOT
BRANCH   4   7
ATOM      7  N   UNL     1       8.793   8.540  18.715  0.00  0.00    +0.000 NA
ATOM      8  H   UNL     1       9.003   8.639  19.712  0.00  0.00    +0.000 HD
BRANCH   7   9
ATOM      9  C   UNL     1       8.490   9.895  18.195  0.00  0.00    +0.000 C 
BRANCH   9  10
ATOM     10  C   UNL     1       9.569  10.898  18.570  0.00  0.00    +0.000 A 
ATOM     11  N   UNL     1      10.047  10.897  19.836  0.00  0.00    +0.000 NA
ATOM     12  C   UNL     1      10.785  11.969  20.206  0.00  0.00    +0.000 A 
ATOM     13  C   UNL     1      11.006  13.036  19.368  0.00  0.00    +0.000 A 
ATOM     14  C   UNL     1      10.541  12.888  18.076  0.00  0.00    +0.000 A 
ATOM     15  N   UNL     1       9.853  11.826  17.641  0.00  0.00    +0.000 NA
ATOM     16  N   UNL     1      10.739  13.937  17.163  0.00  0.00    +0.000 N 
ATOM     17  C   UNL     1      10.587  15.176  17.735  0.00  0.00    +0.000 C 
ATOM     18  O   UNL     1      10.018  16.106  17.161  0.00  0.00    +0.000 OA
ATOM     19  C   UNL     1      11.210  15.329  19.124  0.00  0.00    +0.000 C 
ATOM     20  O   UNL     1      11.643  14.155  19.813  0.00  0.00    +0.000 OA
ATOM     21  H   UNL     1      11.710  13.862  16.870  0.00  0.00    +0.000 HD
ENDBRANCH   9  10
ENDBRANCH   7   9
ENDBRANCH   4   7
BRANCH   1  22
ATOM     22  C   UNL     1       5.685   3.969  16.876  0.00  0.00    +0.000 C 
BRANCH  22  23
ATOM     23  N   UNL     1       6.089   3.296  15.630  0.00  0.00    +0.000 NA
ATOM     24  H   UNL     1       5.910   2.295  15.702  0.00  0.00    +0.000 HD
ATOM     25  H   UNL     1       7.103   3.378  15.534  0.00  0.00    +0.000 HD
ENDBRANCH  22  23
BRANCH  22  26
ATOM     26  C   UNL     1       4.226   4.519  16.828  0.00  0.00    +0.000 C 
BRANCH  26  35
ATOM     27  C   UNL     1       2.202   7.324  19.479  0.00  0.00    +0.000 A 
ATOM     28  C   UNL     1       1.605   6.855  20.646  0.00  0.00    +0.000 A 
ATOM     29  C   UNL     1       1.645   5.493  20.947  0.00  0.00    +0.000 A 
ATOM     30  C   UNL     1       2.252   4.591  20.066  0.00  0.00    +0.000 A 
ATOM     31  C   UNL     1       2.228   3.164  20.364  0.00  0.00    +0.000 A 
ATOM     32  C   UNL     1       2.617   2.291  19.432  0.00  0.00    +0.000 A 
ATOM     33  C   UNL     1       3.170   2.731  18.129  0.00  0.00    +0.000 A 
ATOM     34  O   UNL     1       3.422   1.874  17.285  0.00  0.00    +0.000 OA
ATOM     35  N   UNL     1       3.417   4.090  17.976  0.00  0.00    +0.000 N 
ATOM     36  C   UNL     1       2.859   5.049  18.885  0.00  0.00    +0.000 A 
ATOM     37  C   UNL     1       2.836   6.425  18.613  0.00  0.00    +0.000 A 
BRANCH  27  39
ATOM     38  C   UNL     1       2.014   8.822  17.650  0.00  0.00    +0.000 C 
ATOM     39  O   UNL     1       2.188   8.622  19.047  0.00  0.00    +0.000 OA
ENDBRANCH  27  39
ENDBRANCH  26  35
ENDBRANCH  22  26
ENDBRANCH   1  22
TORSDOF 8
ENDMDL
MODEL 3
REMARK VINA RESULT:      -8.8      5.348      8.275
REMARK  Name = 
REMARK  9 active torsions:
REMARK  status: ('A' for Active; 'I' for Inactive)
REMARK    1  A    between atoms: C_1  and  O_2
REMARK    2  A    between atoms: O_2  and  C_3
REMARK    3  A    between atoms: N_11  and  C_12
REMARK    4  A    between atoms: C_12  and  C_13
REMARK    5  A    between atoms: C_13  and  N_14
REMARK    6  A    between atoms: C_13  and  C_15
REMARK    7  A    between atoms: C_18  and  N_19
REMARK    8  A    between atoms: N_19  and  C_20
REMARK    9  A    between atoms: C_20  and  C_21
REMARK                            x       y       z     vdW  Elec       q    Type
REMARK                         _______ _______ _______ _____ _____    ______ ____
ROOT
ATOM      1  C   UNL     1       2.092   7.841  20.438  0.00  0.00    +0.000 C 
ATOM      2  C   UNL     1       1.478   6.479  20.796  0.00  0.00    +0.000 C 
ATOM      3  C   UNL     1       2.156   5.353  20.030  0.00  0.00    +0.000 C 
ATOM      4  C   UNL     1       2.093   5.566  18.510  0.00  0.00    +0.000 C 
ATOM      5  C   UNL     1       2.648   6.955  18.137  0.00  0.00    +0.000 C 
ATOM      6  C   UNL     1       1.952   8.076  18.923  0.00  0.00    +0.000 C 
ENDROOT
BRANCH   4   7
ATOM      7  N   UNL     1       2.854   4.523  17.815  0.00  0.00    +0.000 NA
ATOM      8  H   UNL     1       2.310   3.657  17.777  0.00  0.00    +0.000 HD
BRANCH   7   9
ATOM      9  C   UNL     1       4.136   4.206  18.488  0.00  0.00    +0.000 C 
BRANCH   9  10
ATOM     10  C   UNL     1       5.323   4.394  17.558  0.00  0.00    +0.000 A 
ATOM     11  N   UNL     1       6.134   5.461  17.744  0.00  0.00    +0.000 NA
ATOM     12  C   UNL     1       6.996   5.750  16.742  0.00  0.00    +0.000 A 
ATOM     13  C   UNL     1       7.025   5.037  15.567  0.00  0.00    +0.000 A 
ATOM     14  C   UNL     1       6.212   3.921  15.524  0.00  0.00    +0.000 A 
ATOM     15  N   UNL     1       5.381   3.558  16.507  0.00  0.00    +0.000 NA
ATOM     16  N   UNL     1       6.197   3.141  14.355  0.00  0.00    +0.000 N 
ATOM     17  C   UNL     1       6.269   3.897  13.211  0.00  0.00    +0.000 C 
ATOM     18  O   UNL     1       5.607   3.639  12.204  0.00  0.00    +0.000 OA
ATOM     19  C   UNL     1       7.261   5.060  13.264  0.00  0.00    +0.000 C 
ATOM     20  O   UNL     1       7.812   5.432  14.528  0.00  0.00    +0.000 OA
ATOM     21  H   UNL     1       7.043   2.579  14.395  0.00  0.00    +0.000 HD
ENDBRANCH   9  10
ENDBRANCH   7   9
ENDBRANCH   4   7
BRANCH   1  22
ATOM     22  C   UNL     1       1.523   8.960  21.348  0.00  0.00    +0.000 C 
BRANCH  22  23
ATOM     23  N   UNL     1       2.070   8.894  22.713  0.00  0.00    +0.000 NA
ATOM     24  H   UNL     1       1.778   9.714  23.245  0.00  0.00    +0.000 HD
ATOM     25  H   UNL     1       3.088   8.964  22.657  0.00  0.00    +0.000 HD
ENDBRANCH  22  23
BRANCH  22  26
ATOM     26  C   UNL     1      -0.036   8.986  21.315  0.00  0.00    +0.000 C 
BRANCH  26  35
ATOM     27  C   UNL     1      -1.761  10.526  17.621  0.00  0.00    +0.000 A 
ATOM     28  C   UNL     1      -2.092  11.875  17.529  0.00  0.00    +0.000 A 
ATOM     29  C   UNL     1      -1.885  12.716  18.624  0.00  0.00    +0.000 A 
ATOM     30  C   UNL     1      -1.379  12.205  19.824  0.00  0.00    +0.000 A 
ATOM     31  C   UNL     1      -1.230  13.084  20.978  0.00  0.00    +0.000 A 
ATOM     32  C   UNL     1      -0.949  12.559  22.173  0.00  0.00    +0.000 A 
ATOM     33  C   UNL     1      -0.684  11.111  22.349  0.00  0.00    +0.000 A 
ATOM     34  O   UNL     1      -0.522  10.685  23.490  0.00  0.00    +0.000 OA
ATOM     35  N   UNL     1      -0.582  10.344  21.194  0.00  0.00    +0.000 N 
ATOM     36  C   UNL     1      -1.040  10.845  19.931  0.00  0.00    +0.000 A 
ATOM     37  C   UNL     1      -1.226  10.021  18.812  0.00  0.00    +0.000 A 
BRANCH  27  39
ATOM     38  C   UNL     1      -2.830   9.964  15.579  0.00  0.00    +0.000 C 
ATOM     39  O   UNL     1      -1.962   9.592  16.642  0.00  0.00    +0.000 OA
ENDBRANCH  27  39
ENDBRANCH  26  35
ENDBRANCH  22  26
ENDBRANCH   1  22
TORSDOF 8
ENDMDL
MODEL 4
REMARK VINA RESULT:      -8.5      1.709      1.808
REMARK  Name = 
REMARK  9 active torsions:
REMARK  status: ('A' for Active; 'I' for Inactive)
REMARK    1  A    between atoms: C_1  and  O_2
REMARK    2  A    between atoms: O_2  and  C_3
REMARK    3  A    between atoms: N_11  and  C_12
REMARK    4  A    between atoms: C_12  and  C_13
REMARK    5  A    between atoms: C_13  and  N_14
REMARK    6  A    between atoms: C_13  and  C_15
REMARK    7  A    between atoms: C_18  and  N_19
REMARK    8  A    between atoms: N_19  and  C_20
REMARK    9  A    between atoms: C_20  and  C_21
REMARK                            x       y       z     vdW  Elec       q    Type
REMARK                         _______ _______ _______ _____ _____    ______ ____
ROOT
ATOM      1  C   UNL     1       5.168   4.740  17.247  0.00  0.00    +0.000 C 
ATOM      2  C   UNL     1       6.297   4.801  18.287  0.00  0.00    +0.000 C 
ATOM      3  C   UNL     1       6.894   6.198  18.369  0.00  0.00    +0.000 C 
ATOM      4  C   UNL     1       7.416   6.686  17.010  0.00  0.00    +0.000 C 
ATOM      5  C   UNL     1       6.314   6.575  15.938  0.00  0.00    +0.000 C 
ATOM      6  C   UNL     1       5.724   5.157  15.873  0.00  0.00    +0.000 C 
ENDROOT
BRANCH   4   7
ATOM      7  N   UNL     1       7.876   8.075  17.106  0.00  0.00    +0.000 NA
ATOM      8  H   UNL     1       8.680   8.223  16.491  0.00  0.00    +0.000 HD
BRANCH   7   9
ATOM      9  C   UNL     1       8.302   8.442  18.479  0.00  0.00    +0.000 C 
BRANCH   9  10
ATOM     10  C   UNL     1       8.832   9.865  18.543  0.00  0.00    +0.000 A 
ATOM     11  N   UNL     1       9.651  10.209  19.563  0.00  0.00    +0.000 NA
ATOM     12  C   UNL     1       9.870  11.532  19.745  0.00  0.00    +0.000 A 
ATOM     13  C   UNL     1       9.260  12.492  18.973  0.00  0.00    +0.000 A 
ATOM     14  C   UNL     1       8.513  12.021  17.911  0.00  0.00    +0.000 A 
ATOM     15  N   UNL     1       8.309  10.725  17.653  0.00  0.00    +0.000 NA
ATOM     16  N   UNL     1       7.868  12.949  17.076  0.00  0.00    +0.000 N 
ATOM     17  C   UNL     1       7.353  14.018  17.766  0.00  0.00    +0.000 C 
ATOM     18  O   UNL     1       6.255  14.511  17.501  0.00  0.00    +0.000 OA
ATOM     19  C   UNL     1       8.259  14.577  18.865  0.00  0.00    +0.000 C 
ATOM     20  O   UNL     1       9.400  13.816  19.263  0.00  0.00    +0.000 OA
ATOM     21  H   UNL     1       8.593  13.311  16.463  0.00  0.00    +0.000 HD
ENDBRANCH   9  10
ENDBRANCH   7   9
ENDBRANCH   4   7
BRANCH   1  22
ATOM     22  C   UNL     1       4.448   3.369  17.294  0.00  0.00    +0.000 C 
BRANCH  22  23
ATOM     23  N   UNL     1       4.960   2.440  16.272  0.00  0.00    +0.000 NA
ATOM     24  H   UNL     1       4.183   1.954  15.823  0.00  0.00    +0.000 HD
ATOM     25  H   UNL     1       5.495   1.708  16.740  0.00  0.00    +0.000 HD
ENDBRANCH  22  23
BRANCH  22  26
ATOM     26  C   UNL     1       2.898   3.535  17.246  0.00  0.00    +0.000 C 
BRANCH  26  35
ATOM     27  C   UNL     1       2.264   7.579  18.744  0.00  0.00    +0.000 A 
ATOM     28  C   UNL     1       1.875   7.766  20.068  0.00  0.00    +0.000 A 
ATOM     29  C   UNL     1       1.676   6.661  20.896  0.00  0.00    +0.000 A 
ATOM     30  C   UNL     1       1.832   5.363  20.394  0.00  0.00    +0.000 A 
ATOM     31  C   UNL     1       1.556   4.218  21.254  0.00  0.00    +0.000 A 
ATOM     32  C   UNL     1       1.500   2.995  20.723  0.00  0.00    +0.000 A 
ATOM     33  C   UNL     1       1.808   2.747  19.295  0.00  0.00    +0.000 A 
ATOM     34  O   UNL     1       1.648   1.611  18.854  0.00  0.00    +0.000 OA
ATOM     35  N   UNL     1       2.314   3.816  18.564  0.00  0.00    +0.000 N 
ATOM     36  C   UNL     1       2.224   5.158  19.060  0.00  0.00    +0.000 A 
ATOM     37  C   UNL     1       2.449   6.282  18.251  0.00  0.00    +0.000 A 
BRANCH  27  39
ATOM     38  C   UNL     1       1.644   9.739  17.985  0.00  0.00    +0.000 C 
ATOM     39  O   UNL     1       2.441   8.573  17.821  0.00  0.00    +0.000 OA
ENDBRANCH  27  39
ENDBRANCH  26  35
ENDBRANCH  22  26
ENDBRANCH   1  22
TORSDOF 8
ENDMDL
MODEL 5
REMARK VINA RESULT:      -8.5      4.938      9.816
REMARK  Name = 
REMARK  9 active torsions:
REMARK  status: ('A' for Active; 'I' for Inactive)
REMARK    1  A    between atoms: C_1  and  O_2
REMARK    2  A    between atoms: O_2  and  C_3
REMARK    3  A    between atoms: N_11  and  C_12
REMARK    4  A    between atoms: C_12  and  C_13
REMARK    5  A    between atoms: C_13  and  N_14
REMARK    6  A    between atoms: C_13  and  C_15
REMARK    7  A    between atoms: C_18  and  N_19
REMARK    8  A    between atoms: N_19  and  C_20
REMARK    9  A    between atoms: C_20  and  C_21
REMARK                            x       y       z     vdW  Elec       q    Type
REMARK                         _______ _______ _______ _____ _____    ______ ____
ROOT
ATOM      1  C   UNL     1       2.206   7.601  19.585  0.00  0.00    +0.000 C 
ATOM      2  C   UNL     1       1.965   7.838  18.086  0.00  0.00    +0.000 C 
ATOM      3  C   UNL     1       1.903   9.324  17.768  0.00  0.00    +0.000 C 
ATOM      4  C   UNL     1       0.825  10.048  18.586  0.00  0.00    +0.000 C 
ATOM      5  C   UNL     1       1.014   9.771  20.091  0.00  0.00    +0.000 C 
ATOM      6  C   UNL     1       1.075   8.266  20.390  0.00  0.00    +0.000 C 
ENDROOT
BRANCH   4   7
ATOM      7  N   UNL     1       0.874  11.492  18.336  0.00  0.00    +0.000 NA
ATOM      8  H   UNL     1       1.748  11.882  18.698  0.00  0.00    +0.000 HD
BRANCH   7   9
ATOM      9  C   UNL     1      -0.237  12.224  18.991  0.00  0.00    +0.000 C 
BRANCH   9  10
ATOM     10  C   UNL     1      -1.593  11.760  18.485  0.00  0.00    +0.000 A 
ATOM     11  N   UNL     1      -1.704  11.350  17.201  0.00  0.00    +0.000 NA
ATOM     12  C   UNL     1      -2.959  11.219  16.713  0.00  0.00    +0.000 A 
ATOM     13  C   UNL     1      -4.074  11.531  17.454  0.00  0.00    +0.000 A 
ATOM     14  C   UNL     1      -3.842  11.858  18.776  0.00  0.00    +0.000 A 
ATOM     15  N   UNL     1      -2.625  11.949  19.325  0.00  0.00    +0.000 NA
ATOM     16  N   UNL     1      -4.938  12.181  19.593  0.00  0.00    +0.000 N 
ATOM     17  C   UNL     1      -5.895  12.912  18.936  0.00  0.00    +0.000 C 
ATOM     18  O   UNL     1      -6.489  13.853  19.465  0.00  0.00    +0.000 OA
ATOM     19  C   UNL     1      -6.199  12.450  17.510  0.00  0.00    +0.000 C 
ATOM     20  O   UNL     1      -5.315  11.511  16.893  0.00  0.00    +0.000 OA
ATOM     21  H   UNL     1      -5.361  11.290  19.842  0.00  0.00    +0.000 HD
ENDBRANCH   9  10
ENDBRANCH   7   9
ENDBRANCH   4   7
BRANCH   1  22
ATOM     22  C   UNL     1       2.445   6.097  19.875  0.00  0.00    +0.000 C 
BRANCH  22  23
ATOM     23  N   UNL     1       1.910   5.695  21.187  0.00  0.00    +0.000 NA
ATOM     24  H   UNL     1       1.096   6.266  21.420  0.00  0.00    +0.000 HD
ATOM     25  H   UNL     1       2.604   5.920  21.901  0.00  0.00    +0.000 HD
ENDBRANCH  22  23
BRANCH  22  26
ATOM     26  C   UNL     1       3.943   5.708  19.681  0.00  0.00    +0.000 C 
BRANCH  26  35
ATOM     27  C   UNL     1       6.825   5.899  16.417  0.00  0.00    +0.000 A 
ATOM     28  C   UNL     1       6.818   4.909  15.438  0.00  0.00    +0.000 A 
ATOM     29  C   UNL     1       5.904   3.858  15.519  0.00  0.00    +0.000 A 
ATOM     30  C   UNL     1       5.014   3.776  16.598  0.00  0.00    +0.000 A 
ATOM     31  C   UNL     1       4.109   2.637  16.702  0.00  0.00    +0.000 A 
ATOM     32  C   UNL     1       3.415   2.449  17.826  0.00  0.00    +0.000 A 
ATOM     33  C   UNL     1       3.459   3.421  18.945  0.00  0.00    +0.000 A 
ATOM     34  O   UNL     1       2.867   3.138  19.984  0.00  0.00    +0.000 OA
ATOM     35  N   UNL     1       4.128   4.618  18.714  0.00  0.00    +0.000 N 
ATOM     36  C   UNL     1       5.009   4.767  17.593  0.00  0.00    +0.000 A 
ATOM     37  C   UNL     1       5.916   5.832  17.479  0.00  0.00    +0.000 A 
BRANCH  27  39
ATOM     38  C   UNL     1       7.707   7.697  17.687  0.00  0.00    +0.000 C 
ATOM     39  O   UNL     1       7.701   6.948  16.479  0.00  0.00    +0.000 OA
ENDBRANCH  27  39
ENDBRANCH  26  35
ENDBRANCH  22  26
ENDBRANCH   1  22
TORSDOF 8
ENDMDL
MODEL 6
REMARK VINA RESULT:      -8.5      1.037      1.085
REMARK  Name = 
REMARK  9 active torsions:
REMARK  status: ('A' for Active; 'I' for Inactive)
REMARK    1  A    between atoms: C_1  and  O_2
REMARK    2  A    between atoms: O_2  and  C_3
REMARK    3  A    between atoms: N_11  and  C_12
REMARK    4  A    between atoms: C_12  and  C_13
REMARK    5  A    between atoms: C_13  and  N_14
REMARK    6  A    between atoms: C_13  and  C_15
REMARK    7  A    between atoms: C_18  and  N_19
REMARK    8  A    between atoms: N_19  and  C_20
REMARK    9  A    between atoms: C_20  and  C_21
REMARK                            x       y       z     vdW  Elec       q    Type
REMARK                         _______ _______ _______ _____ _____    ______ ____
ROOT
ATOM      1  C   UNL     1       6.322   5.841  17.693  0.00  0.00    +0.000 C 
ATOM      2  C   UNL     1       7.708   5.612  18.315  0.00  0.00    +0.000 C 
ATOM      3  C   UNL     1       8.213   6.867  19.010  0.00  0.00    +0.000 C 
ATOM      4  C   UNL     1       8.264   8.074  18.062  0.00  0.00    +0.000 C 
ATOM      5  C   UNL     1       6.897   8.283  17.381  0.00  0.00    +0.000 C 
ATOM      6  C   UNL     1       6.406   7.003  16.687  0.00  0.00    +0.000 C 
ENDROOT
BRANCH   4   7
ATOM      7  N   UNL     1       8.644   9.285  18.795  0.00  0.00    +0.000 NA
ATOM      8  H   UNL     1       8.025   9.420  19.598  0.00  0.00    +0.000 HD
BRANCH   7   9
ATOM      9  C   UNL     1       8.554  10.509  17.962  0.00  0.00    +0.000 C 
BRANCH   9  10
ATOM     10  C   UNL     1       9.758  11.416  18.160  0.00  0.00    +0.000 A 
ATOM     11  N   UNL     1      10.636  11.126  19.147  0.00  0.00    +0.000 NA
ATOM     12  C   UNL     1      11.523  12.094  19.474  0.00  0.00    +0.000 A 
ATOM     13  C   UNL     1      11.513  13.333  18.879  0.00  0.00    +0.000 A 
ATOM     14  C   UNL     1      10.628  13.486  17.829  0.00  0.00    +0.000 A 
ATOM     15  N   UNL     1       9.767  12.543  17.429  0.00  0.00    +0.000 NA
ATOM     16  N   UNL     1      10.570  14.725  17.170  0.00  0.00    +0.000 N 
ATOM     17  C   UNL     1      10.700  15.790  18.027  0.00  0.00    +0.000 C 
ATOM     18  O   UNL     1      10.030  16.818  17.913  0.00  0.00    +0.000 OA
ATOM     19  C   UNL     1      11.766  15.623  19.111  0.00  0.00    +0.000 C 
ATOM     20  O   UNL     1      12.333  14.328  19.319  0.00  0.00    +0.000 OA
ATOM     21  H   UNL     1      11.376  14.740  16.551  0.00  0.00    +0.000 HD
ENDBRANCH   9  10
ENDBRANCH   7   9
ENDBRANCH   4   7
BRANCH   1  22
ATOM     22  C   UNL     1       5.737   4.515  17.143  0.00  0.00    +0.000 C 
BRANCH  22  23
ATOM     23  N   UNL     1       6.455   4.049  15.945  0.00  0.00    +0.000 NA
ATOM     24  H   UNL     1       6.051   4.474  15.110  0.00  0.00    +0.000 HD
ATOM     25  H   UNL     1       6.290   3.047  15.839  0.00  0.00    +0.000 HD
ENDBRANCH  22  23
BRANCH  22  26
ATOM     26  C   UNL     1       4.195   4.614  16.932  0.00  0.00    +0.000 C 
BRANCH  26  35
ATOM     27  C   UNL     1       2.182   7.668  19.302  0.00  0.00    +0.000 A 
ATOM     28  C   UNL     1       1.632   7.326  20.535  0.00  0.00    +0.000 A 
ATOM     29  C   UNL     1       1.714   6.010  20.991  0.00  0.00    +0.000 A 
ATOM     30  C   UNL     1       2.317   5.024  20.202  0.00  0.00    +0.000 A 
ATOM     31  C   UNL     1       2.337   3.641  20.664  0.00  0.00    +0.000 A 
ATOM     32  C   UNL     1       2.720   2.673  19.828  0.00  0.00    +0.000 A 
ATOM     33  C   UNL     1       3.223   2.969  18.465  0.00  0.00    +0.000 A 
ATOM     34  O   UNL     1       3.471   2.025  17.720  0.00  0.00    +0.000 OA
ATOM     35  N   UNL     1       3.432   4.307  18.147  0.00  0.00    +0.000 N 
ATOM     36  C   UNL     1       2.877   5.353  18.955  0.00  0.00    +0.000 A 
ATOM     37  C   UNL     1       2.812   6.687  18.526  0.00  0.00    +0.000 A 
BRANCH  27  39
ATOM     38  C   UNL     1       1.217   9.052  17.635  0.00  0.00    +0.000 C 
ATOM     39  O   UNL     1       2.122   8.905  18.722  0.00  0.00    +0.000 OA
ENDBRANCH  27  39
ENDBRANCH  26  35
ENDBRANCH  22  26
ENDBRANCH   1  22
TORSDOF 8
ENDMDL
MODEL 7
REMARK VINA RESULT:      -8.4      6.668     10.929
REMARK  Name = 
REMARK  9 active torsions:
REMARK  status: ('A' for Active; 'I' for Inactive)
REMARK    1  A    between atoms: C_1  and  O_2
REMARK    2  A    between atoms: O_2  and  C_3
REMARK    3  A    between atoms: N_11  and  C_12
REMARK    4  A    between atoms: C_12  and  C_13
REMARK    5  A    between atoms: C_13  and  N_14
REMARK    6  A    between atoms: C_13  and  C_15
REMARK    7  A    between atoms: C_18  and  N_19
REMARK    8  A    between atoms: N_19  and  C_20
REMARK    9  A    between atoms: C_20  and  C_21
REMARK                            x       y       z     vdW  Elec       q    Type
REMARK                         _______ _______ _______ _____ _____    ______ ____
ROOT
ATOM      1  C   UNL     1       0.896   8.975  19.845  0.00  0.00    +0.000 C 
ATOM      2  C   UNL     1       0.864   8.443  21.287  0.00  0.00    +0.000 C 
ATOM      3  C   UNL     1      -0.310   9.024  22.060  0.00  0.00    +0.000 C 
ATOM      4  C   UNL     1      -0.292  10.559  22.075  0.00  0.00    +0.000 C 
ATOM      5  C   UNL     1      -0.197  11.111  20.638  0.00  0.00    +0.000 C 
ATOM      6  C   UNL     1       0.994  10.511  19.876  0.00  0.00    +0.000 C 
ENDROOT
BRANCH   4   7
ATOM      7  N   UNL     1      -1.496  11.080  22.729  0.00  0.00    +0.000 NA
ATOM      8  H   UNL     1      -2.299  11.004  22.099  0.00  0.00    +0.000 HD
BRANCH   7   9
ATOM      9  C   UNL     1      -1.370  12.508  23.108  0.00  0.00    +0.000 C 
BRANCH   9  10
ATOM     10  C   UNL     1      -2.709  13.225  23.061  0.00  0.00    +0.000 A 
ATOM     11  N   UNL     1      -2.803  14.465  23.593  0.00  0.00    +0.000 NA
ATOM     12  C   UNL     1      -4.051  14.948  23.788  0.00  0.00    +0.000 A 
ATOM     13  C   UNL     1      -5.178  14.211  23.512  0.00  0.00    +0.000 A 
ATOM     14  C   UNL     1      -4.961  12.994  22.895  0.00  0.00    +0.000 A 
ATOM     15  N   UNL     1      -3.750  12.492  22.630  0.00  0.00    +0.000 NA
ATOM     16  N   UNL     1      -6.069  12.191  22.577  0.00  0.00    +0.000 N 
ATOM     17  C   UNL     1      -7.047  12.229  23.540  0.00  0.00    +0.000 C 
ATOM     18  O   UNL     1      -7.672  11.226  23.889  0.00  0.00    +0.000 OA
ATOM     19  C   UNL     1      -7.331  13.615  24.121  0.00  0.00    +0.000 C 
ATOM     20  O   UNL     1      -6.416  14.675  23.839  0.00  0.00    +0.000 OA
ATOM     21  H   UNL     1      -6.465  12.598  21.734  0.00  0.00    +0.000 HD
ENDBRANCH   9  10
ENDBRANCH   7   9
ENDBRANCH   4   7
BRANCH   1  22
ATOM     22  C   UNL     1       1.983   8.248  19.013  0.00  0.00    +0.000 C 
BRANCH  22  23
ATOM     23  N   UNL     1       1.477   7.817  17.699  0.00  0.00    +0.000 NA
ATOM     24  H   UNL     1       0.739   7.123  17.821  0.00  0.00    +0.000 HD
ATOM     25  H   UNL     1       2.226   7.324  17.210  0.00  0.00    +0.000 HD
ENDBRANCH  22  23
BRANCH  22  26
ATOM     26  C   UNL     1       2.645   7.090  19.822  0.00  0.00    +0.000 C 
BRANCH  26  35
ATOM     27  C   UNL     1       5.709   6.273  16.831  0.00  0.00    +0.000 A 
ATOM     28  C   UNL     1       5.601   5.138  16.033  0.00  0.00    +0.000 A 
ATOM     29  C   UNL     1       4.526   4.266  16.208  0.00  0.00    +0.000 A 
ATOM     30  C   UNL     1       3.573   4.507  17.204  0.00  0.00    +0.000 A 
ATOM     31  C   UNL     1       2.492   3.552  17.416  0.00  0.00    +0.000 A 
ATOM     32  C   UNL     1       1.712   3.670  18.492  0.00  0.00    +0.000 A 
ATOM     33  C   UNL     1       1.844   4.807  19.435  0.00  0.00    +0.000 A 
ATOM     34  O   UNL     1       1.154   4.803  20.452  0.00  0.00    +0.000 OA
ATOM     35  N   UNL     1       2.710   5.832  19.068  0.00  0.00    +0.000 N 
ATOM     36  C   UNL     1       3.668   5.649  18.018  0.00  0.00    +0.000 A 
ATOM     37  C   UNL     1       4.739   6.530  17.808  0.00  0.00    +0.000 A 
BRANCH  27  39
ATOM     38  C   UNL     1       7.666   7.120  17.870  0.00  0.00    +0.000 C 
ATOM     39  O   UNL     1       6.737   7.175  16.795  0.00  0.00    +0.000 OA
ENDBRANCH  27  39
ENDBRANCH  26  35
ENDBRANCH  22  26
ENDBRANCH   1  22
TORSDOF 8
ENDMDL
MODEL 8
REMARK VINA RESULT:      -8.4      2.010      2.015
REMARK  Name = 
REMARK  9 active torsions:
REMARK  status: ('A' for Active; 'I' for Inactive)
REMARK    1  A    between atoms: C_1  and  O_2
REMARK    2  A    between atoms: O_2  and  C_3
REMARK    3  A    between atoms: N_11  and  C_12
REMARK    4  A    between atoms: C_12  and  C_13
REMARK    5  A    between atoms: C_13  and  N_14
REMARK    6  A    between atoms: C_13  and  C_15
REMARK    7  A    between atoms: C_18  and  N_19
REMARK    8  A    between atoms: N_19  and  C_20
REMARK    9  A    between atoms: C_20  and  C_21
REMARK                            x       y       z     vdW  Elec       q    Type
REMARK                         _______ _______ _______ _____ _____    ______ ____
ROOT
ATOM      1  C   UNL     1       6.088   5.614  17.591  0.00  0.00    +0.000 C 
ATOM      2  C   UNL     1       7.522   5.470  18.123  0.00  0.00    +0.000 C 
ATOM      3  C   UNL     1       7.989   6.750  18.799  0.00  0.00    +0.000 C 
ATOM      4  C   UNL     1       7.904   7.965  17.863  0.00  0.00    +0.000 C 
ATOM      5  C   UNL     1       6.486   8.090  17.271  0.00  0.00    +0.000 C 
ATOM      6  C   UNL     1       6.034   6.787  16.595  0.00  0.00    +0.000 C 
ENDROOT
BRANCH   4   7
ATOM      7  N   UNL     1       8.251   9.193  18.584  0.00  0.00    +0.000 NA
ATOM      8  H   UNL     1       7.422   9.781  18.698  0.00  0.00    +0.000 HD
BRANCH   7   9
ATOM      9  C   UNL     1       9.270  10.004  17.875  0.00  0.00    +0.000 C 
BRANCH   9  10
ATOM     10  C   UNL     1       9.229  11.462  18.304  0.00  0.00    +0.000 A 
ATOM     11  N   UNL     1       9.748  11.801  19.506  0.00  0.00    +0.000 NA
ATOM     12  C   UNL     1       9.443  13.034  19.971  0.00  0.00    +0.000 A 
ATOM     13  C   UNL     1       8.610  13.892  19.293  0.00  0.00    +0.000 A 
ATOM     14  C   UNL     1       8.209  13.471  18.040  0.00  0.00    +0.000 A 
ATOM     15  N   UNL     1       8.525  12.285  17.509  0.00  0.00    +0.000 NA
ATOM     16  N   UNL     1       7.362  14.303  17.288  0.00  0.00    +0.000 N 
ATOM     17  C   UNL     1       6.418  14.936  18.058  0.00  0.00    +0.000 C 
ATOM     18  O   UNL     1       5.252  15.083  17.688  0.00  0.00    +0.000 OA
ATOM     19  C   UNL     1       6.929  15.482  19.392  0.00  0.00    +0.000 C 
ATOM     20  O   UNL     1       8.221  15.074  19.848  0.00  0.00    +0.000 OA
ATOM     21  H   UNL     1       7.965  15.024  16.901  0.00  0.00    +0.000 HD
ENDBRANCH   9  10
ENDBRANCH   7   9
ENDBRANCH   4   7
BRANCH   1  22
ATOM     22  C   UNL     1       5.555   4.258  17.064  0.00  0.00    +0.000 C 
BRANCH  22  23
ATOM     23  N   UNL     1       6.272   3.813  15.857  0.00  0.00    +0.000 NA
ATOM     24  H   UNL     1       7.140   4.340  15.755  0.00  0.00    +0.000 HD
ATOM     25  H   UNL     1       5.714   4.063  15.039  0.00  0.00    +0.000 HD
ENDBRANCH  22  23
BRANCH  22  26
ATOM     26  C   UNL     1       4.007   4.284  16.880  0.00  0.00    +0.000 C 
BRANCH  26  35
ATOM     27  C   UNL     1       2.272   7.819  18.748  0.00  0.00    +0.000 A 
ATOM     28  C   UNL     1       1.757   7.729  20.038  0.00  0.00    +0.000 A 
ATOM     29  C   UNL     1       1.785   6.508  20.713  0.00  0.00    +0.000 A 
ATOM     30  C   UNL     1       2.297   5.365  20.088  0.00  0.00    +0.000 A 
ATOM     31  C   UNL     1       2.259   4.084  20.783  0.00  0.00    +0.000 A 
ATOM     32  C   UNL     1       2.550   2.965  20.116  0.00  0.00    +0.000 A 
ATOM     33  C   UNL     1       3.010   2.991  18.707  0.00  0.00    +0.000 A 
ATOM     34  O   UNL     1       3.173   1.919  18.129  0.00  0.00    +0.000 OA
ATOM     35  N   UNL     1       3.280   4.238  18.155  0.00  0.00    +0.000 N 
ATOM     36  C   UNL     1       2.820   5.440  18.786  0.00  0.00    +0.000 A 
ATOM     37  C   UNL     1       2.812   6.682  18.134  0.00  0.00    +0.000 A 
BRANCH  27  39
ATOM     38  C   UNL     1       1.373   9.980  18.362  0.00  0.00    +0.000 C 
ATOM     39  O   UNL     1       2.257   8.940  17.963  0.00  0.00    +0.000 OA
ENDBRANCH  27  39
ENDBRANCH  26  35
ENDBRANCH  22  26
ENDBRANCH   1  22
TORSDOF 8
ENDMDL
MODEL 9
REMARK VINA RESULT:      -8.3      4.800      9.192
REMARK  Name = 
REMARK  9 active torsions:
REMARK  status: ('A' for Active; 'I' for Inactive)
REMARK    1  A    between atoms: C_1  and  O_2
REMARK    2  A    between atoms: O_2  and  C_3
REMARK    3  A    between atoms: N_11  and  C_12
REMARK    4  A    between atoms: C_12  and  C_13
REMARK    5  A    between atoms: C_13  and  N_14
REMARK    6  A    between atoms: C_13  and  C_15
REMARK    7  A    between atoms: C_18  and  N_19
REMARK    8  A    between atoms: N_19  and  C_20
REMARK    9  A    between atoms: C_20  and  C_21
REMARK                            x       y       z     vdW  Elec       q    Type
REMARK                         _______ _______ _______ _____ _____    ______ ____
ROOT
ATOM      1  C   UNL     1       2.250   7.354  19.904  0.00  0.00    +0.000 C 
ATOM      2  C   UNL     1       1.921   7.952  18.527  0.00  0.00    +0.000 C 
ATOM      3  C   UNL     1       1.922   9.473  18.575  0.00  0.00    +0.000 C 
ATOM      4  C   UNL     1       0.944  10.021  19.624  0.00  0.00    +0.000 C 
ATOM      5  C   UNL     1       1.220   9.385  21.002  0.00  0.00    +0.000 C 
ATOM      6  C   UNL     1       1.215   7.850  20.931  0.00  0.00    +0.000 C 
ENDROOT
BRANCH   4   7
ATOM      7  N   UNL     1       1.059  11.480  19.719  0.00  0.00    +0.000 NA
ATOM      8  H   UNL     1       1.941  11.735  20.170  0.00  0.00    +0.000 HD
BRANCH   7   9
ATOM      9  C   UNL     1      -0.033  12.088  20.518  0.00  0.00    +0.000 C 
BRANCH   9  10
ATOM     10  C   UNL     1      -1.305  12.251  19.702  0.00  0.00    +0.000 A 
ATOM     11  N   UNL     1      -2.487  12.348  20.352  0.00  0.00    +0.000 NA
ATOM     12  C   UNL     1      -3.604  12.207  19.603  0.00  0.00    +0.000 A 
ATOM     13  C   UNL     1      -3.559  11.927  18.258  0.00  0.00    +0.000 A 
ATOM     14  C   UNL     1      -2.301  11.933  17.688  0.00  0.00    +0.000 A 
ATOM     15  N   UNL     1      -1.167  12.122  18.372  0.00  0.00    +0.000 NA
ATOM     16  N   UNL     1      -2.181  11.663  16.314  0.00  0.00    +0.000 N 
ATOM     17  C   UNL     1      -3.047  10.687  15.887  0.00  0.00    +0.000 C 
ATOM     18  O   UNL     1      -2.719   9.819  15.076  0.00  0.00    +0.000 OA
ATOM     19  C   UNL     1      -4.462  10.780  16.461  0.00  0.00    +0.000 C 
ATOM     20  O   UNL     1      -4.698  11.663  17.559  0.00  0.00    +0.000 OA
ATOM     21  H   UNL     1      -2.447  12.524  15.845  0.00  0.00    +0.000 HD
ENDBRANCH   9  10
ENDBRANCH   7   9
ENDBRANCH   4   7
BRANCH   1  22
ATOM     22  C   UNL     1       2.422   5.817  19.811  0.00  0.00    +0.000 C 
BRANCH  22  23
ATOM     23  N   UNL     1       1.713   5.115  20.894  0.00  0.00    +0.000 NA
ATOM     24  H   UNL     1       2.063   4.160  20.977  0.00  0.00    +0.000 HD
ATOM     25  H   UNL     1       0.732   5.015  20.627  0.00  0.00    +0.000 HD
ENDBRANCH  22  23
BRANCH  22  26
ATOM     26  C   UNL     1       3.925   5.415  19.703  0.00  0.00    +0.000 C 
BRANCH  26  35
ATOM     27  C   UNL     1       6.771   5.823  16.428  0.00  0.00    +0.000 A 
ATOM     28  C   UNL     1       6.812   4.853  15.430  0.00  0.00    +0.000 A 
ATOM     29  C   UNL     1       5.955   3.753  15.496  0.00  0.00    +0.000 A 
ATOM     30  C   UNL     1       5.079   3.602  16.578  0.00  0.00    +0.000 A 
ATOM     31  C   UNL     1       4.238   2.415  16.665  0.00  0.00    +0.000 A 
ATOM     32  C   UNL     1       3.562   2.168  17.789  0.00  0.00    +0.000 A 
ATOM     33  C   UNL     1       3.560   3.119  18.926  0.00  0.00    +0.000 A 
ATOM     34  O   UNL     1       2.991   2.785  19.963  0.00  0.00    +0.000 OA
ATOM     35  N   UNL     1       4.162   4.355  18.715  0.00  0.00    +0.000 N 
ATOM     36  C   UNL     1       5.027   4.573  17.592  0.00  0.00    +0.000 A 
ATOM     37  C   UNL     1       5.874   5.687  17.494  0.00  0.00    +0.000 A 
BRANCH  27  39
ATOM     38  C   UNL     1       7.516   7.680  17.703  0.00  0.00    +0.000 C 
ATOM     39  O   UNL     1       7.590   6.917  16.505  0.00  0.00    +0.000 OA
ENDBRANCH  27  39
ENDBRANCH  26  35
ENDBRANCH  22  26
ENDBRANCH   1  22
TORSDOF 8
ENDMDL
