MODEL 1
REMARK VINA RESULT:      -6.5      0.000      0.000
REMARK  Name = 
REMARK  8 active torsions:
REMARK  status: ('A' for Active; 'I' for Inactive)
REMARK    1  A    between atoms: C_1  and  C_2
REMARK    2  A    between atoms: C_2  and  C_3
REMARK    3  A    between atoms: C_2  and  O_4
REMARK    4  A    between atoms: C_2  and  C_5
REMARK    5  A    between atoms: C_6  and  C_7
REMARK    6  A    between atoms: C_7  and  C_8
REMARK    7  A    between atoms: C_7  and  O_9
REMARK    8  A    between atoms: C_7  and  C_10
REMARK                            x       y       z     vdW  Elec       q    Type
REMARK                         _______ _______ _______ _____ _____    ______ ____
ROOT
ATOM      1  C   UNL     1       5.853   5.009  16.119  0.00  0.00    +0.000 C 
ATOM      2  C   UNL     1       7.133   4.586  16.857  0.00  0.00    +0.000 C 
ENDROOT
BRANCH   1   3
ATOM      3  C   UNL     1       4.593   4.653  16.919  0.00  0.00    +0.000 A 
ATOM      4  C   UNL     1       3.788   5.646  17.510  0.00  0.00    +0.000 A 
ATOM      5  C   UNL     1       2.661   5.303  18.267  0.00  0.00    +0.000 A 
ATOM      6  C   UNL     1       2.315   3.964  18.440  0.00  0.00    +0.000 A 
ATOM      7 CL   UNL     1       0.940   3.545  19.386  0.00  0.00    +0.000 Cl
ATOM      8  C   UNL     1       3.076   2.966  17.846  0.00  0.00    +0.000 A 
ATOM      9  C   UNL     1       4.201   3.310  17.092  0.00  0.00    +0.000 A 
ENDBRANCH   1   3
BRANCH   1  11
ATOM     10  C   UNL     1       5.854   3.951  13.643  0.00  0.00    +0.000 C 
ATOM     11  C   UNL     1       5.844   4.410  14.761  0.00  0.00    +0.000 C 
BRANCH  10  13
ATOM     12  C   UNL     1       6.994   4.008  11.459  0.00  0.00    +0.000 C 
ATOM     13  C   UNL     1       5.882   3.366  12.287  0.00  0.00    +0.000 C 
ATOM     14  C   UNL     1       4.533   3.536  11.588  0.00  0.00    +0.000 C 
BRANCH  13  15
ATOM     15  O   UNL     1       6.148   1.967  12.401  0.00  0.00    +0.000 OA
ATOM     16  H   UNL     1       5.445   1.577  12.944  0.00  0.00    +0.000 HD
ENDBRANCH  13  15
ENDBRANCH  10  13
ENDBRANCH   1  11
BRANCH   1  17
ATOM     17  O   UNL     1       5.914   6.431  15.980  0.00  0.00    +0.000 OA
ATOM     18  H   UNL     1       6.586   6.635  15.316  0.00  0.00    +0.000 HD
ENDBRANCH   1  17
TORSDOF 5
ENDMDL
MODEL 2
REMARK VINA RESULT:      -6.5      0.118      1.210
REMARK  Name = 
REMARK  8 active torsions:
REMARK  status: ('A' for Active; 'I' for Inactive)
REMARK    1  A    between atoms: C_1  and  C_2
REMARK    2  A    between atoms: C_2  and  C_3
REMARK    3  A    between atoms: C_2  and  O_4
REMARK    4  A    between atoms: C_2  and  C_5
REMARK    5  A    between atoms: C_6  and  C_7
REMARK    6  A    between atoms: C_7  and  C_8
REMARK    7  A    between atoms: C_7  and  O_9
REMARK    8  A    between atoms: C_7  and  C_10
REMARK                            x       y       z     vdW  Elec       q    Type
REMARK                         _______ _______ _______ _____ _____    ______ ____
ROOT
ATOM      1  C   UNL     1       5.794   4.999  16.097  0.00  0.00    +0.000 C 
ATOM      2  C   UNL     1       7.106   4.657  16.820  0.00  0.00    +0.000 C 
ENDROOT
BRANCH   1   3
ATOM      3  C   UNL     1       4.568   4.569  16.912  0.00  0.00    +0.000 A 
ATOM      4  C   UNL     1       4.220   3.213  17.064  0.00  0.00    +0.000 A 
ATOM      5  C   UNL     1       3.077   2.838  17.781  0.00  0.00    +0.000 A 
ATOM      6  C   UNL     1       2.268   3.811  18.365  0.00  0.00    +0.000 A 
ATOM      7 CL   UNL     1       0.855   3.348  19.231  0.00  0.00    +0.000 Cl
ATOM      8  C   UNL     1       2.603   5.154  18.255  0.00  0.00    +0.000 A 
ATOM      9  C   UNL     1       3.742   5.526  17.537  0.00  0.00    +0.000 A 
ENDBRANCH   1   3
BRANCH   1  11
ATOM     10  C   UNL     1       5.831   3.939  13.622  0.00  0.00    +0.000 C 
ATOM     11  C   UNL     1       5.806   4.398  14.739  0.00  0.00    +0.000 C 
BRANCH  10  13
ATOM     12  C   UNL     1       6.984   4.016  11.446  0.00  0.00    +0.000 C 
ATOM     13  C   UNL     1       5.878   3.355  12.266  0.00  0.00    +0.000 C 
ATOM     14  C   UNL     1       4.531   3.500  11.558  0.00  0.00    +0.000 C 
BRANCH  13  15
ATOM     15  O   UNL     1       6.169   1.961  12.381  0.00  0.00    +0.000 OA
ATOM     16  H   UNL     1       6.437   1.791  13.298  0.00  0.00    +0.000 HD
ENDBRANCH  13  15
ENDBRANCH  10  13
ENDBRANCH   1  11
BRANCH   1  17
ATOM     17  O   UNL     1       5.767   6.421  15.954  0.00  0.00    +0.000 OA
ATOM     18  H   UNL     1       5.139   6.637  15.252  0.00  0.00    +0.000 HD
ENDBRANCH   1  17
TORSDOF 5
ENDMDL
MODEL 3
REMARK VINA RESULT:      -6.5      4.635      5.895
REMARK  Name = 
REMARK  8 active torsions:
REMARK  status: ('A' for Active; 'I' for Inactive)
REMARK    1  A    between atoms: C_1  and  C_2
REMARK    2  A    between atoms: C_2  and  C_3
REMARK    3  A    between atoms: C_2  and  O_4
REMARK    4  A    between atoms: C_2  and  C_5
REMARK    5  A    between atoms: C_6  and  C_7
REMARK    6  A    between atoms: C_7  and  C_8
REMARK    7  A    between atoms: C_7  and  O_9
REMARK    8  A    between atoms: C_7  and  C_10
REMARK                            x       y       z     vdW  Elec       q    Type
REMARK                         _______ _______ _______ _____ _____    ______ ____
ROOT
ATOM      1  C   UNL     1       3.115   5.586  19.365  0.00  0.00    +0.000 C 
ATOM      2  C   UNL     1       2.461   4.570  18.416  0.00  0.00    +0.000 C 
ENDROOT
BRANCH   1   3
ATOM      3  C   UNL     1       2.491   6.981  19.220  0.00  0.00    +0.000 A 
ATOM      4  C   UNL     1       1.819   7.604  20.289  0.00  0.00    +0.000 A 
ATOM      5  C   UNL     1       1.224   8.863  20.130  0.00  0.00    +0.000 A 
ATOM      6  C   UNL     1       1.300   9.521  18.905  0.00  0.00    +0.000 A 
ATOM      7 CL   UNL     1       0.553  11.059  18.707  0.00  0.00    +0.000 Cl
ATOM      8  C   UNL     1       1.980   8.942  17.842  0.00  0.00    +0.000 A 
ATOM      9  C   UNL     1       2.571   7.686  18.002  0.00  0.00    +0.000 A 
ENDBRANCH   1   3
BRANCH   1  11
ATOM     10  C   UNL     1       5.778   5.646  18.972  0.00  0.00    +0.000 C 
ATOM     11  C   UNL     1       4.582   5.601  19.140  0.00  0.00    +0.000 C 
BRANCH  10  13
ATOM     12  C   UNL     1       7.671   7.023  18.203  0.00  0.00    +0.000 C 
ATOM     13  C   UNL     1       7.243   5.676  18.783  0.00  0.00    +0.000 C 
ATOM     14  C   UNL     1       7.704   4.535  17.876  0.00  0.00    +0.000 C 
BRANCH  13  15
ATOM     15  O   UNL     1       7.868   5.509  20.057  0.00  0.00    +0.000 OA
ATOM     16  H   UNL     1       8.791   5.798  19.972  0.00  0.00    +0.000 HD
ENDBRANCH  13  15
ENDBRANCH  10  13
ENDBRANCH   1  11
BRANCH   1  17
ATOM     17  O   UNL     1       2.871   5.118  20.694  0.00  0.00    +0.000 OA
ATOM     18  H   UNL     1       1.922   4.965  20.785  0.00  0.00    +0.000 HD
ENDBRANCH   1  17
TORSDOF 5
ENDMDL
MODEL 4
REMARK VINA RESULT:      -6.4      4.642      5.919
REMARK  Name = 
REMARK  8 active torsions:
REMARK  status: ('A' for Active; 'I' for Inactive)
REMARK    1  A    between atoms: C_1  and  C_2
REMARK    2  A    between atoms: C_2  and  C_3
REMARK    3  A    between atoms: C_2  and  O_4
REMARK    4  A    between atoms: C_2  and  C_5
REMARK    5  A    between atoms: C_6  and  C_7
REMARK    6  A    between atoms: C_7  and  C_8
REMARK    7  A    between atoms: C_7  and  O_9
REMARK    8  A    between atoms: C_7  and  C_10
REMARK                            x       y       z     vdW  Elec       q    Type
REMARK                         _______ _______ _______ _____ _____    ______ ____
ROOT
ATOM      1  C   UNL     1       3.123   5.557  19.376  0.00  0.00    +0.000 C 
ATOM      2  C   UNL     1       2.484   4.513  18.446  0.00  0.00    +0.000 C 
ENDROOT
BRANCH   1   3
ATOM      3  C   UNL     1       2.477   6.939  19.207  0.00  0.00    +0.000 A 
ATOM      4  C   UNL     1       2.518   7.628  17.980  0.00  0.00    +0.000 A 
ATOM      5  C   UNL     1       1.955   8.904  17.851  0.00  0.00    +0.000 A 
ATOM      6  C   UNL     1       1.335   9.508  18.943  0.00  0.00    +0.000 A 
ATOM      7 CL   UNL     1       0.659  11.083  18.787  0.00  0.00    +0.000 Cl
ATOM      8  C   UNL     1       1.255   8.839  20.157  0.00  0.00    +0.000 A 
ATOM      9  C   UNL     1       1.819   7.567  20.285  0.00  0.00    +0.000 A 
ENDBRANCH   1   3
BRANCH   1  11
ATOM     10  C   UNL     1       5.786   5.641  18.992  0.00  0.00    +0.000 C 
ATOM     11  C   UNL     1       4.590   5.591  19.149  0.00  0.00    +0.000 C 
BRANCH  10  13
ATOM     12  C   UNL     1       7.681   7.027  18.242  0.00  0.00    +0.000 C 
ATOM     13  C   UNL     1       7.251   5.674  18.805  0.00  0.00    +0.000 C 
ATOM     14  C   UNL     1       7.713   4.544  17.883  0.00  0.00    +0.000 C 
BRANCH  13  15
ATOM     15  O   UNL     1       7.876   5.490  20.077  0.00  0.00    +0.000 OA
ATOM     16  H   UNL     1       8.051   6.369  20.449  0.00  0.00    +0.000 HD
ENDBRANCH  13  15
ENDBRANCH  10  13
ENDBRANCH   1  11
BRANCH   1  17
ATOM     17  O   UNL     1       2.888   5.109  20.713  0.00  0.00    +0.000 OA
ATOM     18  H   UNL     1       2.495   4.228  20.666  0.00  0.00    +0.000 HD
ENDBRANCH   1  17
TORSDOF 5
ENDMDL
MODEL 5
REMARK VINA RESULT:      -6.4      3.959      5.526
REMARK  Name = 
REMARK  8 active torsions:
REMARK  status: ('A' for Active; 'I' for Inactive)
REMARK    1  A    between atoms: C_1  and  C_2
REMARK    2  A    between atoms: C_2  and  C_3
REMARK    3  A    between atoms: C_2  and  O_4
REMARK    4  A    between atoms: C_2  and  C_5
REMARK    5  A    between atoms: C_6  and  C_7
REMARK    6  A    between atoms: C_7  and  C_8
REMARK    7  A    between atoms: C_7  and  O_9
REMARK    8  A    between atoms: C_7  and  C_10
REMARK                            x       y       z     vdW  Elec       q    Type
REMARK                         _______ _______ _______ _____ _____    ______ ____
ROOT
ATOM      1  C   UNL     1       3.018   5.938  18.955  0.00  0.00    +0.000 C 
ATOM      2  C   UNL     1       2.121   4.911  18.246  0.00  0.00    +0.000 C 
ENDROOT
BRANCH   1   3
ATOM      3  C   UNL     1       2.364   7.325  19.003  0.00  0.00    +0.000 A 
ATOM      4  C   UNL     1       1.752   7.813  20.173  0.00  0.00    +0.000 A 
ATOM      5  C   UNL     1       1.128   9.067  20.191  0.00  0.00    +0.000 A 
ATOM      6  C   UNL     1       1.113   9.857  19.043  0.00  0.00    +0.000 A 
ATOM      7 CL   UNL     1       0.330  11.389  19.063  0.00  0.00    +0.000 Cl
ATOM      8  C   UNL     1       1.734   9.412  17.883  0.00  0.00    +0.000 A 
ATOM      9  C   UNL     1       2.354   8.160  17.866  0.00  0.00    +0.000 A 
ENDBRANCH   1   3
BRANCH   1  11
ATOM     10  C   UNL     1       5.449   5.996  17.798  0.00  0.00    +0.000 C 
ATOM     11  C   UNL     1       4.350   5.967  18.299  0.00  0.00    +0.000 C 
BRANCH  10  13
ATOM     12  C   UNL     1       7.557   4.741  17.562  0.00  0.00    +0.000 C 
ATOM     13  C   UNL     1       6.789   6.004  17.175  0.00  0.00    +0.000 C 
ATOM     14  C   UNL     1       7.576   7.250  17.580  0.00  0.00    +0.000 C 
BRANCH  13  15
ATOM     15  O   UNL     1       6.629   6.023  15.756  0.00  0.00    +0.000 OA
ATOM     16  H   UNL     1       5.753   5.658  15.552  0.00  0.00    +0.000 HD
ENDBRANCH  13  15
ENDBRANCH  10  13
ENDBRANCH   1  11
BRANCH   1  17
ATOM     17  O   UNL     1       3.191   5.472  20.295  0.00  0.00    +0.000 OA
ATOM     18  H   UNL     1       2.471   5.834  20.829  0.00  0.00    +0.000 HD
ENDBRANCH   1  17
TORSDOF 5
ENDMDL
MODEL 6
REMARK VINA RESULT:      -6.3      3.962      5.538
REMARK  Name = 
REMARK  8 active torsions:
REMARK  status: ('A' for Active; 'I' for Inactive)
REMARK    1  A    between atoms: C_1  and  C_2
REMARK    2  A    between atoms: C_2  and  C_3
REMARK    3  A    between atoms: C_2  and  O_4
REMARK    4  A    between atoms: C_2  and  C_5
REMARK    5  A    between atoms: C_6  and  C_7
REMARK    6  A    between atoms: C_7  and  C_8
REMARK    7  A    between atoms: C_7  and  O_9
REMARK    8  A    between atoms: C_7  and  C_10
REMARK                            x       y       z     vdW  Elec       q    Type
REMARK                         _______ _______ _______ _____ _____    ______ ____
ROOT
ATOM      1  C   UNL     1       3.018   5.919  18.983  0.00  0.00    +0.000 C 
ATOM      2  C   UNL     1       2.124   4.866  18.310  0.00  0.00    +0.000 C 
ENDROOT
BRANCH   1   3
ATOM      3  C   UNL     1       2.356   7.303  18.992  0.00  0.00    +0.000 A 
ATOM      4  C   UNL     1       2.345   8.125  17.848  0.00  0.00    +0.000 A 
ATOM      5  C   UNL     1       1.767   9.400  17.883  0.00  0.00    +0.000 A 
ATOM      6  C   UNL     1       1.185   9.872  19.057  0.00  0.00    +0.000 A 
ATOM      7 CL   UNL     1       0.492  11.447  19.101  0.00  0.00    +0.000 Cl
ATOM      8  C   UNL     1       1.157   9.072  20.192  0.00  0.00    +0.000 A 
ATOM      9  C   UNL     1       1.735   7.801  20.156  0.00  0.00    +0.000 A 
ENDBRANCH   1   3
BRANCH   1  11
ATOM     10  C   UNL     1       5.436   5.982  17.798  0.00  0.00    +0.000 C 
ATOM     11  C   UNL     1       4.347   5.937  18.320  0.00  0.00    +0.000 C 
BRANCH  10  13
ATOM     12  C   UNL     1       7.560   4.757  17.553  0.00  0.00    +0.000 C 
ATOM     13  C   UNL     1       6.774   6.010  17.173  0.00  0.00    +0.000 C 
ATOM     14  C   UNL     1       7.545   7.266  17.581  0.00  0.00    +0.000 C 
BRANCH  13  15
ATOM     15  O   UNL     1       6.611   6.033  15.754  0.00  0.00    +0.000 OA
ATOM     16  H   UNL     1       5.712   6.346  15.565  0.00  0.00    +0.000 HD
ENDBRANCH  13  15
ENDBRANCH  10  13
ENDBRANCH   1  11
BRANCH   1  17
ATOM     17  O   UNL     1       3.200   5.496  20.336  0.00  0.00    +0.000 OA
ATOM     18  H   UNL     1       3.378   4.546  20.327  0.00  0.00    +0.000 HD
ENDBRANCH   1  17
TORSDOF 5
ENDMDL
MODEL 7
REMARK VINA RESULT:      -6.3      2.871      4.309
REMARK  Name = 
REMARK  8 active torsions:
REMARK  status: ('A' for Active; 'I' for Inactive)
REMARK    1  A    between atoms: C_1  and  C_2
REMARK    2  A    between atoms: C_2  and  C_3
REMARK    3  A    between atoms: C_2  and  O_4
REMARK    4  A    between atoms: C_2  and  C_5
REMARK    5  A    between atoms: C_6  and  C_7
REMARK    6  A    between atoms: C_7  and  C_8
REMARK    7  A    between atoms: C_7  and  O_9
REMARK    8  A    between atoms: C_7  and  C_10
REMARK                            x       y       z     vdW  Elec       q    Type
REMARK                         _______ _______ _______ _____ _____    ______ ____
ROOT
ATOM      1  C   UNL     1       3.426   3.819  18.369  0.00  0.00    +0.000 C 
ATOM      2  C   UNL     1       2.500   3.242  17.286  0.00  0.00    +0.000 C 
ENDROOT
BRANCH   1   3
ATOM      3  C   UNL     1       2.773   4.995  19.106  0.00  0.00    +0.000 A 
ATOM      4  C   UNL     1       2.894   6.318  18.641  0.00  0.00    +0.000 A 
ATOM      5  C   UNL     1       2.321   7.385  19.345  0.00  0.00    +0.000 A 
ATOM      6  C   UNL     1       1.612   7.146  20.520  0.00  0.00    +0.000 A 
ATOM      7 CL   UNL     1       0.925   8.460  21.393  0.00  0.00    +0.000 Cl
ATOM      8  C   UNL     1       1.454   5.848  20.988  0.00  0.00    +0.000 A 
ATOM      9  C   UNL     1       2.027   4.785  20.285  0.00  0.00    +0.000 A 
ENDBRANCH   1   3
BRANCH   1  11
ATOM     10  C   UNL     1       5.770   4.521  17.245  0.00  0.00    +0.000 C 
ATOM     11  C   UNL     1       4.728   4.192  17.759  0.00  0.00    +0.000 C 
BRANCH  10  13
ATOM     12  C   UNL     1       7.355   6.390  16.978  0.00  0.00    +0.000 C 
ATOM     13  C   UNL     1       7.056   4.930  16.643  0.00  0.00    +0.000 C 
ATOM     14  C   UNL     1       7.043   4.724  15.128  0.00  0.00    +0.000 C 
BRANCH  13  15
ATOM     15  O   UNL     1       8.094   4.115  17.191  0.00  0.00    +0.000 OA
ATOM     16  H   UNL     1       7.951   3.207  16.879  0.00  0.00    +0.000 HD
ENDBRANCH  13  15
ENDBRANCH  10  13
ENDBRANCH   1  11
BRANCH   1  17
ATOM     17  O   UNL     1       3.659   2.767  19.309  0.00  0.00    +0.000 OA
ATOM     18  H   UNL     1       4.052   3.159  20.100  0.00  0.00    +0.000 HD
ENDBRANCH   1  17
TORSDOF 5
ENDMDL
MODEL 8
REMARK VINA RESULT:      -6.2      2.854      4.368
REMARK  Name = 
REMARK  8 active torsions:
REMARK  status: ('A' for Active; 'I' for Inactive)
REMARK    1  A    between atoms: C_1  and  C_2
REMARK    2  A    between atoms: C_2  and  C_3
REMARK    3  A    between atoms: C_2  and  O_4
REMARK    4  A    between atoms: C_2  and  C_5
REMARK    5  A    between atoms: C_6  and  C_7
REMARK    6  A    between atoms: C_7  and  C_8
REMARK    7  A    between atoms: C_7  and  O_9
REMARK    8  A    between atoms: C_7  and  C_10
REMARK                            x       y       z     vdW  Elec       q    Type
REMARK                         _______ _______ _______ _____ _____    ______ ____
ROOT
ATOM      1  C   UNL     1       3.411   3.821  18.334  0.00  0.00    +0.000 C 
ATOM      2  C   UNL     1       2.458   3.295  17.249  0.00  0.00    +0.000 C 
ENDROOT
BRANCH   1   3
ATOM      3  C   UNL     1       2.789   4.980  19.124  0.00  0.00    +0.000 A 
ATOM      4  C   UNL     1       2.063   4.760  20.310  0.00  0.00    +0.000 A 
ATOM      5  C   UNL     1       1.470   5.825  21.000  0.00  0.00    +0.000 A 
ATOM      6  C   UNL     1       1.600   7.127  20.522  0.00  0.00    +0.000 A 
ATOM      7 CL   UNL     1       0.855   8.431  21.362  0.00  0.00    +0.000 Cl
ATOM      8  C   UNL     1       2.333   7.376  19.369  0.00  0.00    +0.000 A 
ATOM      9  C   UNL     1       2.923   6.312  18.681  0.00  0.00    +0.000 A 
ENDBRANCH   1   3
BRANCH   1  11
ATOM     10  C   UNL     1       5.751   4.536  17.209  0.00  0.00    +0.000 C 
ATOM     11  C   UNL     1       4.708   4.197  17.714  0.00  0.00    +0.000 C 
BRANCH  10  13
ATOM     12  C   UNL     1       7.347   6.398  16.961  0.00  0.00    +0.000 C 
ATOM     13  C   UNL     1       7.041   4.942  16.615  0.00  0.00    +0.000 C 
ATOM     14  C   UNL     1       7.033   4.746  15.098  0.00  0.00    +0.000 C 
BRANCH  13  15
ATOM     15  O   UNL     1       8.072   4.117  17.162  0.00  0.00    +0.000 OA
ATOM     16  H   UNL     1       7.690   3.622  17.904  0.00  0.00    +0.000 HD
ENDBRANCH  13  15
ENDBRANCH  10  13
ENDBRANCH   1  11
BRANCH   1  17
ATOM     17  O   UNL     1       3.645   2.735  19.233  0.00  0.00    +0.000 OA
ATOM     18  H   UNL     1       4.455   2.288  18.954  0.00  0.00    +0.000 HD
ENDBRANCH   1  17
TORSDOF 5
ENDMDL
MODEL 9
REMARK VINA RESULT:      -6.2      0.944      1.078
REMARK  Name = 
REMARK  8 active torsions:
REMARK  status: ('A' for Active; 'I' for Inactive)
REMARK    1  A    between atoms: C_1  and  C_2
REMARK    2  A    between atoms: C_2  and  C_3
REMARK    3  A    between atoms: C_2  and  O_4
REMARK    4  A    between atoms: C_2  and  C_5
REMARK    5  A    between atoms: C_6  and  C_7
REMARK    6  A    between atoms: C_7  and  C_8
REMARK    7  A    between atoms: C_7  and  O_9
REMARK    8  A    between atoms: C_7  and  C_10
REMARK                            x       y       z     vdW  Elec       q    Type
REMARK                         _______ _______ _______ _____ _____    ______ ____
ROOT
ATOM      1  C   UNL     1       6.028   4.830  16.272  0.00  0.00    +0.000 C 
ATOM      2  C   UNL     1       7.428   4.589  16.860  0.00  0.00    +0.000 C 
ENDROOT
BRANCH   1   3
ATOM      3  C   UNL     1       4.931   4.207  17.145  0.00  0.00    +0.000 A 
ATOM      4  C   UNL     1       5.136   3.945  18.514  0.00  0.00    +0.000 A 
ATOM      5  C   UNL     1       4.136   3.342  19.289  0.00  0.00    +0.000 A 
ATOM      6  C   UNL     1       2.915   3.000  18.712  0.00  0.00    +0.000 A 
ATOM      7 CL   UNL     1       1.696   2.244  19.663  0.00  0.00    +0.000 Cl
ATOM      8  C   UNL     1       2.677   3.273  17.372  0.00  0.00    +0.000 A 
ATOM      9  C   UNL     1       3.675   3.872  16.599  0.00  0.00    +0.000 A 
ENDBRANCH   1   3
BRANCH   1  11
ATOM     10  C   UNL     1       5.986   3.931  13.735  0.00  0.00    +0.000 C 
ATOM     11  C   UNL     1       5.985   4.331  14.874  0.00  0.00    +0.000 C 
BRANCH  10  13
ATOM     12  C   UNL     1       7.019   4.147  11.508  0.00  0.00    +0.000 C 
ATOM     13  C   UNL     1       5.976   3.415  12.351  0.00  0.00    +0.000 C 
ATOM     14  C   UNL     1       4.590   3.555  11.721  0.00  0.00    +0.000 C 
BRANCH  13  15
ATOM     15  O   UNL     1       6.309   2.026  12.381  0.00  0.00    +0.000 OA
ATOM     16  H   UNL     1       5.571   1.537  11.984  0.00  0.00    +0.000 HD
ENDBRANCH  13  15
ENDBRANCH  10  13
ENDBRANCH   1  11
BRANCH   1  17
ATOM     17  O   UNL     1       5.836   6.247  16.247  0.00  0.00    +0.000 OA
ATOM     18  H   UNL     1       5.628   6.501  15.338  0.00  0.00    +0.000 HD
ENDBRANCH   1  17
TORSDOF 5
ENDMDL
