MODEL 1
REMARK VINA RESULT:      -8.4      0.000      0.000
REMARK  Name = 
REMARK  4 active torsions:
REMARK  status: ('A' for Active; 'I' for Inactive)
REMARK    1  A    between atoms: C_1  and  N_2
REMARK    2  A    between atoms: N_5  and  C_6
REMARK    3  A    between atoms: C_16  and  N_17
REMARK    4  A    between atoms: N_17  and  C_18
REMARK                            x       y       z     vdW  Elec       q    Type
REMARK                         _______ _______ _______ _____ _____    ______ ____
ROOT
ATOM      1  C   UNL     1       1.189  11.129  19.651  0.00  0.00    +0.000 A 
ATOM      2  C   UNL     1       1.285  10.085  18.736  0.00  0.00    +0.000 A 
ATOM      3  C   UNL     1       1.316   8.768  19.168  0.00  0.00    +0.000 A 
ATOM      4  C   UNL     1       1.259   8.468  20.526  0.00  0.00    +0.000 A 
ATOM      5  N   UNL     1       1.240   7.152  20.983  0.00  0.00    +0.000 N 
ATOM      6  C   UNL     1       1.894   6.049  20.436  0.00  0.00    +0.000 A 
ATOM      7  N   UNL     1       1.776   4.882  21.071  0.00  0.00    +0.000 NA
ATOM      8  C   UNL     1       2.499   3.852  20.574  0.00  0.00    +0.000 A 
ATOM      9  C   UNL     1       3.358   3.950  19.502  0.00  0.00    +0.000 A 
ATOM     10 CL   UNL     1       4.338   2.619  19.040  0.00  0.00    +0.000 Cl
ATOM     11  C   UNL     1       3.417   5.188  18.890  0.00  0.00    +0.000 A 
ATOM     12  N   UNL     1       2.667   6.204  19.354  0.00  0.00    +0.000 NA
ATOM     13  N   UNL     1       1.175   9.448  21.446  0.00  0.00    +0.000 NA
ATOM     14  C   UNL     1       1.156  10.733  20.990  0.00  0.00    +0.000 A 
ATOM     15  H   UNL     1       1.126   7.072  21.980  0.00  0.00    +0.000 HD
ENDROOT
BRANCH   1  20
ATOM     16  C   UNL     1       0.788  16.660  19.042  0.00  0.00    +0.000 C 
ATOM     17  N   UNL     1       0.796  15.256  18.644  0.00  0.00    +0.000 NA
ATOM     18  C   UNL     1      -0.273  14.512  19.349  0.00  0.00    +0.000 C 
ATOM     19  C   UNL     1      -0.282  13.013  18.980  0.00  0.00    +0.000 C 
ATOM     20  N   UNL     1       1.045  12.441  19.255  0.00  0.00    +0.000 N 
ATOM     21  C   UNL     1       2.149  13.136  18.578  0.00  0.00    +0.000 C 
ATOM     22  C   UNL     1       2.106  14.635  18.954  0.00  0.00    +0.000 C 
ENDBRANCH   1  20
BRANCH  11  23
ATOM     23  N   UNL     1       4.316   5.450  17.823  0.00  0.00    +0.000 N 
ATOM     24  H   UNL     1       3.844   5.768  16.987  0.00  0.00    +0.000 HD
BRANCH  23  25
ATOM     25  C   UNL     1       5.636   5.929  17.994  0.00  0.00    +0.000 A 
ATOM     26  C   UNL     1       6.505   5.287  18.895  0.00  0.00    +0.000 A 
ATOM     27  C   UNL     1       7.763   5.806  19.198  0.00  0.00    +0.000 A 
ATOM     28  C   UNL     1       8.185   6.976  18.581  0.00  0.00    +0.000 A 
ATOM     29  C   UNL     1       7.356   7.590  17.650  0.00  0.00    +0.000 A 
ATOM     30  F   UNL     1       7.770   8.716  17.052  0.00  0.00    +0.000 F 
ATOM     31  C   UNL     1       6.092   7.077  17.345  0.00  0.00    +0.000 A 
ENDBRANCH  23  25
ENDBRANCH  11  23
TORSDOF 3
ENDMDL
MODEL 2
REMARK VINA RESULT:      -8.3      3.500      5.224
REMARK  Name = 
REMARK  4 active torsions:
REMARK  status: ('A' for Active; 'I' for Inactive)
REMARK    1  A    between atoms: C_1  and  N_2
REMARK    2  A    between atoms: N_5  and  C_6
REMARK    3  A    between atoms: C_16  and  N_17
REMARK    4  A    between atoms: N_17  and  C_18
REMARK                            x       y       z     vdW  Elec       q    Type
REMARK                         _______ _______ _______ _____ _____    ______ ____
ROOT
ATOM      1  C   UNL     1      -1.271  11.317  20.416  0.00  0.00    +0.000 A 
ATOM      2  C   UNL     1      -0.101  10.739  20.899  0.00  0.00    +0.000 A 
ATOM      3  C   UNL     1       0.816  10.168  20.029  0.00  0.00    +0.000 A 
ATOM      4  C   UNL     1       0.576  10.156  18.659  0.00  0.00    +0.000 A 
ATOM      5  N   UNL     1       1.503   9.632  17.760  0.00  0.00    +0.000 N 
ATOM      6  C   UNL     1       2.354   8.543  17.949  0.00  0.00    +0.000 A 
ATOM      7  N   UNL     1       3.130   8.181  16.927  0.00  0.00    +0.000 NA
ATOM      8  C   UNL     1       3.873   7.063  17.105  0.00  0.00    +0.000 A 
ATOM      9  C   UNL     1       3.840   6.279  18.237  0.00  0.00    +0.000 A 
ATOM     10 CL   UNL     1       4.714   4.803  18.304  0.00  0.00    +0.000 Cl
ATOM     11  C   UNL     1       3.021   6.726  19.255  0.00  0.00    +0.000 A 
ATOM     12  N   UNL     1       2.313   7.861  19.100  0.00  0.00    +0.000 NA
ATOM     13  N   UNL     1      -0.548  10.695  18.149  0.00  0.00    +0.000 NA
ATOM     14  C   UNL     1      -1.433  11.241  19.032  0.00  0.00    +0.000 A 
ATOM     15  H   UNL     1       1.241   9.748  16.795  0.00  0.00    +0.000 HD
ENDROOT
BRANCH   1  20
ATOM     16  C   UNL     1      -5.336  13.139  23.775  0.00  0.00    +0.000 C 
ATOM     17  N   UNL     1      -4.111  13.198  22.985  0.00  0.00    +0.000 NA
ATOM     18  C   UNL     1      -4.400  12.921  21.559  0.00  0.00    +0.000 C 
ATOM     19  C   UNL     1      -3.126  12.944  20.688  0.00  0.00    +0.000 C 
ATOM     20  N   UNL     1      -2.151  11.990  21.237  0.00  0.00    +0.000 N 
ATOM     21  C   UNL     1      -1.818  12.219  22.651  0.00  0.00    +0.000 C 
ATOM     22  C   UNL     1      -3.122  12.212  23.481  0.00  0.00    +0.000 C 
ENDBRANCH   1  20
BRANCH  11  23
ATOM     23  N   UNL     1       2.833   5.976  20.445  0.00  0.00    +0.000 N 
ATOM     24  H   UNL     1       2.721   6.564  21.261  0.00  0.00    +0.000 HD
BRANCH  23  25
ATOM     25  C   UNL     1       2.175   4.726  20.503  0.00  0.00    +0.000 A 
ATOM     26  C   UNL     1       2.325   3.903  21.634  0.00  0.00    +0.000 A 
ATOM     27  C   UNL     1       1.810   2.608  21.675  0.00  0.00    +0.000 A 
ATOM     28  C   UNL     1       1.108   2.119  20.581  0.00  0.00    +0.000 A 
ATOM     29  C   UNL     1       0.907   2.942  19.479  0.00  0.00    +0.000 A 
ATOM     30  F   UNL     1       0.223   2.467  18.429  0.00  0.00    +0.000 F 
ATOM     31  C   UNL     1       1.425   4.239  19.430  0.00  0.00    +0.000 A 
ENDBRANCH  23  25
ENDBRANCH  11  23
TORSDOF 3
ENDMDL
MODEL 3
REMARK VINA RESULT:      -8.3      4.373      8.949
REMARK  Name = 
REMARK  4 active torsions:
REMARK  status: ('A' for Active; 'I' for Inactive)
REMARK    1  A    between atoms: C_1  and  N_2
REMARK    2  A    between atoms: N_5  and  C_6
REMARK    3  A    between atoms: C_16  and  N_17
REMARK    4  A    between atoms: N_17  and  C_18
REMARK                            x       y       z     vdW  Elec       q    Type
REMARK                         _______ _______ _______ _____ _____    ______ ____
ROOT
ATOM      1  C   UNL     1       2.646   6.741  18.850  0.00  0.00    +0.000 A 
ATOM      2  C   UNL     1       2.506   8.125  18.824  0.00  0.00    +0.000 A 
ATOM      3  C   UNL     1       1.871   8.791  19.861  0.00  0.00    +0.000 A 
ATOM      4  C   UNL     1       1.356   8.085  20.943  0.00  0.00    +0.000 A 
ATOM      5  N   UNL     1       0.757   8.734  22.021  0.00  0.00    +0.000 N 
ATOM      6  C   UNL     1      -0.015   9.895  21.996  0.00  0.00    +0.000 A 
ATOM      7  N   UNL     1      -0.536  10.316  23.149  0.00  0.00    +0.000 NA
ATOM      8  C   UNL     1      -1.360  11.387  23.080  0.00  0.00    +0.000 A 
ATOM      9  C   UNL     1      -1.712  12.024  21.910  0.00  0.00    +0.000 A 
ATOM     10 CL   UNL     1      -2.877  13.284  21.916  0.00  0.00    +0.000 Cl
ATOM     11  C   UNL     1      -1.123  11.537  20.759  0.00  0.00    +0.000 A 
ATOM     12  N   UNL     1      -0.269  10.498  20.828  0.00  0.00    +0.000 NA
ATOM     13  N   UNL     1       1.461   6.743  21.005  0.00  0.00    +0.000 NA
ATOM     14  C   UNL     1       2.082   6.118  19.965  0.00  0.00    +0.000 A 
ATOM     15  H   UNL     1       0.491   8.115  22.768  0.00  0.00    +0.000 HD
ENDROOT
BRANCH   1  20
ATOM     16  C   UNL     1       6.224   3.794  15.746  0.00  0.00    +0.000 C 
ATOM     17  N   UNL     1       5.025   4.565  16.056  0.00  0.00    +0.000 NA
ATOM     18  C   UNL     1       5.388   5.928  16.507  0.00  0.00    +0.000 C 
ATOM     19  C   UNL     1       4.149   6.773  16.874  0.00  0.00    +0.000 C 
ATOM     20  N   UNL     1       3.365   6.057  17.893  0.00  0.00    +0.000 N 
ATOM     21  C   UNL     1       2.969   4.697  17.500  0.00  0.00    +0.000 C 
ATOM     22  C   UNL     1       4.235   3.897  17.117  0.00  0.00    +0.000 C 
ENDBRANCH   1  20
BRANCH  11  23
ATOM     23  N   UNL     1      -1.455  12.048  19.478  0.00  0.00    +0.000 N 
ATOM     24  H   UNL     1      -0.735  12.652  19.102  0.00  0.00    +0.000 HD
BRANCH  23  25
ATOM     25  C   UNL     1      -2.224  11.351  18.518  0.00  0.00    +0.000 A 
ATOM     26  C   UNL     1      -1.600  10.454  17.633  0.00  0.00    +0.000 A 
ATOM     27  C   UNL     1      -2.293   9.853  16.584  0.00  0.00    +0.000 A 
ATOM     28  C   UNL     1      -3.645  10.125  16.415  0.00  0.00    +0.000 A 
ATOM     29  C   UNL     1      -4.285  10.970  17.315  0.00  0.00    +0.000 A 
ATOM     30  F   UNL     1      -5.590  11.225  17.151  0.00  0.00    +0.000 F 
ATOM     31  C   UNL     1      -3.593  11.579  18.366  0.00  0.00    +0.000 A 
ENDBRANCH  23  25
ENDBRANCH  11  23
TORSDOF 3
ENDMDL
MODEL 4
REMARK VINA RESULT:      -8.3      0.880      1.249
REMARK  Name = 
REMARK  4 active torsions:
REMARK  status: ('A' for Active; 'I' for Inactive)
REMARK    1  A    between atoms: C_1  and  N_2
REMARK    2  A    between atoms: N_5  and  C_6
REMARK    3  A    between atoms: C_16  and  N_17
REMARK    4  A    between atoms: N_17  and  C_18
REMARK                            x       y       z     vdW  Elec       q    Type
REMARK                         _______ _______ _______ _____ _____    ______ ____
ROOT
ATOM      1  C   UNL     1       1.225  10.897  19.816  0.00  0.00    +0.000 A 
ATOM      2  C   UNL     1       1.294   9.853  18.899  0.00  0.00    +0.000 A 
ATOM      3  C   UNL     1       1.294   8.534  19.328  0.00  0.00    +0.000 A 
ATOM      4  C   UNL     1       1.235   8.234  20.685  0.00  0.00    +0.000 A 
ATOM      5  N   UNL     1       1.186   6.917  21.140  0.00  0.00    +0.000 N 
ATOM      6  C   UNL     1       1.812   5.800  20.589  0.00  0.00    +0.000 A 
ATOM      7  N   UNL     1       1.668   4.635  21.222  0.00  0.00    +0.000 NA
ATOM      8  C   UNL     1       2.365   3.589  20.720  0.00  0.00    +0.000 A 
ATOM      9  C   UNL     1       3.223   3.669  19.646  0.00  0.00    +0.000 A 
ATOM     10 CL   UNL     1       4.168   2.316  19.177  0.00  0.00    +0.000 Cl
ATOM     11  C   UNL     1       3.309   4.906  19.036  0.00  0.00    +0.000 A 
ATOM     12  N   UNL     1       2.584   5.939  19.504  0.00  0.00    +0.000 NA
ATOM     13  N   UNL     1       1.178   9.213  21.608  0.00  0.00    +0.000 NA
ATOM     14  C   UNL     1       1.188  10.499  21.154  0.00  0.00    +0.000 A 
ATOM     15  H   UNL     1       1.074   6.839  22.137  0.00  0.00    +0.000 HD
ENDROOT
BRANCH   1  20
ATOM     16  C   UNL     1       1.208  16.435  19.135  0.00  0.00    +0.000 C 
ATOM     17  N   UNL     1       0.984  15.033  18.796  0.00  0.00    +0.000 NA
ATOM     18  C   UNL     1       0.061  14.406  19.769  0.00  0.00    +0.000 C 
ATOM     19  C   UNL     1      -0.183  12.912  19.467  0.00  0.00    +0.000 C 
ATOM     20  N   UNL     1       1.111  12.213  19.423  0.00  0.00    +0.000 N 
ATOM     21  C   UNL     1       2.071  12.788  18.468  0.00  0.00    +0.000 C 
ATOM     22  C   UNL     1       2.265  14.287  18.791  0.00  0.00    +0.000 C 
ENDBRANCH   1  20
BRANCH  11  23
ATOM     23  N   UNL     1       4.210   5.149  17.967  0.00  0.00    +0.000 N 
ATOM     24  H   UNL     1       3.735   5.303  17.086  0.00  0.00    +0.000 HD
BRANCH  23  25
ATOM     25  C   UNL     1       5.455   5.805  18.109  0.00  0.00    +0.000 A 
ATOM     26  C   UNL     1       5.755   6.924  17.310  0.00  0.00    +0.000 A 
ATOM     27  C   UNL     1       7.018   7.514  17.317  0.00  0.00    +0.000 A 
ATOM     28  C   UNL     1       8.005   7.003  18.150  0.00  0.00    +0.000 A 
ATOM     29  C   UNL     1       7.704   5.931  18.982  0.00  0.00    +0.000 A 
ATOM     30  F   UNL     1       8.658   5.446  19.788  0.00  0.00    +0.000 F 
ATOM     31  C   UNL     1       6.441   5.332  18.976  0.00  0.00    +0.000 A 
ENDBRANCH  23  25
ENDBRANCH  11  23
TORSDOF 3
ENDMDL
MODEL 5
REMARK VINA RESULT:      -8.2      1.105      1.643
REMARK  Name = 
REMARK  4 active torsions:
REMARK  status: ('A' for Active; 'I' for Inactive)
REMARK    1  A    between atoms: C_1  and  N_2
REMARK    2  A    between atoms: N_5  and  C_6
REMARK    3  A    between atoms: C_16  and  N_17
REMARK    4  A    between atoms: N_17  and  C_18
REMARK                            x       y       z     vdW  Elec       q    Type
REMARK                         _______ _______ _______ _____ _____    ______ ____
ROOT
ATOM      1  C   UNL     1       1.129  10.749  20.381  0.00  0.00    +0.000 A 
ATOM      2  C   UNL     1       1.192   9.816  19.351  0.00  0.00    +0.000 A 
ATOM      3  C   UNL     1       1.219   8.458  19.628  0.00  0.00    +0.000 A 
ATOM      4  C   UNL     1       1.193   8.004  20.943  0.00  0.00    +0.000 A 
ATOM      5  N   UNL     1       1.172   6.644  21.246  0.00  0.00    +0.000 N 
ATOM      6  C   UNL     1       1.800   5.606  20.558  0.00  0.00    +0.000 A 
ATOM      7  N   UNL     1       1.685   4.375  21.058  0.00  0.00    +0.000 NA
ATOM      8  C   UNL     1       2.385   3.404  20.427  0.00  0.00    +0.000 A 
ATOM      9  C   UNL     1       3.218   3.618  19.352  0.00  0.00    +0.000 A 
ATOM     10 CL   UNL     1       4.171   2.342  18.714  0.00  0.00    +0.000 Cl
ATOM     11  C   UNL     1       3.275   4.917  18.884  0.00  0.00    +0.000 A 
ATOM     12  N   UNL     1       2.547   5.880  19.482  0.00  0.00    +0.000 NA
ATOM     13  N   UNL     1       1.143   8.872  21.971  0.00  0.00    +0.000 NA
ATOM     14  C   UNL     1       1.126  10.201  21.666  0.00  0.00    +0.000 A 
ATOM     15  H   UNL     1       1.082   6.451  22.229  0.00  0.00    +0.000 HD
ENDROOT
BRANCH   1  20
ATOM     16  C   UNL     1      -0.145  15.922  18.726  0.00  0.00    +0.000 C 
ATOM     17  N   UNL     1       0.526  14.878  19.493  0.00  0.00    +0.000 NA
ATOM     18  C   UNL     1       1.287  13.981  18.593  0.00  0.00    +0.000 C 
ATOM     19  C   UNL     1       1.991  12.841  19.361  0.00  0.00    +0.000 C 
ATOM     20  N   UNL     1       0.990  12.099  20.143  0.00  0.00    +0.000 N 
ATOM     21  C   UNL     1       0.205  12.937  21.061  0.00  0.00    +0.000 C 
ATOM     22  C   UNL     1      -0.460  14.077  20.257  0.00  0.00    +0.000 C 
ENDBRANCH   1  20
BRANCH  11  23
ATOM     23  N   UNL     1       4.150   5.294  17.832  0.00  0.00    +0.000 N 
ATOM     24  H   UNL     1       3.653   5.581  16.999  0.00  0.00    +0.000 HD
BRANCH  23  25
ATOM     25  C   UNL     1       5.412   5.900  18.026  0.00  0.00    +0.000 A 
ATOM     26  C   UNL     1       5.788   7.006  17.243  0.00  0.00    +0.000 A 
ATOM     27  C   UNL     1       7.072   7.546  17.302  0.00  0.00    +0.000 A 
ATOM     28  C   UNL     1       8.004   6.996  18.172  0.00  0.00    +0.000 A 
ATOM     29  C   UNL     1       7.628   5.936  18.989  0.00  0.00    +0.000 A 
ATOM     30  F   UNL     1       8.529   5.413  19.832  0.00  0.00    +0.000 F 
ATOM     31  C   UNL     1       6.344   5.388  18.931  0.00  0.00    +0.000 A 
ENDBRANCH  23  25
ENDBRANCH  11  23
TORSDOF 3
ENDMDL
MODEL 6
REMARK VINA RESULT:      -8.2      3.558      5.275
REMARK  Name = 
REMARK  4 active torsions:
REMARK  status: ('A' for Active; 'I' for Inactive)
REMARK    1  A    between atoms: C_1  and  N_2
REMARK    2  A    between atoms: N_5  and  C_6
REMARK    3  A    between atoms: C_16  and  N_17
REMARK    4  A    between atoms: N_17  and  C_18
REMARK                            x       y       z     vdW  Elec       q    Type
REMARK                         _______ _______ _______ _____ _____    ______ ____
ROOT
ATOM      1  C   UNL     1      -1.595  11.734  20.776  0.00  0.00    +0.000 A 
ATOM      2  C   UNL     1      -0.446  11.108  21.249  0.00  0.00    +0.000 A 
ATOM      3  C   UNL     1       0.458  10.532  20.369  0.00  0.00    +0.000 A 
ATOM      4  C   UNL     1       0.225  10.562  18.998  0.00  0.00    +0.000 A 
ATOM      5  N   UNL     1       1.141  10.032  18.090  0.00  0.00    +0.000 N 
ATOM      6  C   UNL     1       1.956   8.913  18.255  0.00  0.00    +0.000 A 
ATOM      7  N   UNL     1       2.727   8.554  17.227  0.00  0.00    +0.000 NA
ATOM      8  C   UNL     1       3.434   7.410  17.380  0.00  0.00    +0.000 A 
ATOM      9  C   UNL     1       3.371   6.598  18.490  0.00  0.00    +0.000 A 
ATOM     10 CL   UNL     1       4.198   5.095  18.524  0.00  0.00    +0.000 Cl
ATOM     11  C   UNL     1       2.560   7.044  19.516  0.00  0.00    +0.000 A 
ATOM     12  N   UNL     1       1.888   8.204  19.387  0.00  0.00    +0.000 NA
ATOM     13  N   UNL     1      -0.879  11.148  18.497  0.00  0.00    +0.000 NA
ATOM     14  C   UNL     1      -1.752  11.698  19.389  0.00  0.00    +0.000 A 
ATOM     15  H   UNL     1       0.887  10.182  17.127  0.00  0.00    +0.000 HD
ENDROOT
BRANCH   1  20
ATOM     16  C   UNL     1      -4.457  15.281  23.993  0.00  0.00    +0.000 C 
ATOM     17  N   UNL     1      -4.140  14.026  23.320  0.00  0.00    +0.000 NA
ATOM     18  C   UNL     1      -2.827  13.512  23.774  0.00  0.00    +0.000 C 
ATOM     19  C   UNL     1      -2.436  12.198  23.065  0.00  0.00    +0.000 C 
ATOM     20  N   UNL     1      -2.458  12.412  21.610  0.00  0.00    +0.000 N 
ATOM     21  C   UNL     1      -3.740  12.917  21.098  0.00  0.00    +0.000 C 
ATOM     22  C   UNL     1      -4.105  14.217  21.851  0.00  0.00    +0.000 C 
ENDBRANCH   1  20
BRANCH  11  23
ATOM     23  N   UNL     1       2.343   6.270  20.686  0.00  0.00    +0.000 N 
ATOM     24  H   UNL     1       1.988   6.822  21.456  0.00  0.00    +0.000 HD
BRANCH  23  25
ATOM     25  C   UNL     1       1.950   4.912  20.680  0.00  0.00    +0.000 A 
ATOM     26  C   UNL     1       2.432   4.035  21.668  0.00  0.00    +0.000 A 
ATOM     27  C   UNL     1       2.184   2.664  21.620  0.00  0.00    +0.000 A 
ATOM     28  C   UNL     1       1.419   2.145  20.583  0.00  0.00    +0.000 A 
ATOM     29  C   UNL     1       0.893   3.009  19.629  0.00  0.00    +0.000 A 
ATOM     30  F   UNL     1       0.151   2.505  18.634  0.00  0.00    +0.000 F 
ATOM     31  C   UNL     1       1.143   4.384  19.670  0.00  0.00    +0.000 A 
ENDBRANCH  23  25
ENDBRANCH  11  23
TORSDOF 3
ENDMDL
MODEL 7
REMARK VINA RESULT:      -8.1      0.675      1.078
REMARK  Name = 
REMARK  4 active torsions:
REMARK  status: ('A' for Active; 'I' for Inactive)
REMARK    1  A    between atoms: C_1  and  N_2
REMARK    2  A    between atoms: N_5  and  C_6
REMARK    3  A    between atoms: C_16  and  N_17
REMARK    4  A    between atoms: N_17  and  C_18
REMARK                            x       y       z     vdW  Elec       q    Type
REMARK                         _______ _______ _______ _____ _____    ______ ____
ROOT
ATOM      1  C   UNL     1       1.138  10.889  20.364  0.00  0.00    +0.000 A 
ATOM      2  C   UNL     1       1.219   9.968  19.325  0.00  0.00    +0.000 A 
ATOM      3  C   UNL     1       1.258   8.607  19.588  0.00  0.00    +0.000 A 
ATOM      4  C   UNL     1       1.225   8.140  20.898  0.00  0.00    +0.000 A 
ATOM      5  N   UNL     1       1.215   6.777  21.187  0.00  0.00    +0.000 N 
ATOM      6  C   UNL     1       1.860   5.753  20.495  0.00  0.00    +0.000 A 
ATOM      7  N   UNL     1       1.754   4.515  20.982  0.00  0.00    +0.000 NA
ATOM      8  C   UNL     1       2.468   3.558  20.347  0.00  0.00    +0.000 A 
ATOM      9  C   UNL     1       3.308   3.791  19.281  0.00  0.00    +0.000 A 
ATOM     10 CL   UNL     1       4.280   2.531  18.638  0.00  0.00    +0.000 Cl
ATOM     11  C   UNL     1       3.356   5.096  18.827  0.00  0.00    +0.000 A 
ATOM     12  N   UNL     1       2.613   6.045  19.428  0.00  0.00    +0.000 NA
ATOM     13  N   UNL     1       1.157   8.997  21.935  0.00  0.00    +0.000 NA
ATOM     14  C   UNL     1       1.130  10.329  21.643  0.00  0.00    +0.000 A 
ATOM     15  H   UNL     1       1.119   6.573  22.168  0.00  0.00    +0.000 HD
ENDROOT
BRANCH   1  20
ATOM     16  C   UNL     1      -0.141  16.064  18.718  0.00  0.00    +0.000 C 
ATOM     17  N   UNL     1       0.508  15.020  19.505  0.00  0.00    +0.000 NA
ATOM     18  C   UNL     1       1.331  14.151  18.634  0.00  0.00    +0.000 C 
ATOM     19  C   UNL     1       2.014  13.012  19.421  0.00  0.00    +0.000 C 
ATOM     20  N   UNL     1       0.987  12.241  20.138  0.00  0.00    +0.000 N 
ATOM     21  C   UNL     1       0.139  13.050  21.025  0.00  0.00    +0.000 C 
ATOM     22  C   UNL     1      -0.503  14.191  20.204  0.00  0.00    +0.000 C 
ENDBRANCH   1  20
BRANCH  11  23
ATOM     23  N   UNL     1       4.236   5.492  17.786  0.00  0.00    +0.000 N 
ATOM     24  H   UNL     1       3.751   5.935  17.016  0.00  0.00    +0.000 HD
BRANCH  23  25
ATOM     25  C   UNL     1       5.569   5.917  17.990  0.00  0.00    +0.000 A 
ATOM     26  C   UNL     1       6.375   5.271  18.944  0.00  0.00    +0.000 A 
ATOM     27  C   UNL     1       7.644   5.744  19.276  0.00  0.00    +0.000 A 
ATOM     28  C   UNL     1       8.141   6.871  18.635  0.00  0.00    +0.000 A 
ATOM     29  C   UNL     1       7.374   7.487  17.652  0.00  0.00    +0.000 A 
ATOM     30  F   UNL     1       7.862   8.570  17.031  0.00  0.00    +0.000 F 
ATOM     31  C   UNL     1       6.100   7.019  17.318  0.00  0.00    +0.000 A 
ENDBRANCH  23  25
ENDBRANCH  11  23
TORSDOF 3
ENDMDL
MODEL 8
REMARK VINA RESULT:      -8.1      1.895      2.445
REMARK  Name = 
REMARK  4 active torsions:
REMARK  status: ('A' for Active; 'I' for Inactive)
REMARK    1  A    between atoms: C_1  and  N_2
REMARK    2  A    between atoms: N_5  and  C_6
REMARK    3  A    between atoms: C_16  and  N_17
REMARK    4  A    between atoms: N_17  and  C_18
REMARK                            x       y       z     vdW  Elec       q    Type
REMARK                         _______ _______ _______ _____ _____    ______ ____
ROOT
ATOM      1  C   UNL     1       1.543   9.462  19.488  0.00  0.00    +0.000 A 
ATOM      2  C   UNL     1       2.008   8.416  18.698  0.00  0.00    +0.000 A 
ATOM      3  C   UNL     1       1.965   7.109  19.159  0.00  0.00    +0.000 A 
ATOM      4  C   UNL     1       1.463   6.823  20.425  0.00  0.00    +0.000 A 
ATOM      5  N   UNL     1       1.365   5.514  20.893  0.00  0.00    +0.000 N 
ATOM      6  C   UNL     1       2.230   4.450  20.640  0.00  0.00    +0.000 A 
ATOM      7  N   UNL     1       1.969   3.286  21.237  0.00  0.00    +0.000 NA
ATOM      8  C   UNL     1       2.878   2.300  21.052  0.00  0.00    +0.000 A 
ATOM      9  C   UNL     1       4.045   2.442  20.335  0.00  0.00    +0.000 A 
ATOM     10 CL   UNL     1       5.199   1.173  20.281  0.00  0.00    +0.000 Cl
ATOM     11  C   UNL     1       4.238   3.673  19.738  0.00  0.00    +0.000 A 
ATOM     12  N   UNL     1       3.316   4.644  19.883  0.00  0.00    +0.000 NA
ATOM     13  N   UNL     1       1.012   7.806  21.227  0.00  0.00    +0.000 NA
ATOM     14  C   UNL     1       1.076   9.081  20.748  0.00  0.00    +0.000 A 
ATOM     15  H   UNL     1       0.921   5.439  21.793  0.00  0.00    +0.000 HD
ENDROOT
BRANCH   1  20
ATOM     16  C   UNL     1       1.760  14.942  18.462  0.00  0.00    +0.000 C 
ATOM     17  N   UNL     1       1.439  13.538  18.230  0.00  0.00    +0.000 NA
ATOM     18  C   UNL     1       0.560  13.022  19.304  0.00  0.00    +0.000 C 
ATOM     19  C   UNL     1       0.218  11.528  19.114  0.00  0.00    +0.000 C 
ATOM     20  N   UNL     1       1.468  10.757  19.022  0.00  0.00    +0.000 N 
ATOM     21  C   UNL     1       2.381  11.220  17.967  0.00  0.00    +0.000 C 
ATOM     22  C   UNL     1       2.676  12.722  18.180  0.00  0.00    +0.000 C 
ENDBRANCH   1  20
BRANCH  11  23
ATOM     23  N   UNL     1       5.432   3.981  19.034  0.00  0.00    +0.000 N 
ATOM     24  H   UNL     1       6.149   3.277  19.160  0.00  0.00    +0.000 HD
BRANCH  23  25
ATOM     25  C   UNL     1       5.473   4.678  17.805  0.00  0.00    +0.000 A 
ATOM     26  C   UNL     1       5.512   6.084  17.795  0.00  0.00    +0.000 A 
ATOM     27  C   UNL     1       5.413   6.814  16.611  0.00  0.00    +0.000 A 
ATOM     28  C   UNL     1       5.296   6.141  15.402  0.00  0.00    +0.000 A 
ATOM     29  C   UNL     1       5.309   4.751  15.396  0.00  0.00    +0.000 A 
ATOM     30  F   UNL     1       5.203   4.105  14.226  0.00  0.00    +0.000 F 
ATOM     31  C   UNL     1       5.404   4.014  16.579  0.00  0.00    +0.000 A 
ENDBRANCH  23  25
ENDBRANCH  11  23
TORSDOF 3
ENDMDL
MODEL 9
REMARK VINA RESULT:      -8.0      4.039      8.909
REMARK  Name = 
REMARK  4 active torsions:
REMARK  status: ('A' for Active; 'I' for Inactive)
REMARK    1  A    between atoms: C_1  and  N_2
REMARK    2  A    between atoms: N_5  and  C_6
REMARK    3  A    between atoms: C_16  and  N_17
REMARK    4  A    between atoms: N_17  and  C_18
REMARK                            x       y       z     vdW  Elec       q    Type
REMARK                         _______ _______ _______ _____ _____    ______ ____
ROOT
ATOM      1  C   UNL     1       2.583   6.755  18.885  0.00  0.00    +0.000 A 
ATOM      2  C   UNL     1       2.485   8.143  18.879  0.00  0.00    +0.000 A 
ATOM      3  C   UNL     1       1.846   8.811  19.913  0.00  0.00    +0.000 A 
ATOM      4  C   UNL     1       1.284   8.103  20.970  0.00  0.00    +0.000 A 
ATOM      5  N   UNL     1       0.679   8.753  22.044  0.00  0.00    +0.000 N 
ATOM      6  C   UNL     1      -0.058   9.937  22.020  0.00  0.00    +0.000 A 
ATOM      7  N   UNL     1      -0.593  10.355  23.168  0.00  0.00    +0.000 NA
ATOM      8  C   UNL     1      -1.382  11.452  23.097  0.00  0.00    +0.000 A 
ATOM      9  C   UNL     1      -1.687  12.117  21.931  0.00  0.00    +0.000 A 
ATOM     10 CL   UNL     1      -2.814  13.412  21.930  0.00  0.00    +0.000 Cl
ATOM     11  C   UNL     1      -1.086  11.631  20.786  0.00  0.00    +0.000 A 
ATOM     12  N   UNL     1      -0.265  10.566  20.858  0.00  0.00    +0.000 NA
ATOM     13  N   UNL     1       1.347   6.758  21.012  0.00  0.00    +0.000 NA
ATOM     14  C   UNL     1       1.974   6.131  19.976  0.00  0.00    +0.000 A 
ATOM     15  H   UNL     1       0.376   8.130  22.775  0.00  0.00    +0.000 HD
ENDROOT
BRANCH   1  20
ATOM     16  C   UNL     1       6.156   3.770  15.812  0.00  0.00    +0.000 C 
ATOM     17  N   UNL     1       4.964   4.557  16.111  0.00  0.00    +0.000 NA
ATOM     18  C   UNL     1       5.341   5.913  16.572  0.00  0.00    +0.000 C 
ATOM     19  C   UNL     1       4.110   6.773  16.929  0.00  0.00    +0.000 C 
ATOM     20  N   UNL     1       3.304   6.065  17.935  0.00  0.00    +0.000 N 
ATOM     21  C   UNL     1       2.894   4.712  17.530  0.00  0.00    +0.000 C 
ATOM     22  C   UNL     1       4.152   3.895  17.159  0.00  0.00    +0.000 C 
ENDBRANCH   1  20
BRANCH  11  23
ATOM     23  N   UNL     1      -1.371  12.173  19.506  0.00  0.00    +0.000 N 
ATOM     24  H   UNL     1      -0.570  12.630  19.091  0.00  0.00    +0.000 HD
BRANCH  23  25
ATOM     25  C   UNL     1      -2.291  11.611  18.591  0.00  0.00    +0.000 A 
ATOM     26  C   UNL     1      -3.671  11.825  18.760  0.00  0.00    +0.000 A 
ATOM     27  C   UNL     1      -4.618  11.178  17.967  0.00  0.00    +0.000 A 
ATOM     28  C   UNL     1      -4.194  10.314  16.966  0.00  0.00    +0.000 A 
ATOM     29  C   UNL     1      -2.832  10.135  16.756  0.00  0.00    +0.000 A 
ATOM     30  F   UNL     1      -2.428   9.305  15.784  0.00  0.00    +0.000 F 
ATOM     31  C   UNL     1      -1.878  10.778  17.550  0.00  0.00    +0.000 A 
ENDBRANCH  23  25
ENDBRANCH  11  23
TORSDOF 3
ENDMDL
