MODEL 1
REMARK VINA RESULT:      -6.4      0.000      0.000
REMARK  Name = 
REMARK  5 active torsions:
REMARK  status: ('A' for Active; 'I' for Inactive)
REMARK    1  A    between atoms: N_6  and  C_7
REMARK    2  A    between atoms: C_7  and  C_8
REMARK    3  A    between atoms: C_8  and  C_9
REMARK    4  A    between atoms: C_9  and  O_10
REMARK    5  A    between atoms: O_10  and  C_11
REMARK                            x       y       z     vdW  Elec       q    Type
REMARK                         _______ _______ _______ _____ _____    ______ ____
ROOT
ATOM      1  C   UNL     1       7.550   4.718  18.077  0.00  0.00    +0.000 C 
ENDROOT
BRANCH   1   7
ATOM      2 BR   UNL     1       5.024   3.324  11.765  0.00  0.00    +0.000 Br
ATOM      3  C   UNL     1       5.869   3.867  13.359  0.00  0.00    +0.000 A 
ATOM      4  C   UNL     1       5.482   3.339  14.576  0.00  0.00    +0.000 A 
ATOM      5  C   UNL     1       6.130   3.776  15.730  0.00  0.00    +0.000 A 
ATOM      6  C   UNL     1       7.157   4.726  15.646  0.00  0.00    +0.000 A 
ATOM      7  N   UNL     1       7.819   5.208  16.750  0.00  0.00    +0.000 N 
ATOM      8  N   UNL     1       7.534   5.235  14.462  0.00  0.00    +0.000 NA
ATOM      9  C   UNL     1       6.886   4.806  13.349  0.00  0.00    +0.000 A 
ATOM     10  H   UNL     1       8.594   5.825  16.546  0.00  0.00    +0.000 HD
ENDBRANCH   1   7
BRANCH   1  11
ATOM     11  C   UNL     1       7.020   5.791  19.009  0.00  0.00    +0.000 C 
BRANCH  11  12
ATOM     12  C   UNL     1       5.562   5.481  19.352  0.00  0.00    +0.000 C 
BRANCH  12  13
ATOM     13  O   UNL     1       5.333   4.070  19.271  0.00  0.00    +0.000 OA
BRANCH  13  14
ATOM     14  C   UNL     1       3.967   3.712  19.033  0.00  0.00    +0.000 C 
ATOM     15  C   UNL     1       3.826   2.473  18.144  0.00  0.00    +0.000 C 
ATOM     16  C   UNL     1       2.364   2.233  17.798  0.00  0.00    +0.000 C 
ATOM     17  O   UNL     1       1.799   3.382  17.171  0.00  0.00    +0.000 OA
ATOM     18  C   UNL     1       1.831   4.531  18.016  0.00  0.00    +0.000 C 
ATOM     19  C   UNL     1       3.264   4.902  18.372  0.00  0.00    +0.000 C 
ENDBRANCH  13  14
ENDBRANCH  12  13
ENDBRANCH  11  12
ENDBRANCH   1  11
TORSDOF 5
ENDMDL
MODEL 2
REMARK VINA RESULT:      -6.4      0.932      1.008
REMARK  Name = 
REMARK  5 active torsions:
REMARK  status: ('A' for Active; 'I' for Inactive)
REMARK    1  A    between atoms: N_6  and  C_7
REMARK    2  A    between atoms: C_7  and  C_8
REMARK    3  A    between atoms: C_8  and  C_9
REMARK    4  A    between atoms: C_9  and  O_10
REMARK    5  A    between atoms: O_10  and  C_11
REMARK                            x       y       z     vdW  Elec       q    Type
REMARK                         _______ _______ _______ _____ _____    ______ ____
ROOT
ATOM      1  C   UNL     1       6.425   6.542  17.435  0.00  0.00    +0.000 C 
ENDROOT
BRANCH   1   7
ATOM      2 BR   UNL     1       5.568   2.687  11.728  0.00  0.00    +0.000 Br
ATOM      3  C   UNL     1       6.028   3.801  13.176  0.00  0.00    +0.000 A 
ATOM      4  C   UNL     1       5.166   3.960  14.245  0.00  0.00    +0.000 A 
ATOM      5  C   UNL     1       5.546   4.800  15.291  0.00  0.00    +0.000 A 
ATOM      6  C   UNL     1       6.781   5.460  15.253  0.00  0.00    +0.000 A 
ATOM      7  N   UNL     1       7.201   6.314  16.244  0.00  0.00    +0.000 N 
ATOM      8  N   UNL     1       7.619   5.301  14.214  0.00  0.00    +0.000 NA
ATOM      9  C   UNL     1       7.229   4.488  13.200  0.00  0.00    +0.000 A 
ATOM     10  H   UNL     1       8.145   6.660  16.137  0.00  0.00    +0.000 HD
ENDBRANCH   1   7
BRANCH   1  11
ATOM     11  C   UNL     1       7.094   6.011  18.689  0.00  0.00    +0.000 C 
BRANCH  11  12
ATOM     12  C   UNL     1       6.134   5.061  19.405  0.00  0.00    +0.000 C 
BRANCH  12  13
ATOM     13  O   UNL     1       4.810   5.604  19.389  0.00  0.00    +0.000 OA
BRANCH  13  14
ATOM     14  C   UNL     1       3.794   4.659  19.032  0.00  0.00    +0.000 C 
ATOM     15  C   UNL     1       4.360   3.408  18.356  0.00  0.00    +0.000 C 
ATOM     16  C   UNL     1       3.232   2.516  17.861  0.00  0.00    +0.000 C 
ATOM     17  O   UNL     1       2.373   3.233  16.978  0.00  0.00    +0.000 OA
ATOM     18  C   UNL     1       1.756   4.353  17.612  0.00  0.00    +0.000 C 
ATOM     19  C   UNL     1       2.803   5.349  18.090  0.00  0.00    +0.000 C 
ENDBRANCH  13  14
ENDBRANCH  12  13
ENDBRANCH  11  12
ENDBRANCH   1  11
TORSDOF 5
ENDMDL
MODEL 3
REMARK VINA RESULT:      -6.4      1.241      1.642
REMARK  Name = 
REMARK  5 active torsions:
REMARK  status: ('A' for Active; 'I' for Inactive)
REMARK    1  A    between atoms: N_6  and  C_7
REMARK    2  A    between atoms: C_7  and  C_8
REMARK    3  A    between atoms: C_8  and  C_9
REMARK    4  A    between atoms: C_9  and  O_10
REMARK    5  A    between atoms: O_10  and  C_11
REMARK                            x       y       z     vdW  Elec       q    Type
REMARK                         _______ _______ _______ _____ _____    ______ ____
ROOT
ATOM      1  C   UNL     1       6.546   6.584  17.699  0.00  0.00    +0.000 C 
ENDROOT
BRANCH   1   7
ATOM      2 BR   UNL     1       5.609   2.887  11.900  0.00  0.00    +0.000 Br
ATOM      3  C   UNL     1       6.091   3.957  13.375  0.00  0.00    +0.000 A 
ATOM      4  C   UNL     1       5.234   4.105  14.448  0.00  0.00    +0.000 A 
ATOM      5  C   UNL     1       5.631   4.912  15.513  0.00  0.00    +0.000 A 
ATOM      6  C   UNL     1       6.879   5.549  15.490  0.00  0.00    +0.000 A 
ATOM      7  N   UNL     1       7.315   6.370  16.501  0.00  0.00    +0.000 N 
ATOM      8  N   UNL     1       7.712   5.400  14.447  0.00  0.00    +0.000 NA
ATOM      9  C   UNL     1       7.306   4.620  13.414  0.00  0.00    +0.000 A 
ATOM     10  H   UNL     1       8.266   6.701  16.401  0.00  0.00    +0.000 HD
ENDBRANCH   1   7
BRANCH   1  11
ATOM     11  C   UNL     1       6.927   5.642  18.825  0.00  0.00    +0.000 C 
BRANCH  11  12
ATOM     12  C   UNL     1       5.677   4.904  19.306  0.00  0.00    +0.000 C 
BRANCH  12  13
ATOM     13  O   UNL     1       4.504   5.581  18.843  0.00  0.00    +0.000 OA
BRANCH  13  14
ATOM     14  C   UNL     1       3.346   4.744  18.743  0.00  0.00    +0.000 C 
ATOM     15  C   UNL     1       2.509   4.734  20.025  0.00  0.00    +0.000 C 
ATOM     16  C   UNL     1       1.386   3.715  19.918  0.00  0.00    +0.000 C 
ATOM     17  O   UNL     1       1.907   2.418  19.635  0.00  0.00    +0.000 OA
ATOM     18  C   UNL     1       2.612   2.377  18.395  0.00  0.00    +0.000 C 
ATOM     19  C   UNL     1       3.807   3.319  18.419  0.00  0.00    +0.000 C 
ENDBRANCH  13  14
ENDBRANCH  12  13
ENDBRANCH  11  12
ENDBRANCH   1  11
TORSDOF 5
ENDMDL
MODEL 4
REMARK VINA RESULT:      -6.3      1.156      1.378
REMARK  Name = 
REMARK  5 active torsions:
REMARK  status: ('A' for Active; 'I' for Inactive)
REMARK    1  A    between atoms: N_6  and  C_7
REMARK    2  A    between atoms: C_7  and  C_8
REMARK    3  A    between atoms: C_8  and  C_9
REMARK    4  A    between atoms: C_9  and  O_10
REMARK    5  A    between atoms: O_10  and  C_11
REMARK                            x       y       z     vdW  Elec       q    Type
REMARK                         _______ _______ _______ _____ _____    ______ ____
ROOT
ATOM      1  C   UNL     1       6.710   6.374  17.974  0.00  0.00    +0.000 C 
ENDROOT
BRANCH   1   7
ATOM      2 BR   UNL     1       5.360   3.141  11.982  0.00  0.00    +0.000 Br
ATOM      3  C   UNL     1       5.963   4.058  13.514  0.00  0.00    +0.000 A 
ATOM      4  C   UNL     1       5.119   4.267  14.588  0.00  0.00    +0.000 A 
ATOM      5  C   UNL     1       5.607   4.956  15.697  0.00  0.00    +0.000 A 
ATOM      6  C   UNL     1       6.930   5.418  15.715  0.00  0.00    +0.000 A 
ATOM      7  N   UNL     1       7.460   6.119  16.772  0.00  0.00    +0.000 N 
ATOM      8  N   UNL     1       7.749   5.211  14.672  0.00  0.00    +0.000 NA
ATOM      9  C   UNL     1       7.255   4.546  13.596  0.00  0.00    +0.000 A 
ATOM     10  H   UNL     1       8.448   6.322  16.696  0.00  0.00    +0.000 HD
ENDBRANCH   1   7
BRANCH   1  11
ATOM     11  C   UNL     1       6.751   5.218  18.955  0.00  0.00    +0.000 C 
BRANCH  11  12
ATOM     12  C   UNL     1       5.321   4.792  19.289  0.00  0.00    +0.000 C 
BRANCH  12  13
ATOM     13  O   UNL     1       5.307   3.428  19.722  0.00  0.00    +0.000 OA
BRANCH  13  14
ATOM     14  C   UNL     1       4.086   2.736  19.440  0.00  0.00    +0.000 C 
ATOM     15  C   UNL     1       3.456   3.165  18.112  0.00  0.00    +0.000 C 
ATOM     16  C   UNL     1       2.090   2.516  17.939  0.00  0.00    +0.000 C 
ATOM     17  O   UNL     1       1.239   2.834  19.037  0.00  0.00    +0.000 OA
ATOM     18  C   UNL     1       1.758   2.361  20.280  0.00  0.00    +0.000 C 
ATOM     19  C   UNL     1       3.103   3.004  20.585  0.00  0.00    +0.000 C 
ENDBRANCH  13  14
ENDBRANCH  12  13
ENDBRANCH  11  12
ENDBRANCH   1  11
TORSDOF 5
ENDMDL
MODEL 5
REMARK VINA RESULT:      -6.1      2.570      3.893
REMARK  Name = 
REMARK  5 active torsions:
REMARK  status: ('A' for Active; 'I' for Inactive)
REMARK    1  A    between atoms: N_6  and  C_7
REMARK    2  A    between atoms: C_7  and  C_8
REMARK    3  A    between atoms: C_8  and  C_9
REMARK    4  A    between atoms: C_9  and  O_10
REMARK    5  A    between atoms: O_10  and  C_11
REMARK                            x       y       z     vdW  Elec       q    Type
REMARK                         _______ _______ _______ _____ _____    ______ ____
ROOT
ATOM      1  C   UNL     1       2.461   6.773  19.737  0.00  0.00    +0.000 C 
ENDROOT
BRANCH   1   7
ATOM      2 BR   UNL     1       7.139   4.772  15.017  0.00  0.00    +0.000 Br
ATOM      3  C   UNL     1       6.021   5.200  16.472  0.00  0.00    +0.000 A 
ATOM      4  C   UNL     1       4.856   5.916  16.278  0.00  0.00    +0.000 A 
ATOM      5  C   UNL     1       4.064   6.217  17.385  0.00  0.00    +0.000 A 
ATOM      6  C   UNL     1       4.447   5.790  18.664  0.00  0.00    +0.000 A 
ATOM      7  N   UNL     1       3.717   6.071  19.794  0.00  0.00    +0.000 N 
ATOM      8  N   UNL     1       5.579   5.090  18.849  0.00  0.00    +0.000 NA
ATOM      9  C   UNL     1       6.343   4.815  17.762  0.00  0.00    +0.000 A 
ATOM     10  H   UNL     1       4.058   5.635  20.640  0.00  0.00    +0.000 HD
ENDBRANCH   1   7
BRANCH   1  11
ATOM     11  C   UNL     1       1.451   6.261  20.746  0.00  0.00    +0.000 C 
BRANCH  11  12
ATOM     12  C   UNL     1       1.677   4.765  20.968  0.00  0.00    +0.000 C 
BRANCH  12  13
ATOM     13  O   UNL     1       0.828   4.010  20.098  0.00  0.00    +0.000 OA
BRANCH  13  14
ATOM     14  C   UNL     1       1.521   3.051  19.291  0.00  0.00    +0.000 C 
ATOM     15  C   UNL     1       2.869   2.638  19.888  0.00  0.00    +0.000 C 
ATOM     16  C   UNL     1       3.627   1.743  18.919  0.00  0.00    +0.000 C 
ATOM     17  O   UNL     1       3.800   2.394  17.662  0.00  0.00    +0.000 OA
ATOM     18  C   UNL     1       2.555   2.706  17.038  0.00  0.00    +0.000 C 
ATOM     19  C   UNL     1       1.739   3.658  17.901  0.00  0.00    +0.000 C 
ENDBRANCH  13  14
ENDBRANCH  12  13
ENDBRANCH  11  12
ENDBRANCH   1  11
TORSDOF 5
ENDMDL
MODEL 6
REMARK VINA RESULT:      -5.9      4.511      6.002
REMARK  Name = 
REMARK  5 active torsions:
REMARK  status: ('A' for Active; 'I' for Inactive)
REMARK    1  A    between atoms: N_6  and  C_7
REMARK    2  A    between atoms: C_7  and  C_8
REMARK    3  A    between atoms: C_8  and  C_9
REMARK    4  A    between atoms: C_9  and  O_10
REMARK    5  A    between atoms: O_10  and  C_11
REMARK                            x       y       z     vdW  Elec       q    Type
REMARK                         _______ _______ _______ _____ _____    ______ ____
ROOT
ATOM      1  C   UNL     1       4.035   6.284  17.277  0.00  0.00    +0.000 C 
ENDROOT
BRANCH   1   7
ATOM      2 BR   UNL     1      -0.350  11.012  19.844  0.00  0.00    +0.000 Br
ATOM      3  C   UNL     1       0.833   9.621  19.381  0.00  0.00    +0.000 A 
ATOM      4  C   UNL     1       1.355   9.534  18.105  0.00  0.00    +0.000 A 
ATOM      5  C   UNL     1       2.220   8.484  17.806  0.00  0.00    +0.000 A 
ATOM      6  C   UNL     1       2.554   7.543  18.789  0.00  0.00    +0.000 A 
ATOM      7  N   UNL     1       3.387   6.476  18.548  0.00  0.00    +0.000 N 
ATOM      8  N   UNL     1       2.049   7.631  20.031  0.00  0.00    +0.000 NA
ATOM      9  C   UNL     1       1.200   8.654  20.302  0.00  0.00    +0.000 A 
ATOM     10  H   UNL     1       3.613   5.920  19.362  0.00  0.00    +0.000 HD
ENDBRANCH   1   7
BRANCH   1  11
ATOM     11  C   UNL     1       5.162   5.272  17.333  0.00  0.00    +0.000 C 
BRANCH  11  12
ATOM     12  C   UNL     1       4.571   3.873  17.512  0.00  0.00    +0.000 C 
BRANCH  12  13
ATOM     13  O   UNL     1       4.505   3.547  18.904  0.00  0.00    +0.000 OA
BRANCH  13  14
ATOM     14  C   UNL     1       3.297   2.884  19.293  0.00  0.00    +0.000 C 
ATOM     15  C   UNL     1       2.212   2.948  18.215  0.00  0.00    +0.000 C 
ATOM     16  C   UNL     1       0.907   2.368  18.739  0.00  0.00    +0.000 C 
ATOM     17  O   UNL     1       0.495   3.046  19.924  0.00  0.00    +0.000 OA
ATOM     18  C   UNL     1       1.447   2.921  20.979  0.00  0.00    +0.000 C 
ATOM     19  C   UNL     1       2.781   3.536  20.580  0.00  0.00    +0.000 C 
ENDBRANCH  13  14
ENDBRANCH  12  13
ENDBRANCH  11  12
ENDBRANCH   1  11
TORSDOF 5
ENDMDL
MODEL 7
REMARK VINA RESULT:      -5.9      0.796      1.305
REMARK  Name = 
REMARK  5 active torsions:
REMARK  status: ('A' for Active; 'I' for Inactive)
REMARK    1  A    between atoms: N_6  and  C_7
REMARK    2  A    between atoms: C_7  and  C_8
REMARK    3  A    between atoms: C_8  and  C_9
REMARK    4  A    between atoms: C_9  and  O_10
REMARK    5  A    between atoms: O_10  and  C_11
REMARK                            x       y       z     vdW  Elec       q    Type
REMARK                         _______ _______ _______ _____ _____    ______ ____
ROOT
ATOM      1  C   UNL     1       7.384   4.714  18.293  0.00  0.00    +0.000 C 
ENDROOT
BRANCH   1   7
ATOM      2 BR   UNL     1       5.226   3.358  11.837  0.00  0.00    +0.000 Br
ATOM      3  C   UNL     1       5.974   3.895  13.481  0.00  0.00    +0.000 A 
ATOM      4  C   UNL     1       5.532   3.346  14.669  0.00  0.00    +0.000 A 
ATOM      5  C   UNL     1       6.109   3.779  15.862  0.00  0.00    +0.000 A 
ATOM      6  C   UNL     1       7.122   4.747  15.845  0.00  0.00    +0.000 A 
ATOM      7  N   UNL     1       7.715   5.225  16.988  0.00  0.00    +0.000 N 
ATOM      8  N   UNL     1       7.553   5.277  14.688  0.00  0.00    +0.000 NA
ATOM      9  C   UNL     1       6.973   4.851  13.538  0.00  0.00    +0.000 A 
ATOM     10  H   UNL     1       8.488   5.859  16.834  0.00  0.00    +0.000 HD
ENDBRANCH   1   7
BRANCH   1  11
ATOM     11  C   UNL     1       6.684   5.735  19.169  0.00  0.00    +0.000 C 
BRANCH  11  12
ATOM     12  C   UNL     1       5.182   5.693  18.887  0.00  0.00    +0.000 C 
BRANCH  12  13
ATOM     13  O   UNL     1       4.577   4.630  19.630  0.00  0.00    +0.000 OA
BRANCH  13  14
ATOM     14  C   UNL     1       3.587   3.895  18.901  0.00  0.00    +0.000 C 
ATOM     15  C   UNL     1       2.441   4.780  18.402  0.00  0.00    +0.000 C 
ATOM     16  C   UNL     1       1.348   3.929  17.774  0.00  0.00    +0.000 C 
ATOM     17  O   UNL     1       0.877   2.951  18.699  0.00  0.00    +0.000 OA
ATOM     18  C   UNL     1       1.907   2.052  19.108  0.00  0.00    +0.000 C 
ATOM     19  C   UNL     1       3.029   2.798  19.814  0.00  0.00    +0.000 C 
ENDBRANCH  13  14
ENDBRANCH  12  13
ENDBRANCH  11  12
ENDBRANCH   1  11
TORSDOF 5
ENDMDL
MODEL 8
REMARK VINA RESULT:      -5.9      1.885      2.546
REMARK  Name = 
REMARK  5 active torsions:
REMARK  status: ('A' for Active; 'I' for Inactive)
REMARK    1  A    between atoms: N_6  and  C_7
REMARK    2  A    between atoms: C_7  and  C_8
REMARK    3  A    between atoms: C_8  and  C_9
REMARK    4  A    between atoms: C_9  and  O_10
REMARK    5  A    between atoms: O_10  and  C_11
REMARK                            x       y       z     vdW  Elec       q    Type
REMARK                         _______ _______ _______ _____ _____    ______ ____
ROOT
ATOM      1  C   UNL     1       5.505   5.840  18.207  0.00  0.00    +0.000 C 
ENDROOT
BRANCH   1   7
ATOM      2 BR   UNL     1       6.429   3.169  11.869  0.00  0.00    +0.000 Br
ATOM      3  C   UNL     1       6.390   4.034  13.542  0.00  0.00    +0.000 A 
ATOM      4  C   UNL     1       5.391   3.756  14.456  0.00  0.00    +0.000 A 
ATOM      5  C   UNL     1       5.398   4.425  15.678  0.00  0.00    +0.000 A 
ATOM      6  C   UNL     1       6.406   5.355  15.969  0.00  0.00    +0.000 A 
ATOM      7  N   UNL     1       6.455   6.058  17.148  0.00  0.00    +0.000 N 
ATOM      8  N   UNL     1       7.378   5.620  15.080  0.00  0.00    +0.000 NA
ATOM      9  C   UNL     1       7.351   4.967  13.891  0.00  0.00    +0.000 A 
ATOM     10  H   UNL     1       7.278   6.634  17.267  0.00  0.00    +0.000 HD
ENDBRANCH   1   7
BRANCH   1  11
ATOM     11  C   UNL     1       4.173   6.522  17.958  0.00  0.00    +0.000 C 
BRANCH  11  12
ATOM     12  C   UNL     1       3.164   6.050  19.007  0.00  0.00    +0.000 C 
BRANCH  12  13
ATOM     13  O   UNL     1       2.367   4.989  18.472  0.00  0.00    +0.000 OA
BRANCH  13  14
ATOM     14  C   UNL     1       2.253   3.851  19.334  0.00  0.00    +0.000 C 
ATOM     15  C   UNL     1       1.358   4.115  20.548  0.00  0.00    +0.000 C 
ATOM     16  C   UNL     1       1.398   2.932  21.503  0.00  0.00    +0.000 C 
ATOM     17  O   UNL     1       2.737   2.652  21.904  0.00  0.00    +0.000 OA
ATOM     18  C   UNL     1       3.573   2.309  20.799  0.00  0.00    +0.000 C 
ATOM     19  C   UNL     1       3.657   3.459  19.806  0.00  0.00    +0.000 C 
ENDBRANCH  13  14
ENDBRANCH  12  13
ENDBRANCH  11  12
ENDBRANCH   1  11
TORSDOF 5
ENDMDL
MODEL 9
REMARK VINA RESULT:      -5.9      1.458      1.651
REMARK  Name = 
REMARK  5 active torsions:
REMARK  status: ('A' for Active; 'I' for Inactive)
REMARK    1  A    between atoms: N_6  and  C_7
REMARK    2  A    between atoms: C_7  and  C_8
REMARK    3  A    between atoms: C_8  and  C_9
REMARK    4  A    between atoms: C_9  and  O_10
REMARK    5  A    between atoms: O_10  and  C_11
REMARK                            x       y       z     vdW  Elec       q    Type
REMARK                         _______ _______ _______ _____ _____    ______ ____
ROOT
ATOM      1  C   UNL     1       5.873   6.415  17.797  0.00  0.00    +0.000 C 
ENDROOT
BRANCH   1   7
ATOM      2 BR   UNL     1       6.086   2.793  11.881  0.00  0.00    +0.000 Br
ATOM      3  C   UNL     1       6.251   3.880  13.411  0.00  0.00    +0.000 A 
ATOM      4  C   UNL     1       5.284   3.860  14.397  0.00  0.00    +0.000 A 
ATOM      5  C   UNL     1       5.445   4.687  15.508  0.00  0.00    +0.000 A 
ATOM      6  C   UNL     1       6.573   5.512  15.616  0.00  0.00    +0.000 A 
ATOM      7  N   UNL     1       6.777   6.361  16.677  0.00  0.00    +0.000 N 
ATOM      8  N   UNL     1       7.514   5.526  14.658  0.00  0.00    +0.000 NA
ATOM      9  C   UNL     1       7.336   4.723  13.578  0.00  0.00    +0.000 A 
ATOM     10  H   UNL     1       7.668   6.838  16.676  0.00  0.00    +0.000 HD
ENDBRANCH   1   7
BRANCH   1  11
ATOM     11  C   UNL     1       4.485   6.893  17.416  0.00  0.00    +0.000 C 
BRANCH  11  12
ATOM     12  C   UNL     1       3.480   6.388  18.453  0.00  0.00    +0.000 C 
BRANCH  12  13
ATOM     13  O   UNL     1       4.076   5.358  19.247  0.00  0.00    +0.000 OA
BRANCH  13  14
ATOM     14  C   UNL     1       3.254   4.196  19.410  0.00  0.00    +0.000 C 
ATOM     15  C   UNL     1       3.080   3.407  18.110  0.00  0.00    +0.000 C 
ATOM     16  C   UNL     1       2.078   2.278  18.305  0.00  0.00    +0.000 C 
ATOM     17  O   UNL     1       0.830   2.787  18.768  0.00  0.00    +0.000 OA
ATOM     18  C   UNL     1       0.948   3.447  20.028  0.00  0.00    +0.000 C 
ATOM     19  C   UNL     1       1.883   4.643  19.928  0.00  0.00    +0.000 C 
ENDBRANCH  13  14
ENDBRANCH  12  13
ENDBRANCH  11  12
ENDBRANCH   1  11
TORSDOF 5
ENDMDL
