MODEL 1
REMARK VINA RESULT:      -9.1      0.000      0.000
REMARK  Name = 
REMARK  6 active torsions:
REMARK  status: ('A' for Active; 'I' for Inactive)
REMARK    1  A    between atoms: C_1  and  N_2
REMARK    2  A    between atoms: C_4  and  C_5
REMARK    3  A    between atoms: C_9  and  O_10
REMARK    4  A    between atoms: C_13  and  C_14
REMARK    5  A    between atoms: C_17  and  C_18
REMARK    6  A    between atoms: C_22  and  O_23
REMARK                            x       y       z     vdW  Elec       q    Type
REMARK                         _______ _______ _______ _____ _____    ______ ____
ROOT
ATOM      1  C   UNL     1       4.405   3.456  19.006  0.00  0.00    +0.000 C 
ATOM      2  N   UNL     1       4.668   4.245  17.831  0.00  0.00    +0.000 N 
ATOM      3  N   UNL     1       5.417   3.708  16.854  0.00  0.00    +0.000 NA
ATOM      4  C   UNL     1       5.373   4.652  15.906  0.00  0.00    +0.000 A 
ATOM      5  N   UNL     1       4.620   5.747  16.257  0.00  0.00    +0.000 NA
ATOM      6  C   UNL     1       4.205   5.494  17.485  0.00  0.00    +0.000 A 
ENDROOT
BRANCH   4   7
ATOM      7  C   UNL     1       6.057   4.538  14.624  0.00  0.00    +0.000 A 
ATOM      8  C   UNL     1       5.576   3.670  13.633  0.00  0.00    +0.000 A 
ATOM      9  C   UNL     1       6.222   3.572  12.397  0.00  0.00    +0.000 A 
ATOM     10  C   UNL     1       7.358   4.340  12.141  0.00  0.00    +0.000 A 
ATOM     11  C   UNL     1       7.838   5.199  13.125  0.00  0.00    +0.000 A 
ATOM     12  C   UNL     1       7.199   5.305  14.355  0.00  0.00    +0.000 A 
BRANCH  11  13
ATOM     13  O   UNL     1       8.945   5.969  12.919  0.00  0.00    +0.000 OA
ATOM     14  H   UNL     1       8.733   6.887  13.151  0.00  0.00    +0.000 HD
ENDBRANCH  11  13
ENDBRANCH   4   7
BRANCH   6  15
ATOM     15  C   UNL     1       3.364   6.384  18.292  0.00  0.00    +0.000 A 
ATOM     16  C   UNL     1       3.004   7.640  17.788  0.00  0.00    +0.000 A 
ATOM     17  C   UNL     1       2.206   8.520  18.536  0.00  0.00    +0.000 A 
ATOM     18  C   UNL     1       1.728   8.172  19.810  0.00  0.00    +0.000 A 
ATOM     19  C   UNL     1       2.107   6.916  20.306  0.00  0.00    +0.000 A 
ATOM     20  C   UNL     1       2.930   6.053  19.576  0.00  0.00    +0.000 A 
BRANCH  18  21
ATOM     21  C   UNL     1       0.882   9.084  20.614  0.00  0.00    +0.000 A 
ATOM     22  C   UNL     1       0.151  10.132  20.026  0.00  0.00    +0.000 A 
ATOM     23  C   UNL     1      -0.650  10.986  20.794  0.00  0.00    +0.000 A 
ATOM     24  C   UNL     1      -0.751  10.802  22.171  0.00  0.00    +0.000 A 
ATOM     25  C   UNL     1      -0.041   9.769  22.766  0.00  0.00    +0.000 A 
ATOM     26  C   UNL     1       0.768   8.927  22.009  0.00  0.00    +0.000 A 
BRANCH  25  27
ATOM     27  O   UNL     1      -0.107   9.538  24.109  0.00  0.00    +0.000 OA
ATOM     28  H   UNL     1       0.157  10.348  24.576  0.00  0.00    +0.000 HD
ENDBRANCH  25  27
ENDBRANCH  18  21
ENDBRANCH   6  15
TORSDOF 5
ENDMDL
MODEL 2
REMARK VINA RESULT:      -9.0      4.092      6.080
REMARK  Name = 
REMARK  6 active torsions:
REMARK  status: ('A' for Active; 'I' for Inactive)
REMARK    1  A    between atoms: C_1  and  N_2
REMARK    2  A    between atoms: C_4  and  C_5
REMARK    3  A    between atoms: C_9  and  O_10
REMARK    4  A    between atoms: C_13  and  C_14
REMARK    5  A    between atoms: C_17  and  C_18
REMARK    6  A    between atoms: C_22  and  O_23
REMARK                            x       y       z     vdW  Elec       q    Type
REMARK                         _______ _______ _______ _____ _____    ______ ____
ROOT
ATOM      1  C   UNL     1       1.826   9.677  18.165  0.00  0.00    +0.000 C 
ATOM      2  N   UNL     1       1.793   8.556  19.068  0.00  0.00    +0.000 N 
ATOM      3  N   UNL     1       2.448   7.436  18.723  0.00  0.00    +0.000 NA
ATOM      4  C   UNL     1       2.292   6.666  19.807  0.00  0.00    +0.000 A 
ATOM      5  N   UNL     1       1.572   7.270  20.810  0.00  0.00    +0.000 NA
ATOM      6  C   UNL     1       1.235   8.451  20.322  0.00  0.00    +0.000 A 
ENDROOT
BRANCH   4   7
ATOM      7  C   UNL     1       2.827   5.315  19.919  0.00  0.00    +0.000 A 
ATOM      8  C   UNL     1       2.141   4.335  20.651  0.00  0.00    +0.000 A 
ATOM      9  C   UNL     1       2.645   3.034  20.746  0.00  0.00    +0.000 A 
ATOM     10  C   UNL     1       3.843   2.702  20.113  0.00  0.00    +0.000 A 
ATOM     11  C   UNL     1       4.527   3.675  19.391  0.00  0.00    +0.000 A 
ATOM     12  C   UNL     1       4.030   4.970  19.287  0.00  0.00    +0.000 A 
BRANCH  11  13
ATOM     13  O   UNL     1       5.701   3.396  18.756  0.00  0.00    +0.000 OA
ATOM     14  H   UNL     1       5.502   2.995  17.895  0.00  0.00    +0.000 HD
ENDBRANCH  11  13
ENDBRANCH   4   7
BRANCH   6  15
ATOM     15  C   UNL     1       0.447   9.464  21.032  0.00  0.00    +0.000 A 
ATOM     16  C   UNL     1       0.197   9.311  22.401  0.00  0.00    +0.000 A 
ATOM     17  C   UNL     1      -0.558  10.258  23.111  0.00  0.00    +0.000 A 
ATOM     18  C   UNL     1      -1.082  11.398  22.480  0.00  0.00    +0.000 A 
ATOM     19  C   UNL     1      -0.834  11.531  21.106  0.00  0.00    +0.000 A 
ATOM     20  C   UNL     1      -0.110  10.571  20.392  0.00  0.00    +0.000 A 
BRANCH  18  21
ATOM     21  C   UNL     1      -1.879  12.411  23.210  0.00  0.00    +0.000 A 
ATOM     22  C   UNL     1      -1.386  13.706  23.458  0.00  0.00    +0.000 A 
ATOM     23  C   UNL     1      -2.149  14.658  24.145  0.00  0.00    +0.000 A 
ATOM     24  C   UNL     1      -3.431  14.343  24.589  0.00  0.00    +0.000 A 
ATOM     25  C   UNL     1      -3.934  13.073  24.347  0.00  0.00    +0.000 A 
ATOM     26  C   UNL     1      -3.174  12.118  23.677  0.00  0.00    +0.000 A 
BRANCH  25  27
ATOM     27  O   UNL     1      -5.184  12.710  24.752  0.00  0.00    +0.000 OA
ATOM     28  H   UNL     1      -5.299  12.976  25.679  0.00  0.00    +0.000 HD
ENDBRANCH  25  27
ENDBRANCH  18  21
ENDBRANCH   6  15
TORSDOF 5
ENDMDL
MODEL 3
REMARK VINA RESULT:      -8.9      0.908      1.607
REMARK  Name = 
REMARK  6 active torsions:
REMARK  status: ('A' for Active; 'I' for Inactive)
REMARK    1  A    between atoms: C_1  and  N_2
REMARK    2  A    between atoms: C_4  and  C_5
REMARK    3  A    between atoms: C_9  and  O_10
REMARK    4  A    between atoms: C_13  and  C_14
REMARK    5  A    between atoms: C_17  and  C_18
REMARK    6  A    between atoms: C_22  and  O_23
REMARK                            x       y       z     vdW  Elec       q    Type
REMARK                         _______ _______ _______ _____ _____    ______ ____
ROOT
ATOM      1  C   UNL     1       4.060   3.272  18.842  0.00  0.00    +0.000 C 
ATOM      2  N   UNL     1       4.440   4.113  17.737  0.00  0.00    +0.000 N 
ATOM      3  N   UNL     1       5.191   3.583  16.758  0.00  0.00    +0.000 NA
ATOM      4  C   UNL     1       5.265   4.587  15.876  0.00  0.00    +0.000 A 
ATOM      5  N   UNL     1       4.585   5.715  16.270  0.00  0.00    +0.000 NA
ATOM      6  C   UNL     1       4.093   5.415  17.459  0.00  0.00    +0.000 A 
ENDROOT
BRANCH   4   7
ATOM      7  C   UNL     1       5.999   4.503  14.619  0.00  0.00    +0.000 A 
ATOM      8  C   UNL     1       5.565   3.648  13.596  0.00  0.00    +0.000 A 
ATOM      9  C   UNL     1       6.259   3.579  12.384  0.00  0.00    +0.000 A 
ATOM     10  C   UNL     1       7.396   4.361  12.185  0.00  0.00    +0.000 A 
ATOM     11  C   UNL     1       7.830   5.206  13.202  0.00  0.00    +0.000 A 
ATOM     12  C   UNL     1       7.143   5.285  14.408  0.00  0.00    +0.000 A 
BRANCH  11  13
ATOM     13  O   UNL     1       8.936   5.990  13.052  0.00  0.00    +0.000 OA
ATOM     14  H   UNL     1       9.426   5.691  12.269  0.00  0.00    +0.000 HD
ENDBRANCH  11  13
ENDBRANCH   4   7
BRANCH   6  15
ATOM     15  C   UNL     1       3.287   6.317  18.289  0.00  0.00    +0.000 A 
ATOM     16  C   UNL     1       2.828   5.882  19.539  0.00  0.00    +0.000 A 
ATOM     17  C   UNL     1       2.050   6.717  20.356  0.00  0.00    +0.000 A 
ATOM     18  C   UNL     1       1.710   8.020  19.959  0.00  0.00    +0.000 A 
ATOM     19  C   UNL     1       2.166   8.438  18.699  0.00  0.00    +0.000 A 
ATOM     20  C   UNL     1       2.913   7.594  17.871  0.00  0.00    +0.000 A 
BRANCH  18  21
ATOM     21  C   UNL     1       0.893   8.919  20.806  0.00  0.00    +0.000 A 
ATOM     22  C   UNL     1       0.877   8.806  22.209  0.00  0.00    +0.000 A 
ATOM     23  C   UNL     1       0.104   9.663  23.002  0.00  0.00    +0.000 A 
ATOM     24  C   UNL     1      -0.662  10.665  22.411  0.00  0.00    +0.000 A 
ATOM     25  C   UNL     1      -0.653  10.793  21.030  0.00  0.00    +0.000 A 
ATOM     26  C   UNL     1       0.101   9.934  20.236  0.00  0.00    +0.000 A 
BRANCH  25  27
ATOM     27  O   UNL     1      -1.379  11.759  20.397  0.00  0.00    +0.000 OA
ATOM     28  H   UNL     1      -2.320  11.620  20.595  0.00  0.00    +0.000 HD
ENDBRANCH  25  27
ENDBRANCH  18  21
ENDBRANCH   6  15
TORSDOF 5
ENDMDL
MODEL 4
REMARK VINA RESULT:      -8.8      1.071      1.706
REMARK  Name = 
REMARK  6 active torsions:
REMARK  status: ('A' for Active; 'I' for Inactive)
REMARK    1  A    between atoms: C_1  and  N_2
REMARK    2  A    between atoms: C_4  and  C_5
REMARK    3  A    between atoms: C_9  and  O_10
REMARK    4  A    between atoms: C_13  and  C_14
REMARK    5  A    between atoms: C_17  and  C_18
REMARK    6  A    between atoms: C_22  and  O_23
REMARK                            x       y       z     vdW  Elec       q    Type
REMARK                         _______ _______ _______ _____ _____    ______ ____
ROOT
ATOM      1  C   UNL     1       5.194   3.995  19.137  0.00  0.00    +0.000 C 
ATOM      2  N   UNL     1       5.173   4.591  17.827  0.00  0.00    +0.000 N 
ATOM      3  N   UNL     1       5.889   4.013  16.849  0.00  0.00    +0.000 NA
ATOM      4  C   UNL     1       5.566   4.751  15.780  0.00  0.00    +0.000 A 
ATOM      5  N   UNL     1       4.674   5.759  16.059  0.00  0.00    +0.000 NA
ATOM      6  C   UNL     1       4.456   5.669  17.359  0.00  0.00    +0.000 A 
ENDROOT
BRANCH   4   7
ATOM      7  C   UNL     1       6.107   4.519  14.446  0.00  0.00    +0.000 A 
ATOM      8  C   UNL     1       7.245   5.212  14.008  0.00  0.00    +0.000 A 
ATOM      9  C   UNL     1       7.774   4.978  12.735  0.00  0.00    +0.000 A 
ATOM     10  C   UNL     1       7.168   4.051  11.886  0.00  0.00    +0.000 A 
ATOM     11  C   UNL     1       6.036   3.367  12.320  0.00  0.00    +0.000 A 
ATOM     12  C   UNL     1       5.506   3.590  13.586  0.00  0.00    +0.000 A 
BRANCH  11  13
ATOM     13  O   UNL     1       5.411   2.452  11.525  0.00  0.00    +0.000 OA
ATOM     14  H   UNL     1       5.326   2.822  10.632  0.00  0.00    +0.000 HD
ENDBRANCH  11  13
ENDBRANCH   4   7
BRANCH   6  15
ATOM     15  C   UNL     1       3.567   6.546  18.128  0.00  0.00    +0.000 A 
ATOM     16  C   UNL     1       3.072   6.117  19.366  0.00  0.00    +0.000 A 
ATOM     17  C   UNL     1       2.215   6.929  20.125  0.00  0.00    +0.000 A 
ATOM     18  C   UNL     1       1.829   8.203  19.680  0.00  0.00    +0.000 A 
ATOM     19  C   UNL     1       2.323   8.615  18.433  0.00  0.00    +0.000 A 
ATOM     20  C   UNL     1       3.150   7.793  17.661  0.00  0.00    +0.000 A 
BRANCH  18  21
ATOM     21  C   UNL     1       0.928   9.078  20.466  0.00  0.00    +0.000 A 
ATOM     22  C   UNL     1       0.146  10.077  19.858  0.00  0.00    +0.000 A 
ATOM     23  C   UNL     1      -0.706  10.895  20.609  0.00  0.00    +0.000 A 
ATOM     24  C   UNL     1      -0.807  10.725  21.988  0.00  0.00    +0.000 A 
ATOM     25  C   UNL     1      -0.047   9.741  22.602  0.00  0.00    +0.000 A 
ATOM     26  C   UNL     1       0.813   8.934  21.862  0.00  0.00    +0.000 A 
BRANCH  25  27
ATOM     27  O   UNL     1      -0.110   9.525  23.947  0.00  0.00    +0.000 OA
ATOM     28  H   UNL     1      -0.072  10.382  24.401  0.00  0.00    +0.000 HD
ENDBRANCH  25  27
ENDBRANCH  18  21
ENDBRANCH   6  15
TORSDOF 5
ENDMDL
MODEL 5
REMARK VINA RESULT:      -8.7      4.544      6.489
REMARK  Name = 
REMARK  6 active torsions:
REMARK  status: ('A' for Active; 'I' for Inactive)
REMARK    1  A    between atoms: C_1  and  N_2
REMARK    2  A    between atoms: C_4  and  C_5
REMARK    3  A    between atoms: C_9  and  O_10
REMARK    4  A    between atoms: C_13  and  C_14
REMARK    5  A    between atoms: C_17  and  C_18
REMARK    6  A    between atoms: C_22  and  O_23
REMARK                            x       y       z     vdW  Elec       q    Type
REMARK                         _______ _______ _______ _____ _____    ______ ____
ROOT
ATOM      1  C   UNL     1       1.843   9.656  18.255  0.00  0.00    +0.000 C 
ATOM      2  N   UNL     1       1.763   8.537  19.157  0.00  0.00    +0.000 N 
ATOM      3  N   UNL     1       2.394   7.400  18.825  0.00  0.00    +0.000 NA
ATOM      4  C   UNL     1       2.197   6.635  19.905  0.00  0.00    +0.000 A 
ATOM      5  N   UNL     1       1.473   7.258  20.894  0.00  0.00    +0.000 NA
ATOM      6  C   UNL     1       1.178   8.447  20.400  0.00  0.00    +0.000 A 
ENDROOT
BRANCH   4   7
ATOM      7  C   UNL     1       2.695   5.270  20.027  0.00  0.00    +0.000 A 
ATOM      8  C   UNL     1       3.744   4.818  19.213  0.00  0.00    +0.000 A 
ATOM      9  C   UNL     1       4.232   3.513  19.341  0.00  0.00    +0.000 A 
ATOM     10  C   UNL     1       3.674   2.648  20.282  0.00  0.00    +0.000 A 
ATOM     11  C   UNL     1       2.630   3.095  21.086  0.00  0.00    +0.000 A 
ATOM     12  C   UNL     1       2.141   4.392  20.969  0.00  0.00    +0.000 A 
BRANCH  11  13
ATOM     13  O   UNL     1       2.054   2.284  22.019  0.00  0.00    +0.000 OA
ATOM     14  H   UNL     1       1.761   1.467  21.584  0.00  0.00    +0.000 HD
ENDBRANCH  11  13
ENDBRANCH   4   7
BRANCH   6  15
ATOM     15  C   UNL     1       0.403   9.480  21.095  0.00  0.00    +0.000 A 
ATOM     16  C   UNL     1       0.033   9.286  22.431  0.00  0.00    +0.000 A 
ATOM     17  C   UNL     1      -0.714  10.251  23.124  0.00  0.00    +0.000 A 
ATOM     18  C   UNL     1      -1.109  11.451  22.511  0.00  0.00    +0.000 A 
ATOM     19  C   UNL     1      -0.742  11.626  21.168  0.00  0.00    +0.000 A 
ATOM     20  C   UNL     1      -0.027  10.650  20.467  0.00  0.00    +0.000 A 
BRANCH  18  21
ATOM     21  C   UNL     1      -1.895  12.484  23.224  0.00  0.00    +0.000 A 
ATOM     22  C   UNL     1      -1.381  13.771  23.469  0.00  0.00    +0.000 A 
ATOM     23  C   UNL     1      -2.132  14.743  24.140  0.00  0.00    +0.000 A 
ATOM     24  C   UNL     1      -3.425  14.455  24.572  0.00  0.00    +0.000 A 
ATOM     25  C   UNL     1      -3.949  13.193  24.334  0.00  0.00    +0.000 A 
ATOM     26  C   UNL     1      -3.200  12.219  23.680  0.00  0.00    +0.000 A 
BRANCH  25  27
ATOM     27  O   UNL     1      -5.210  12.857  24.729  0.00  0.00    +0.000 OA
ATOM     28  H   UNL     1      -5.388  13.274  25.587  0.00  0.00    +0.000 HD
ENDBRANCH  25  27
ENDBRANCH  18  21
ENDBRANCH   6  15
TORSDOF 5
ENDMDL
MODEL 6
REMARK VINA RESULT:      -8.6      1.874      9.633
REMARK  Name = 
REMARK  6 active torsions:
REMARK  status: ('A' for Active; 'I' for Inactive)
REMARK    1  A    between atoms: C_1  and  N_2
REMARK    2  A    between atoms: C_4  and  C_5
REMARK    3  A    between atoms: C_9  and  O_10
REMARK    4  A    between atoms: C_13  and  C_14
REMARK    5  A    between atoms: C_17  and  C_18
REMARK    6  A    between atoms: C_22  and  O_23
REMARK                            x       y       z     vdW  Elec       q    Type
REMARK                         _______ _______ _______ _____ _____    ______ ____
ROOT
ATOM      1  C   UNL     1       2.927   4.214  20.324  0.00  0.00    +0.000 C 
ATOM      2  N   UNL     1       2.553   5.561  19.979  0.00  0.00    +0.000 N 
ATOM      3  N   UNL     1       1.825   6.268  20.858  0.00  0.00    +0.000 NA
ATOM      4  C   UNL     1       1.752   7.469  20.271  0.00  0.00    +0.000 A 
ATOM      5  N   UNL     1       2.412   7.532  19.067  0.00  0.00    +0.000 NA
ATOM      6  C   UNL     1       2.888   6.314  18.877  0.00  0.00    +0.000 A 
ENDROOT
BRANCH   4   7
ATOM      7  C   UNL     1       1.039   8.604  20.844  0.00  0.00    +0.000 A 
ATOM      8  C   UNL     1       0.530   9.617  20.018  0.00  0.00    +0.000 A 
ATOM      9  C   UNL     1      -0.167  10.698  20.566  0.00  0.00    +0.000 A 
ATOM     10  C   UNL     1      -0.359  10.779  21.945  0.00  0.00    +0.000 A 
ATOM     11  C   UNL     1       0.150   9.776  22.765  0.00  0.00    +0.000 A 
ATOM     12  C   UNL     1       0.840   8.695  22.229  0.00  0.00    +0.000 A 
BRANCH  11  13
ATOM     13  O   UNL     1      -0.014   9.814  24.118  0.00  0.00    +0.000 OA
ATOM     14  H   UNL     1       0.819  10.098  24.525  0.00  0.00    +0.000 HD
ENDBRANCH  11  13
ENDBRANCH   4   7
BRANCH   6  15
ATOM     15  C   UNL     1       3.670   5.886  17.712  0.00  0.00    +0.000 A 
ATOM     16  C   UNL     1       4.416   6.830  16.995  0.00  0.00    +0.000 A 
ATOM     17  C   UNL     1       5.170   6.455  15.871  0.00  0.00    +0.000 A 
ATOM     18  C   UNL     1       5.215   5.123  15.430  0.00  0.00    +0.000 A 
ATOM     19  C   UNL     1       4.452   4.191  16.151  0.00  0.00    +0.000 A 
ATOM     20  C   UNL     1       3.674   4.570  17.250  0.00  0.00    +0.000 A 
BRANCH  18  21
ATOM     21  C   UNL     1       6.006   4.706  14.250  0.00  0.00    +0.000 A 
ATOM     22  C   UNL     1       7.187   5.372  13.874  0.00  0.00    +0.000 A 
ATOM     23  C   UNL     1       7.931   4.967  12.759  0.00  0.00    +0.000 A 
ATOM     24  C   UNL     1       7.518   3.875  11.999  0.00  0.00    +0.000 A 
ATOM     25  C   UNL     1       6.359   3.204  12.360  0.00  0.00    +0.000 A 
ATOM     26  C   UNL     1       5.609   3.611  13.458  0.00  0.00    +0.000 A 
BRANCH  25  27
ATOM     27  O   UNL     1       5.911   2.124  11.657  0.00  0.00    +0.000 OA
ATOM     28  H   UNL     1       5.842   1.368  12.262  0.00  0.00    +0.000 HD
ENDBRANCH  25  27
ENDBRANCH  18  21
ENDBRANCH   6  15
TORSDOF 5
ENDMDL
MODEL 7
REMARK VINA RESULT:      -8.6      4.148      6.151
REMARK  Name = 
REMARK  6 active torsions:
REMARK  status: ('A' for Active; 'I' for Inactive)
REMARK    1  A    between atoms: C_1  and  N_2
REMARK    2  A    between atoms: C_4  and  C_5
REMARK    3  A    between atoms: C_9  and  O_10
REMARK    4  A    between atoms: C_13  and  C_14
REMARK    5  A    between atoms: C_17  and  C_18
REMARK    6  A    between atoms: C_22  and  O_23
REMARK                            x       y       z     vdW  Elec       q    Type
REMARK                         _______ _______ _______ _____ _____    ______ ____
ROOT
ATOM      1  C   UNL     1       1.831   9.671  18.186  0.00  0.00    +0.000 C 
ATOM      2  N   UNL     1       1.784   8.555  19.094  0.00  0.00    +0.000 N 
ATOM      3  N   UNL     1       2.434   7.429  18.757  0.00  0.00    +0.000 NA
ATOM      4  C   UNL     1       2.265   6.664  19.843  0.00  0.00    +0.000 A 
ATOM      5  N   UNL     1       1.542   7.277  20.839  0.00  0.00    +0.000 NA
ATOM      6  C   UNL     1       1.217   8.458  20.344  0.00  0.00    +0.000 A 
ENDROOT
BRANCH   4   7
ATOM      7  C   UNL     1       2.791   5.310  19.964  0.00  0.00    +0.000 A 
ATOM      8  C   UNL     1       2.114   4.349  20.729  0.00  0.00    +0.000 A 
ATOM      9  C   UNL     1       2.609   3.045  20.833  0.00  0.00    +0.000 A 
ATOM     10  C   UNL     1       3.787   2.691  20.175  0.00  0.00    +0.000 A 
ATOM     11  C   UNL     1       4.461   3.646  19.420  0.00  0.00    +0.000 A 
ATOM     12  C   UNL     1       3.974   4.943  19.307  0.00  0.00    +0.000 A 
BRANCH  11  13
ATOM     13  O   UNL     1       5.616   3.345  18.760  0.00  0.00    +0.000 OA
ATOM     14  H   UNL     1       5.481   2.529  18.252  0.00  0.00    +0.000 HD
ENDBRANCH  11  13
ENDBRANCH   4   7
BRANCH   6  15
ATOM     15  C   UNL     1       0.431   9.478  21.045  0.00  0.00    +0.000 A 
ATOM     16  C   UNL     1       0.103   9.294  22.394  0.00  0.00    +0.000 A 
ATOM     17  C   UNL     1      -0.653  10.247  23.093  0.00  0.00    +0.000 A 
ATOM     18  C   UNL     1      -1.099  11.426  22.474  0.00  0.00    +0.000 A 
ATOM     19  C   UNL     1      -0.773  11.592  21.120  0.00  0.00    +0.000 A 
ATOM     20  C   UNL     1      -0.049  10.626  20.413  0.00  0.00    +0.000 A 
BRANCH  18  21
ATOM     21  C   UNL     1      -1.895  12.447  23.194  0.00  0.00    +0.000 A 
ATOM     22  C   UNL     1      -3.202  12.187  23.647  0.00  0.00    +0.000 A 
ATOM     23  C   UNL     1      -3.944  13.156  24.331  0.00  0.00    +0.000 A 
ATOM     24  C   UNL     1      -3.392  14.408  24.591  0.00  0.00    +0.000 A 
ATOM     25  C   UNL     1      -2.104  14.679  24.156  0.00  0.00    +0.000 A 
ATOM     26  C   UNL     1      -1.367  13.723  23.463  0.00  0.00    +0.000 A 
BRANCH  25  27
ATOM     27  O   UNL     1      -1.510  15.885  24.388  0.00  0.00    +0.000 OA
ATOM     28  H   UNL     1      -1.031  16.154  23.587  0.00  0.00    +0.000 HD
ENDBRANCH  25  27
ENDBRANCH  18  21
ENDBRANCH   6  15
TORSDOF 5
ENDMDL
MODEL 8
REMARK VINA RESULT:      -8.6      4.497     10.741
REMARK  Name = 
REMARK  6 active torsions:
REMARK  status: ('A' for Active; 'I' for Inactive)
REMARK    1  A    between atoms: C_1  and  N_2
REMARK    2  A    between atoms: C_4  and  C_5
REMARK    3  A    between atoms: C_9  and  O_10
REMARK    4  A    between atoms: C_13  and  C_14
REMARK    5  A    between atoms: C_17  and  C_18
REMARK    6  A    between atoms: C_22  and  O_23
REMARK                            x       y       z     vdW  Elec       q    Type
REMARK                         _______ _______ _______ _____ _____    ______ ____
ROOT
ATOM      1  C   UNL     1       1.764  12.365  19.004  0.00  0.00    +0.000 C 
ATOM      2  N   UNL     1       0.930  11.945  20.100  0.00  0.00    +0.000 N 
ATOM      3  N   UNL     1       0.258  12.881  20.788  0.00  0.00    +0.000 NA
ATOM      4  C   UNL     1      -0.469  12.147  21.639  0.00  0.00    +0.000 A 
ATOM      5  N   UNL     1      -0.276  10.793  21.498  0.00  0.00    +0.000 NA
ATOM      6  C   UNL     1       0.631  10.677  20.545  0.00  0.00    +0.000 A 
ENDROOT
BRANCH   4   7
ATOM      7  C   UNL     1      -1.376  12.720  22.626  0.00  0.00    +0.000 A 
ATOM      8  C   UNL     1      -1.117  13.979  23.186  0.00  0.00    +0.000 A 
ATOM      9  C   UNL     1      -1.996  14.536  24.122  0.00  0.00    +0.000 A 
ATOM     10  C   UNL     1      -3.139  13.837  24.508  0.00  0.00    +0.000 A 
ATOM     11  C   UNL     1      -3.394  12.585  23.955  0.00  0.00    +0.000 A 
ATOM     12  C   UNL     1      -2.528  12.026  23.021  0.00  0.00    +0.000 A 
BRANCH  11  13
ATOM     13  O   UNL     1      -4.499  11.866  24.303  0.00  0.00    +0.000 OA
ATOM     14  H   UNL     1      -5.127  12.456  24.749  0.00  0.00    +0.000 HD
ENDBRANCH  11  13
ENDBRANCH   4   7
BRANCH   6  15
ATOM     15  C   UNL     1       1.169   9.409  20.042  0.00  0.00    +0.000 A 
ATOM     16  C   UNL     1       1.348   8.336  20.923  0.00  0.00    +0.000 A 
ATOM     17  C   UNL     1       1.866   7.110  20.477  0.00  0.00    +0.000 A 
ATOM     18  C   UNL     1       2.214   6.908  19.131  0.00  0.00    +0.000 A 
ATOM     19  C   UNL     1       2.040   7.996  18.263  0.00  0.00    +0.000 A 
ATOM     20  C   UNL     1       1.556   9.228  18.714  0.00  0.00    +0.000 A 
BRANCH  18  21
ATOM     21  C   UNL     1       2.759   5.622  18.638  0.00  0.00    +0.000 A 
ATOM     22  C   UNL     1       1.992   4.742  17.853  0.00  0.00    +0.000 A 
ATOM     23  C   UNL     1       2.517   3.531  17.388  0.00  0.00    +0.000 A 
ATOM     24  C   UNL     1       3.830   3.175  17.686  0.00  0.00    +0.000 A 
ATOM     25  C   UNL     1       4.602   4.034  18.455  0.00  0.00    +0.000 A 
ATOM     26  C   UNL     1       4.080   5.232  18.932  0.00  0.00    +0.000 A 
BRANCH  25  27
ATOM     27  O   UNL     1       5.895   3.741  18.773  0.00  0.00    +0.000 OA
ATOM     28  H   UNL     1       5.931   3.464  19.703  0.00  0.00    +0.000 HD
ENDBRANCH  25  27
ENDBRANCH  18  21
ENDBRANCH   6  15
TORSDOF 5
ENDMDL
MODEL 9
REMARK VINA RESULT:      -8.5      4.107     10.905
REMARK  Name = 
REMARK  6 active torsions:
REMARK  status: ('A' for Active; 'I' for Inactive)
REMARK    1  A    between atoms: C_1  and  N_2
REMARK    2  A    between atoms: C_4  and  C_5
REMARK    3  A    between atoms: C_9  and  O_10
REMARK    4  A    between atoms: C_13  and  C_14
REMARK    5  A    between atoms: C_17  and  C_18
REMARK    6  A    between atoms: C_22  and  O_23
REMARK                            x       y       z     vdW  Elec       q    Type
REMARK                         _______ _______ _______ _____ _____    ______ ____
ROOT
ATOM      1  C   UNL     1       1.934  12.821  20.436  0.00  0.00    +0.000 C 
ATOM      2  N   UNL     1       0.662  12.207  20.711  0.00  0.00    +0.000 N 
ATOM      3  N   UNL     1      -0.292  12.946  21.300  0.00  0.00    +0.000 NA
ATOM      4  C   UNL     1      -1.338  12.112  21.309  0.00  0.00    +0.000 A 
ATOM      5  N   UNL     1      -1.070  10.888  20.742  0.00  0.00    +0.000 NA
ATOM      6  C   UNL     1       0.204  10.948  20.395  0.00  0.00    +0.000 A 
ENDROOT
BRANCH   4   7
ATOM      7  C   UNL     1      -2.640  12.457  21.868  0.00  0.00    +0.000 A 
ATOM      8  C   UNL     1      -3.693  12.853  21.031  0.00  0.00    +0.000 A 
ATOM      9  C   UNL     1      -4.946  13.169  21.565  0.00  0.00    +0.000 A 
ATOM     10  C   UNL     1      -5.157  13.096  22.941  0.00  0.00    +0.000 A 
ATOM     11  C   UNL     1      -4.111  12.707  23.773  0.00  0.00    +0.000 A 
ATOM     12  C   UNL     1      -2.863  12.386  23.250  0.00  0.00    +0.000 A 
BRANCH  11  13
ATOM     13  O   UNL     1      -4.272  12.621  25.124  0.00  0.00    +0.000 OA
ATOM     14  H   UNL     1      -5.191  12.374  25.314  0.00  0.00    +0.000 HD
ENDBRANCH  11  13
ENDBRANCH   4   7
BRANCH   6  15
ATOM     15  C   UNL     1       0.953   9.865  19.750  0.00  0.00    +0.000 A 
ATOM     16  C   UNL     1       1.289   8.722  20.485  0.00  0.00    +0.000 A 
ATOM     17  C   UNL     1       2.011   7.670  19.900  0.00  0.00    +0.000 A 
ATOM     18  C   UNL     1       2.414   7.717  18.556  0.00  0.00    +0.000 A 
ATOM     19  C   UNL     1       2.081   8.873  17.835  0.00  0.00    +0.000 A 
ATOM     20  C   UNL     1       1.391   9.936  18.427  0.00  0.00    +0.000 A 
BRANCH  18  21
ATOM     21  C   UNL     1       3.173   6.616  17.917  0.00  0.00    +0.000 A 
ATOM     22  C   UNL     1       2.769   5.273  18.026  0.00  0.00    +0.000 A 
ATOM     23  C   UNL     1       3.490   4.241  17.416  0.00  0.00    +0.000 A 
ATOM     24  C   UNL     1       4.630   4.529  16.668  0.00  0.00    +0.000 A 
ATOM     25  C   UNL     1       5.039   5.848  16.546  0.00  0.00    +0.000 A 
ATOM     26  C   UNL     1       4.333   6.876  17.163  0.00  0.00    +0.000 A 
BRANCH  25  27
ATOM     27  O   UNL     1       6.143   6.189  15.821  0.00  0.00    +0.000 OA
ATOM     28  H   UNL     1       5.932   6.106  14.877  0.00  0.00    +0.000 HD
ENDBRANCH  25  27
ENDBRANCH  18  21
ENDBRANCH   6  15
TORSDOF 5
ENDMDL
