MODEL 1
REMARK VINA RESULT:      -7.9      0.000      0.000
REMARK  Name = 
REMARK  5 active torsions:
REMARK  status: ('A' for Active; 'I' for Inactive)
REMARK    1  A    between atoms: C_2  and  N_3
REMARK    2  A    between atoms: C_2  and  N_16
REMARK    3  A    between atoms: N_3  and  C_4
REMARK    4  A    between atoms: C_8  and  C_9
REMARK    5  A    between atoms: N_16  and  C_17
REMARK                            x       y       z     vdW  Elec       q    Type
REMARK                         _______ _______ _______ _____ _____    ______ ____
ROOT
ATOM      1  N   UNL     1       5.356   3.313  19.145  0.00  0.00    +0.000 N 
ATOM      2  H   UNL     1       5.985   2.891  19.817  0.00  0.00    +0.000 HD
ENDROOT
BRANCH   1   3
ATOM      3  C   UNL     1       5.910   4.268  18.273  0.00  0.00    +0.000 A 
ATOM      4  C   UNL     1       6.418   5.439  18.822  0.00  0.00    +0.000 A 
ATOM      5  C   UNL     1       7.095   6.335  18.003  0.00  0.00    +0.000 A 
ATOM      6  C   UNL     1       7.223   6.077  16.634  0.00  0.00    +0.000 A 
ATOM      7  C   UNL     1       6.634   4.953  16.028  0.00  0.00    +0.000 A 
ATOM      8  C   UNL     1       5.961   4.065  16.884  0.00  0.00    +0.000 A 
BRANCH   7   9
ATOM      9  C   UNL     1       6.738   4.704  14.574  0.00  0.00    +0.000 A 
ATOM     10  C   UNL     1       7.658   5.397  13.761  0.00  0.00    +0.000 A 
ATOM     11  C   UNL     1       7.759   5.143  12.388  0.00  0.00    +0.000 A 
ATOM     12  C   UNL     1       6.929   4.201  11.789  0.00  0.00    +0.000 A 
ATOM     13  C   UNL     1       6.004   3.511  12.563  0.00  0.00    +0.000 A 
ATOM     14  C   UNL     1       5.917   3.758  13.936  0.00  0.00    +0.000 A 
ENDBRANCH   7   9
ENDBRANCH   1   3
BRANCH   1  16
ATOM     15  S   UNL     1       3.385   1.618  18.778  0.00  0.00    +0.000 S 
ATOM     16  C   UNL     1       4.038   3.051  19.330  0.00  0.00    +0.000 C 
BRANCH  16  17
ATOM     17  N   UNL     1       3.215   3.972  19.886  0.00  0.00    +0.000 N 
ATOM     18  H   UNL     1       3.299   3.981  20.898  0.00  0.00    +0.000 HD
BRANCH  17  19
ATOM     19  C   UNL     1       1.949   4.515  19.353  0.00  0.00    +0.000 C 
ATOM     20  C   UNL     1       1.327   5.608  20.239  0.00  0.00    +0.000 C 
ATOM     21  C   UNL     1       2.180   6.871  20.282  0.00  0.00    +0.000 C 
ATOM     22  C   UNL     1       2.436   7.410  18.878  0.00  0.00    +0.000 C 
ATOM     23  C   UNL     1       3.012   6.349  17.944  0.00  0.00    +0.000 C 
ATOM     24  C   UNL     1       2.182   5.062  17.938  0.00  0.00    +0.000 C 
ENDBRANCH  17  19
ENDBRANCH  16  17
ENDBRANCH   1  16
TORSDOF 5
ENDMDL
MODEL 2
REMARK VINA RESULT:      -7.6      1.912      3.041
REMARK  Name = 
REMARK  5 active torsions:
REMARK  status: ('A' for Active; 'I' for Inactive)
REMARK    1  A    between atoms: C_2  and  N_3
REMARK    2  A    between atoms: C_2  and  N_16
REMARK    3  A    between atoms: N_3  and  C_4
REMARK    4  A    between atoms: C_8  and  C_9
REMARK    5  A    between atoms: N_16  and  C_17
REMARK                            x       y       z     vdW  Elec       q    Type
REMARK                         _______ _______ _______ _____ _____    ______ ____
ROOT
ATOM      1  N   UNL     1       3.812   6.982  17.803  0.00  0.00    +0.000 N 
ATOM      2  H   UNL     1       3.683   7.897  17.390  0.00  0.00    +0.000 HD
ENDROOT
BRANCH   1   3
ATOM      3  C   UNL     1       4.964   6.271  17.417  0.00  0.00    +0.000 A 
ATOM      4  C   UNL     1       5.882   5.927  18.402  0.00  0.00    +0.000 A 
ATOM      5  C   UNL     1       6.955   5.106  18.073  0.00  0.00    +0.000 A 
ATOM      6  C   UNL     1       7.129   4.671  16.754  0.00  0.00    +0.000 A 
ATOM      7  C   UNL     1       6.276   5.083  15.714  0.00  0.00    +0.000 A 
ATOM      8  C   UNL     1       5.199   5.907  16.081  0.00  0.00    +0.000 A 
BRANCH   7   9
ATOM      9  C   UNL     1       6.486   4.652  14.315  0.00  0.00    +0.000 A 
ATOM     10  C   UNL     1       5.654   3.697  13.694  0.00  0.00    +0.000 A 
ATOM     11  C   UNL     1       5.852   3.307  12.364  0.00  0.00    +0.000 A 
ATOM     12  C   UNL     1       6.898   3.850  11.626  0.00  0.00    +0.000 A 
ATOM     13  C   UNL     1       7.742   4.785  12.215  0.00  0.00    +0.000 A 
ATOM     14  C   UNL     1       7.532   5.181  13.539  0.00  0.00    +0.000 A 
ENDBRANCH   7   9
ENDBRANCH   1   3
BRANCH   1  16
ATOM     15  S   UNL     1       2.088   7.387  19.741  0.00  0.00    +0.000 S 
ATOM     16  C   UNL     1       2.753   6.496  18.496  0.00  0.00    +0.000 C 
BRANCH  16  17
ATOM     17  N   UNL     1       2.269   5.254  18.252  0.00  0.00    +0.000 N 
ATOM     18  H   UNL     1       1.778   5.216  17.365  0.00  0.00    +0.000 HD
BRANCH  17  19
ATOM     19  C   UNL     1       1.904   4.202  19.222  0.00  0.00    +0.000 C 
ATOM     20  C   UNL     1       1.275   2.957  18.573  0.00  0.00    +0.000 C 
ATOM     21  C   UNL     1       2.268   2.200  17.697  0.00  0.00    +0.000 C 
ATOM     22  C   UNL     1       3.515   1.814  18.488  0.00  0.00    +0.000 C 
ATOM     23  C   UNL     1       4.151   3.009  19.192  0.00  0.00    +0.000 C 
ATOM     24  C   UNL     1       3.143   3.798  20.031  0.00  0.00    +0.000 C 
ENDBRANCH  17  19
ENDBRANCH  16  17
ENDBRANCH   1  16
TORSDOF 5
ENDMDL
MODEL 3
REMARK VINA RESULT:      -7.6      2.876      8.047
REMARK  Name = 
REMARK  5 active torsions:
REMARK  status: ('A' for Active; 'I' for Inactive)
REMARK    1  A    between atoms: C_2  and  N_3
REMARK    2  A    between atoms: C_2  and  N_16
REMARK    3  A    between atoms: N_3  and  C_4
REMARK    4  A    between atoms: C_8  and  C_9
REMARK    5  A    between atoms: N_16  and  C_17
REMARK                            x       y       z     vdW  Elec       q    Type
REMARK                         _______ _______ _______ _____ _____    ______ ____
ROOT
ATOM      1  N   UNL     1       3.067   5.631  20.033  0.00  0.00    +0.000 N 
ATOM      2  H   UNL     1       2.672   5.210  20.864  0.00  0.00    +0.000 HD
ENDROOT
BRANCH   1   3
ATOM      3  C   UNL     1       2.545   6.879  19.647  0.00  0.00    +0.000 A 
ATOM      4  C   UNL     1       2.720   7.283  18.329  0.00  0.00    +0.000 A 
ATOM      5  C   UNL     1       2.096   8.443  17.885  0.00  0.00    +0.000 A 
ATOM      6  C   UNL     1       1.337   9.216  18.772  0.00  0.00    +0.000 A 
ATOM      7  C   UNL     1       1.224   8.891  20.135  0.00  0.00    +0.000 A 
ATOM      8  C   UNL     1       1.862   7.710  20.550  0.00  0.00    +0.000 A 
BRANCH   7   9
ATOM      9  C   UNL     1       0.453   9.732  21.078  0.00  0.00    +0.000 A 
ATOM     10  C   UNL     1       0.100  11.063  20.774  0.00  0.00    +0.000 A 
ATOM     11  C   UNL     1      -0.643  11.846  21.666  0.00  0.00    +0.000 A 
ATOM     12  C   UNL     1      -1.035  11.322  22.894  0.00  0.00    +0.000 A 
ATOM     13  C   UNL     1      -0.691  10.017  23.226  0.00  0.00    +0.000 A 
ATOM     14  C   UNL     1       0.038   9.235  22.326  0.00  0.00    +0.000 A 
ENDBRANCH   7   9
ENDBRANCH   1   3
BRANCH   1  16
ATOM     15  S   UNL     1       3.301   3.415  18.645  0.00  0.00    +0.000 S 
ATOM     16  C   UNL     1       3.885   4.833  19.304  0.00  0.00    +0.000 C 
BRANCH  16  17
ATOM     17  N   UNL     1       5.202   5.122  19.166  0.00  0.00    +0.000 N 
ATOM     18  H   UNL     1       5.470   5.910  19.747  0.00  0.00    +0.000 HD
BRANCH  17  19
ATOM     19  C   UNL     1       6.086   4.857  18.012  0.00  0.00    +0.000 C 
ATOM     20  C   UNL     1       5.814   5.772  16.806  0.00  0.00    +0.000 C 
ATOM     21  C   UNL     1       6.159   7.228  17.097  0.00  0.00    +0.000 C 
ATOM     22  C   UNL     1       7.609   7.369  17.553  0.00  0.00    +0.000 C 
ATOM     23  C   UNL     1       7.943   6.445  18.722  0.00  0.00    +0.000 C 
ATOM     24  C   UNL     1       7.551   4.991  18.448  0.00  0.00    +0.000 C 
ENDBRANCH  17  19
ENDBRANCH  16  17
ENDBRANCH   1  16
TORSDOF 5
ENDMDL
MODEL 4
REMARK VINA RESULT:      -7.5      1.457      1.876
REMARK  Name = 
REMARK  5 active torsions:
REMARK  status: ('A' for Active; 'I' for Inactive)
REMARK    1  A    between atoms: C_2  and  N_3
REMARK    2  A    between atoms: C_2  and  N_16
REMARK    3  A    between atoms: N_3  and  C_4
REMARK    4  A    between atoms: C_8  and  C_9
REMARK    5  A    between atoms: N_16  and  C_17
REMARK                            x       y       z     vdW  Elec       q    Type
REMARK                         _______ _______ _______ _____ _____    ______ ____
ROOT
ATOM      1  N   UNL     1       5.361   3.447  19.378  0.00  0.00    +0.000 N 
ATOM      2  H   UNL     1       6.040   3.715  20.080  0.00  0.00    +0.000 HD
ENDROOT
BRANCH   1   3
ATOM      3  C   UNL     1       5.179   4.336  18.302  0.00  0.00    +0.000 A 
ATOM      4  C   UNL     1       4.547   5.547  18.552  0.00  0.00    +0.000 A 
ATOM      5  C   UNL     1       4.479   6.500  17.542  0.00  0.00    +0.000 A 
ATOM      6  C   UNL     1       5.005   6.220  16.276  0.00  0.00    +0.000 A 
ATOM      7  C   UNL     1       5.561   4.968  15.959  0.00  0.00    +0.000 A 
ATOM      8  C   UNL     1       5.618   4.030  17.003  0.00  0.00    +0.000 A 
BRANCH   7   9
ATOM      9  C   UNL     1       6.081   4.662  14.608  0.00  0.00    +0.000 A 
ATOM     10  C   UNL     1       7.256   5.260  14.106  0.00  0.00    +0.000 A 
ATOM     11  C   UNL     1       7.747   4.952  12.832  0.00  0.00    +0.000 A 
ATOM     12  C   UNL     1       7.066   4.052  12.020  0.00  0.00    +0.000 A 
ATOM     13  C   UNL     1       5.898   3.456  12.482  0.00  0.00    +0.000 A 
ATOM     14  C   UNL     1       5.419   3.756  13.761  0.00  0.00    +0.000 A 
ENDBRANCH   7   9
ENDBRANCH   1   3
BRANCH   1  16
ATOM     15  S   UNL     1       5.125   1.241  20.780  0.00  0.00    +0.000 S 
ATOM     16  C   UNL     1       4.581   2.383  19.692  0.00  0.00    +0.000 C 
BRANCH  16  17
ATOM     17  N   UNL     1       3.393   2.182  19.073  0.00  0.00    +0.000 N 
ATOM     18  H   UNL     1       3.427   2.474  18.102  0.00  0.00    +0.000 HD
BRANCH  17  19
ATOM     19  C   UNL     1       2.043   2.130  19.670  0.00  0.00    +0.000 C 
ATOM     20  C   UNL     1       1.973   2.722  21.088  0.00  0.00    +0.000 C 
ATOM     21  C   UNL     1       2.229   4.225  21.099  0.00  0.00    +0.000 C 
ATOM     22  C   UNL     1       1.260   4.954  20.173  0.00  0.00    +0.000 C 
ATOM     23  C   UNL     1       1.257   4.374  18.761  0.00  0.00    +0.000 C 
ATOM     24  C   UNL     1       1.049   2.857  18.753  0.00  0.00    +0.000 C 
ENDBRANCH  17  19
ENDBRANCH  16  17
ENDBRANCH   1  16
TORSDOF 5
ENDMDL
MODEL 5
REMARK VINA RESULT:      -7.5      1.956      3.102
REMARK  Name = 
REMARK  5 active torsions:
REMARK  status: ('A' for Active; 'I' for Inactive)
REMARK    1  A    between atoms: C_2  and  N_3
REMARK    2  A    between atoms: C_2  and  N_16
REMARK    3  A    between atoms: N_3  and  C_4
REMARK    4  A    between atoms: C_8  and  C_9
REMARK    5  A    between atoms: N_16  and  C_17
REMARK                            x       y       z     vdW  Elec       q    Type
REMARK                         _______ _______ _______ _____ _____    ______ ____
ROOT
ATOM      1  N   UNL     1       4.408   7.035  18.217  0.00  0.00    +0.000 N 
ATOM      2  H   UNL     1       4.637   8.001  18.415  0.00  0.00    +0.000 HD
ENDROOT
BRANCH   1   3
ATOM      3  C   UNL     1       5.450   6.225  17.728  0.00  0.00    +0.000 A 
ATOM      4  C   UNL     1       6.369   5.720  18.639  0.00  0.00    +0.000 A 
ATOM      5  C   UNL     1       7.324   4.808  18.205  0.00  0.00    +0.000 A 
ATOM      6  C   UNL     1       7.382   4.438  16.856  0.00  0.00    +0.000 A 
ATOM      7  C   UNL     1       6.532   5.007  15.890  0.00  0.00    +0.000 A 
ATOM      8  C   UNL     1       5.576   5.922  16.362  0.00  0.00    +0.000 A 
BRANCH   7   9
ATOM      9  C   UNL     1       6.622   4.643  14.459  0.00  0.00    +0.000 A 
ATOM     10  C   UNL     1       5.742   3.713  13.868  0.00  0.00    +0.000 A 
ATOM     11  C   UNL     1       5.826   3.387  12.509  0.00  0.00    +0.000 A 
ATOM     12  C   UNL     1       6.805   3.971  11.710  0.00  0.00    +0.000 A 
ATOM     13  C   UNL     1       7.694   4.882  12.268  0.00  0.00    +0.000 A 
ATOM     14  C   UNL     1       7.597   5.214  13.623  0.00  0.00    +0.000 A 
ENDBRANCH   7   9
ENDBRANCH   1   3
BRANCH   1  16
ATOM     15  S   UNL     1       1.949   7.880  17.857  0.00  0.00    +0.000 S 
ATOM     16  C   UNL     1       3.088   6.726  18.251  0.00  0.00    +0.000 C 
BRANCH  16  17
ATOM     17  N   UNL     1       2.666   5.513  18.681  0.00  0.00    +0.000 N 
ATOM     18  H   UNL     1       3.236   5.173  19.448  0.00  0.00    +0.000 HD
BRANCH  17  19
ATOM     19  C   UNL     1       1.936   4.472  17.927  0.00  0.00    +0.000 C 
ATOM     20  C   UNL     1       2.830   3.662  16.973  0.00  0.00    +0.000 C 
ATOM     21  C   UNL     1       3.847   2.808  17.722  0.00  0.00    +0.000 C 
ATOM     22  C   UNL     1       3.158   1.880  18.718  0.00  0.00    +0.000 C 
ATOM     23  C   UNL     1       2.221   2.631  19.660  0.00  0.00    +0.000 C 
ATOM     24  C   UNL     1       1.233   3.527  18.910  0.00  0.00    +0.000 C 
ENDBRANCH  17  19
ENDBRANCH  16  17
ENDBRANCH   1  16
TORSDOF 5
ENDMDL
MODEL 6
REMARK VINA RESULT:      -7.5      3.102      8.302
REMARK  Name = 
REMARK  5 active torsions:
REMARK  status: ('A' for Active; 'I' for Inactive)
REMARK    1  A    between atoms: C_2  and  N_3
REMARK    2  A    between atoms: C_2  and  N_16
REMARK    3  A    between atoms: N_3  and  C_4
REMARK    4  A    between atoms: C_8  and  C_9
REMARK    5  A    between atoms: N_16  and  C_17
REMARK                            x       y       z     vdW  Elec       q    Type
REMARK                         _______ _______ _______ _____ _____    ______ ____
ROOT
ATOM      1  N   UNL     1       3.000   6.064  19.830  0.00  0.00    +0.000 N 
ATOM      2  H   UNL     1       2.873   5.739  20.781  0.00  0.00    +0.000 HD
ENDROOT
BRANCH   1   3
ATOM      3  C   UNL     1       2.385   7.284  19.493  0.00  0.00    +0.000 A 
ATOM      4  C   UNL     1       2.514   7.743  18.188  0.00  0.00    +0.000 A 
ATOM      5  C   UNL     1       1.803   8.870  17.791  0.00  0.00    +0.000 A 
ATOM      6  C   UNL     1       1.003   9.557  18.711  0.00  0.00    +0.000 A 
ATOM      7  C   UNL     1       0.930   9.179  20.064  0.00  0.00    +0.000 A 
ATOM      8  C   UNL     1       1.656   8.033  20.431  0.00  0.00    +0.000 A 
BRANCH   7   9
ATOM      9  C   UNL     1       0.113   9.930  21.043  0.00  0.00    +0.000 A 
ATOM     10  C   UNL     1      -0.069   9.479  22.367  0.00  0.00    +0.000 A 
ATOM     11  C   UNL     1      -0.831  10.206  23.289  0.00  0.00    +0.000 A 
ATOM     12  C   UNL     1      -1.445  11.394  22.906  0.00  0.00    +0.000 A 
ATOM     13  C   UNL     1      -1.293  11.857  21.604  0.00  0.00    +0.000 A 
ATOM     14  C   UNL     1      -0.520  11.135  20.690  0.00  0.00    +0.000 A 
ENDBRANCH   7   9
ENDBRANCH   1   3
BRANCH   1  16
ATOM     15  S   UNL     1       2.620   3.990  18.267  0.00  0.00    +0.000 S 
ATOM     16  C   UNL     1       3.560   5.174  18.975  0.00  0.00    +0.000 C 
BRANCH  16  17
ATOM     17  N   UNL     1       4.895   5.172  18.744  0.00  0.00    +0.000 N 
ATOM     18  H   UNL     1       5.399   4.697  19.486  0.00  0.00    +0.000 HD
BRANCH  17  19
ATOM     19  C   UNL     1       5.692   6.132  17.953  0.00  0.00    +0.000 C 
ATOM     20  C   UNL     1       7.200   5.829  17.956  0.00  0.00    +0.000 C 
ATOM     21  C   UNL     1       7.529   4.527  17.235  0.00  0.00    +0.000 C 
ATOM     22  C   UNL     1       6.994   4.540  15.805  0.00  0.00    +0.000 C 
ATOM     23  C   UNL     1       5.508   4.882  15.743  0.00  0.00    +0.000 C 
ATOM     24  C   UNL     1       5.171   6.164  16.510  0.00  0.00    +0.000 C 
ENDBRANCH  17  19
ENDBRANCH  16  17
ENDBRANCH   1  16
TORSDOF 5
ENDMDL
MODEL 7
REMARK VINA RESULT:      -7.5      1.982      2.937
REMARK  Name = 
REMARK  5 active torsions:
REMARK  status: ('A' for Active; 'I' for Inactive)
REMARK    1  A    between atoms: C_2  and  N_3
REMARK    2  A    between atoms: C_2  and  N_16
REMARK    3  A    between atoms: N_3  and  C_4
REMARK    4  A    between atoms: C_8  and  C_9
REMARK    5  A    between atoms: N_16  and  C_17
REMARK                            x       y       z     vdW  Elec       q    Type
REMARK                         _______ _______ _______ _____ _____    ______ ____
ROOT
ATOM      1  N   UNL     1       4.161   7.054  17.869  0.00  0.00    +0.000 N 
ATOM      2  H   UNL     1       4.134   8.012  17.542  0.00  0.00    +0.000 HD
ENDROOT
BRANCH   1   3
ATOM      3  C   UNL     1       5.244   6.267  17.435  0.00  0.00    +0.000 A 
ATOM      4  C   UNL     1       6.165   5.841  18.383  0.00  0.00    +0.000 A 
ATOM      5  C   UNL     1       7.164   4.950  18.007  0.00  0.00    +0.000 A 
ATOM      6  C   UNL     1       7.263   4.525  16.678  0.00  0.00    +0.000 A 
ATOM      7  C   UNL     1       6.409   5.014  15.672  0.00  0.00    +0.000 A 
ATOM      8  C   UNL     1       5.409   5.909  16.086  0.00  0.00    +0.000 A 
BRANCH   7   9
ATOM      9  C   UNL     1       6.542   4.592  14.261  0.00  0.00    +0.000 A 
ATOM     10  C   UNL     1       5.663   3.657  13.675  0.00  0.00    +0.000 A 
ATOM     11  C   UNL     1       5.788   3.275  12.334  0.00  0.00    +0.000 A 
ATOM     12  C   UNL     1       6.805   3.807  11.548  0.00  0.00    +0.000 A 
ATOM     13  C   UNL     1       7.694   4.722  12.102  0.00  0.00    +0.000 A 
ATOM     14  C   UNL     1       7.557   5.110  13.438  0.00  0.00    +0.000 A 
ENDBRANCH   7   9
ENDBRANCH   1   3
BRANCH   1  16
ATOM     15  S   UNL     1       2.105   7.684  19.373  0.00  0.00    +0.000 S 
ATOM     16  C   UNL     1       3.041   6.617  18.497  0.00  0.00    +0.000 C 
BRANCH  16  17
ATOM     17  N   UNL     1       2.708   5.304  18.497  0.00  0.00    +0.000 N 
ATOM     18  H   UNL     1       1.859   5.137  17.967  0.00  0.00    +0.000 HD
BRANCH  17  19
ATOM     19  C   UNL     1       3.040   4.271  19.500  0.00  0.00    +0.000 C 
ATOM     20  C   UNL     1       1.832   3.815  20.336  0.00  0.00    +0.000 C 
ATOM     21  C   UNL     1       0.798   3.072  19.498  0.00  0.00    +0.000 C 
ATOM     22  C   UNL     1       1.425   1.881  18.779  0.00  0.00    +0.000 C 
ATOM     23  C   UNL     1       2.658   2.274  17.971  0.00  0.00    +0.000 C 
ATOM     24  C   UNL     1       3.675   3.062  18.800  0.00  0.00    +0.000 C 
ENDBRANCH  17  19
ENDBRANCH  16  17
ENDBRANCH   1  16
TORSDOF 5
ENDMDL
MODEL 8
REMARK VINA RESULT:      -7.5      1.984      2.703
REMARK  Name = 
REMARK  5 active torsions:
REMARK  status: ('A' for Active; 'I' for Inactive)
REMARK    1  A    between atoms: C_2  and  N_3
REMARK    2  A    between atoms: C_2  and  N_16
REMARK    3  A    between atoms: N_3  and  C_4
REMARK    4  A    between atoms: C_8  and  C_9
REMARK    5  A    between atoms: N_16  and  C_17
REMARK                            x       y       z     vdW  Elec       q    Type
REMARK                         _______ _______ _______ _____ _____    ______ ____
ROOT
ATOM      1  N   UNL     1       3.717   6.992  17.755  0.00  0.00    +0.000 N 
ATOM      2  H   UNL     1       3.532   7.872  17.289  0.00  0.00    +0.000 HD
ENDROOT
BRANCH   1   3
ATOM      3  C   UNL     1       4.896   6.317  17.386  0.00  0.00    +0.000 A 
ATOM      4  C   UNL     1       5.818   6.017  18.382  0.00  0.00    +0.000 A 
ATOM      5  C   UNL     1       6.921   5.231  18.072  0.00  0.00    +0.000 A 
ATOM      6  C   UNL     1       7.120   4.786  16.760  0.00  0.00    +0.000 A 
ATOM      7  C   UNL     1       6.262   5.155  15.708  0.00  0.00    +0.000 A 
ATOM      8  C   UNL     1       5.154   5.946  16.057  0.00  0.00    +0.000 A 
BRANCH   7   9
ATOM      9  C   UNL     1       6.497   4.714  14.316  0.00  0.00    +0.000 A 
ATOM     10  C   UNL     1       7.529   5.259  13.524  0.00  0.00    +0.000 A 
ATOM     11  C   UNL     1       7.753   4.824  12.212  0.00  0.00    +0.000 A 
ATOM     12  C   UNL     1       6.939   3.844  11.653  0.00  0.00    +0.000 A 
ATOM     13  C   UNL     1       5.906   3.297  12.405  0.00  0.00    +0.000 A 
ATOM     14  C   UNL     1       5.696   3.725  13.719  0.00  0.00    +0.000 A 
ENDBRANCH   7   9
ENDBRANCH   1   3
BRANCH   1  16
ATOM     15  S   UNL     1       2.129   7.361  19.812  0.00  0.00    +0.000 S 
ATOM     16  C   UNL     1       2.699   6.498  18.502  0.00  0.00    +0.000 C 
BRANCH  16  17
ATOM     17  N   UNL     1       2.185   5.270  18.255  0.00  0.00    +0.000 N 
ATOM     18  H   UNL     1       1.170   5.282  18.277  0.00  0.00    +0.000 HD
BRANCH  17  19
ATOM     19  C   UNL     1       2.805   3.949  18.487  0.00  0.00    +0.000 C 
ATOM     20  C   UNL     1       3.391   3.783  19.899  0.00  0.00    +0.000 C 
ATOM     21  C   UNL     1       2.311   3.780  20.975  0.00  0.00    +0.000 C 
ATOM     22  C   UNL     1       1.268   2.699  20.704  0.00  0.00    +0.000 C 
ATOM     23  C   UNL     1       0.688   2.791  19.295  0.00  0.00    +0.000 C 
ATOM     24  C   UNL     1       1.775   2.845  18.218  0.00  0.00    +0.000 C 
ENDBRANCH  17  19
ENDBRANCH  16  17
ENDBRANCH   1  16
TORSDOF 5
ENDMDL
MODEL 9
REMARK VINA RESULT:      -7.4      3.165      8.264
REMARK  Name = 
REMARK  5 active torsions:
REMARK  status: ('A' for Active; 'I' for Inactive)
REMARK    1  A    between atoms: C_2  and  N_3
REMARK    2  A    between atoms: C_2  and  N_16
REMARK    3  A    between atoms: N_3  and  C_4
REMARK    4  A    between atoms: C_8  and  C_9
REMARK    5  A    between atoms: N_16  and  C_17
REMARK                            x       y       z     vdW  Elec       q    Type
REMARK                         _______ _______ _______ _____ _____    ______ ____
ROOT
ATOM      1  N   UNL     1       2.915   6.079  20.232  0.00  0.00    +0.000 N 
ATOM      2  H   UNL     1       2.664   5.789  21.169  0.00  0.00    +0.000 HD
ENDROOT
BRANCH   1   3
ATOM      3  C   UNL     1       2.351   7.283  19.770  0.00  0.00    +0.000 A 
ATOM      4  C   UNL     1       2.588   7.654  18.452  0.00  0.00    +0.000 A 
ATOM      5  C   UNL     1       1.931   8.762  17.930  0.00  0.00    +0.000 A 
ATOM      6  C   UNL     1       1.075   9.517  18.739  0.00  0.00    +0.000 A 
ATOM      7  C   UNL     1       0.890   9.229  20.103  0.00  0.00    +0.000 A 
ATOM      8  C   UNL     1       1.565   8.101  20.598  0.00  0.00    +0.000 A 
BRANCH   7   9
ATOM      9  C   UNL     1       0.014  10.054  20.964  0.00  0.00    +0.000 A 
ATOM     10  C   UNL     1      -0.147   9.786  22.340  0.00  0.00    +0.000 A 
ATOM     11  C   UNL     1      -0.966  10.582  23.149  0.00  0.00    +0.000 A 
ATOM     12  C   UNL     1      -1.660  11.655  22.600  0.00  0.00    +0.000 A 
ATOM     13  C   UNL     1      -1.530  11.936  21.245  0.00  0.00    +0.000 A 
ATOM     14  C   UNL     1      -0.699  11.147  20.443  0.00  0.00    +0.000 A 
ENDBRANCH   7   9
ENDBRANCH   1   3
BRANCH   1  16
ATOM     15  S   UNL     1       2.797   3.790  18.953  0.00  0.00    +0.000 S 
ATOM     16  C   UNL     1       3.583   5.159  19.492  0.00  0.00    +0.000 C 
BRANCH  16  17
ATOM     17  N   UNL     1       4.909   5.289  19.249  0.00  0.00    +0.000 N 
ATOM     18  H   UNL     1       5.311   6.052  19.784  0.00  0.00    +0.000 HD
BRANCH  17  19
ATOM     19  C   UNL     1       5.666   4.898  18.042  0.00  0.00    +0.000 C 
ATOM     20  C   UNL     1       5.447   5.840  16.846  0.00  0.00    +0.000 C 
ATOM     21  C   UNL     1       6.017   7.232  17.096  0.00  0.00    +0.000 C 
ATOM     22  C   UNL     1       7.499   7.163  17.453  0.00  0.00    +0.000 C 
ATOM     23  C   UNL     1       7.776   6.203  18.607  0.00  0.00    +0.000 C 
ATOM     24  C   UNL     1       7.161   4.820  18.377  0.00  0.00    +0.000 C 
ENDBRANCH  17  19
ENDBRANCH  16  17
ENDBRANCH   1  16
TORSDOF 5
ENDMDL
