MODEL 1
REMARK VINA RESULT:      -5.7      0.000      0.000
REMARK  Name = 
REMARK  7 active torsions:
REMARK  status: ('A' for Active; 'I' for Inactive)
REMARK    1  A    between atoms: C_1  and  N_2
REMARK    2  A    between atoms: C_6  and  S_7
REMARK    3  A    between atoms: S_7  and  C_8
REMARK    4  A    between atoms: C_8  and  C_9
REMARK    5  A    between atoms: C_9  and  O_10
REMARK    6  A    between atoms: O_10  and  C_11
REMARK    7  A    between atoms: C_14  and  C_15
REMARK                            x       y       z     vdW  Elec       q    Type
REMARK                         _______ _______ _______ _____ _____    ______ ____
ROOT
ATOM      1  C   UNL     1       2.616   6.014  19.627  0.00  0.00    +0.000 C 
ENDROOT
BRANCH   1   2
ATOM      2  C   UNL     1       1.747   5.514  20.743  0.00  0.00    +0.000 C 
BRANCH   2   3
ATOM      3  S   UNL     1       2.211   3.823  21.467  0.00  0.00    +0.000 S 
BRANCH   3   9
ATOM      4  C   UNL     1       0.857   2.584  18.695  0.00  0.00    +0.000 C 
ATOM      5  N   UNL     1       2.214   2.244  19.072  0.00  0.00    +0.000 N 
ATOM      6  C   UNL     1       3.055   1.520  18.307  0.00  0.00    +0.000 A 
ATOM      7  C   UNL     1       4.263   1.485  18.953  0.00  0.00    +0.000 A 
ATOM      8  N   UNL     1       4.171   2.197  20.111  0.00  0.00    +0.000 NA
ATOM      9  C   UNL     1       2.912   2.684  20.151  0.00  0.00    +0.000 A 
ENDBRANCH   3   9
ENDBRANCH   2   3
ENDBRANCH   1   2
BRANCH   1  10
ATOM     10  O   UNL     1       3.914   5.548  19.671  0.00  0.00    +0.000 OA
BRANCH  10  11
ATOM     11  C   UNL     1       4.697   5.406  18.558  0.00  0.00    +0.000 A 
ATOM     12  C   UNL     1       6.062   5.776  18.584  0.00  0.00    +0.000 A 
ATOM     13  C   UNL     1       6.850   5.672  17.441  0.00  0.00    +0.000 A 
ATOM     14  C   UNL     1       6.315   5.184  16.240  0.00  0.00    +0.000 A 
ATOM     15  C   UNL     1       4.961   4.797  16.201  0.00  0.00    +0.000 A 
ATOM     16  C   UNL     1       4.164   4.895  17.352  0.00  0.00    +0.000 A 
BRANCH  14  17
ATOM     17  C   UNL     1       7.095   5.158  15.047  0.00  0.00    +0.000 C 
ATOM     18  N   UNL     1       7.723   5.201  14.076  0.00  0.00    +0.000 NA
ENDBRANCH  14  17
ENDBRANCH  10  11
ENDBRANCH   1  10
TORSDOF 6
ENDMDL
MODEL 2
REMARK VINA RESULT:      -5.7      1.469      2.101
REMARK  Name = 
REMARK  7 active torsions:
REMARK  status: ('A' for Active; 'I' for Inactive)
REMARK    1  A    between atoms: C_1  and  N_2
REMARK    2  A    between atoms: C_6  and  S_7
REMARK    3  A    between atoms: S_7  and  C_8
REMARK    4  A    between atoms: C_8  and  C_9
REMARK    5  A    between atoms: C_9  and  O_10
REMARK    6  A    between atoms: O_10  and  C_11
REMARK    7  A    between atoms: C_14  and  C_15
REMARK                            x       y       z     vdW  Elec       q    Type
REMARK                         _______ _______ _______ _____ _____    ______ ____
ROOT
ATOM      1  C   UNL     1       3.091   6.610  18.474  0.00  0.00    +0.000 C 
ENDROOT
BRANCH   1   2
ATOM      2  C   UNL     1       2.516   6.627  19.859  0.00  0.00    +0.000 C 
BRANCH   2   3
ATOM      3  S   UNL     1       1.985   4.946  20.562  0.00  0.00    +0.000 S 
BRANCH   3   9
ATOM      4  C   UNL     1       4.082   2.372  20.731  0.00  0.00    +0.000 C 
ATOM      5  N   UNL     1       3.252   2.576  19.561  0.00  0.00    +0.000 N 
ATOM      6  C   UNL     1       3.173   1.714  18.528  0.00  0.00    +0.000 A 
ATOM      7  C   UNL     1       2.229   2.202  17.663  0.00  0.00    +0.000 A 
ATOM      8  N   UNL     1       1.717   3.360  18.168  0.00  0.00    +0.000 NA
ATOM      9  C   UNL     1       2.336   3.556  19.352  0.00  0.00    +0.000 A 
ENDBRANCH   3   9
ENDBRANCH   2   3
ENDBRANCH   1   2
BRANCH   1  10
ATOM     10  O   UNL     1       4.342   6.033  18.390  0.00  0.00    +0.000 OA
BRANCH  10  11
ATOM     11  C   UNL     1       4.864   5.543  17.224  0.00  0.00    +0.000 A 
ATOM     12  C   UNL     1       4.987   6.372  16.085  0.00  0.00    +0.000 A 
ATOM     13  C   UNL     1       5.478   5.865  14.885  0.00  0.00    +0.000 A 
ATOM     14  C   UNL     1       5.878   4.524  14.780  0.00  0.00    +0.000 A 
ATOM     15  C   UNL     1       5.776   3.689  15.910  0.00  0.00    +0.000 A 
ATOM     16  C   UNL     1       5.286   4.197  17.123  0.00  0.00    +0.000 A 
BRANCH  14  17
ATOM     17  C   UNL     1       6.299   3.981  13.531  0.00  0.00    +0.000 C 
ATOM     18  N   UNL     1       6.580   3.543  12.498  0.00  0.00    +0.000 NA
ENDBRANCH  14  17
ENDBRANCH  10  11
ENDBRANCH   1  10
TORSDOF 6
ENDMDL
MODEL 3
REMARK VINA RESULT:      -5.6      3.733      5.919
REMARK  Name = 
REMARK  7 active torsions:
REMARK  status: ('A' for Active; 'I' for Inactive)
REMARK    1  A    between atoms: C_1  and  N_2
REMARK    2  A    between atoms: C_6  and  S_7
REMARK    3  A    between atoms: S_7  and  C_8
REMARK    4  A    between atoms: C_8  and  C_9
REMARK    5  A    between atoms: C_9  and  O_10
REMARK    6  A    between atoms: O_10  and  C_11
REMARK    7  A    between atoms: C_14  and  C_15
REMARK                            x       y       z     vdW  Elec       q    Type
REMARK                         _______ _______ _______ _____ _____    ______ ____
ROOT
ATOM      1  C   UNL     1       2.453   5.132  18.409  0.00  0.00    +0.000 C 
ENDROOT
BRANCH   1   2
ATOM      2  C   UNL     1       2.833   4.216  19.535  0.00  0.00    +0.000 C 
BRANCH   2   3
ATOM      3  S   UNL     1       4.481   3.296  19.340  0.00  0.00    +0.000 S 
BRANCH   3   9
ATOM      4  C   UNL     1       5.518   4.217  16.318  0.00  0.00    +0.000 C 
ATOM      5  N   UNL     1       6.172   4.717  17.510  0.00  0.00    +0.000 N 
ATOM      6  C   UNL     1       7.143   5.652  17.506  0.00  0.00    +0.000 A 
ATOM      7  C   UNL     1       7.446   5.928  18.813  0.00  0.00    +0.000 A 
ATOM      8  N   UNL     1       6.654   5.172  19.624  0.00  0.00    +0.000 NA
ATOM      9  C   UNL     1       5.854   4.457  18.804  0.00  0.00    +0.000 A 
ENDBRANCH   3   9
ENDBRANCH   2   3
ENDBRANCH   1   2
BRANCH   1  10
ATOM     10  O   UNL     1       3.030   6.384  18.482  0.00  0.00    +0.000 OA
BRANCH  10  11
ATOM     11  C   UNL     1       2.326   7.516  18.793  0.00  0.00    +0.000 A 
ATOM     12  C   UNL     1       2.071   8.499  17.809  0.00  0.00    +0.000 A 
ATOM     13  C   UNL     1       1.392   9.671  18.134  0.00  0.00    +0.000 A 
ATOM     14  C   UNL     1       0.930   9.897  19.439  0.00  0.00    +0.000 A 
ATOM     15  C   UNL     1       1.163   8.921  20.426  0.00  0.00    +0.000 A 
ATOM     16  C   UNL     1       1.843   7.736  20.104  0.00  0.00    +0.000 A 
BRANCH  14  17
ATOM     17  C   UNL     1       0.312  11.133  19.793  0.00  0.00    +0.000 C 
ATOM     18  N   UNL     1      -0.240  12.101  20.102  0.00  0.00    +0.000 NA
ENDBRANCH  14  17
ENDBRANCH  10  11
ENDBRANCH   1  10
TORSDOF 6
ENDMDL
MODEL 4
REMARK VINA RESULT:      -5.6      2.917      5.184
REMARK  Name = 
REMARK  7 active torsions:
REMARK  status: ('A' for Active; 'I' for Inactive)
REMARK    1  A    between atoms: C_1  and  N_2
REMARK    2  A    between atoms: C_6  and  S_7
REMARK    3  A    between atoms: S_7  and  C_8
REMARK    4  A    between atoms: C_8  and  C_9
REMARK    5  A    between atoms: C_9  and  O_10
REMARK    6  A    between atoms: O_10  and  C_11
REMARK    7  A    between atoms: C_14  and  C_15
REMARK                            x       y       z     vdW  Elec       q    Type
REMARK                         _______ _______ _______ _____ _____    ______ ____
ROOT
ATOM      1  C   UNL     1       4.173   5.012  17.905  0.00  0.00    +0.000 C 
ENDROOT
BRANCH   1   2
ATOM      2  C   UNL     1       4.170   3.763  17.074  0.00  0.00    +0.000 C 
BRANCH   2   3
ATOM      3  S   UNL     1       3.659   2.169  17.967  0.00  0.00    +0.000 S 
BRANCH   3   9
ATOM      4  C   UNL     1       0.459   2.622  18.750  0.00  0.00    +0.000 C 
ATOM      5  N   UNL     1       1.491   2.721  19.762  0.00  0.00    +0.000 N 
ATOM      6  C   UNL     1       1.248   2.884  21.078  0.00  0.00    +0.000 A 
ATOM      7  C   UNL     1       2.457   2.844  21.721  0.00  0.00    +0.000 A 
ATOM      8  N   UNL     1       3.445   2.645  20.804  0.00  0.00    +0.000 NA
ATOM      9  C   UNL     1       2.827   2.540  19.608  0.00  0.00    +0.000 A 
ENDBRANCH   3   9
ENDBRANCH   2   3
ENDBRANCH   1   2
BRANCH   1  10
ATOM     10  O   UNL     1       3.175   5.908  17.582  0.00  0.00    +0.000 OA
BRANCH  10  11
ATOM     11  C   UNL     1       2.587   6.737  18.498  0.00  0.00    +0.000 A 
ATOM     12  C   UNL     1       2.225   8.058  18.148  0.00  0.00    +0.000 A 
ATOM     13  C   UNL     1       1.666   8.917  19.090  0.00  0.00    +0.000 A 
ATOM     14  C   UNL     1       1.433   8.489  20.405  0.00  0.00    +0.000 A 
ATOM     15  C   UNL     1       1.774   7.171  20.767  0.00  0.00    +0.000 A 
ATOM     16  C   UNL     1       2.333   6.300  19.819  0.00  0.00    +0.000 A 
BRANCH  14  17
ATOM     17  C   UNL     1       0.942   9.392  21.394  0.00  0.00    +0.000 C 
ATOM     18  N   UNL     1       0.520  10.160  22.149  0.00  0.00    +0.000 NA
ENDBRANCH  14  17
ENDBRANCH  10  11
ENDBRANCH   1  10
TORSDOF 6
ENDMDL
MODEL 5
REMARK VINA RESULT:      -5.6      2.657      3.721
REMARK  Name = 
REMARK  7 active torsions:
REMARK  status: ('A' for Active; 'I' for Inactive)
REMARK    1  A    between atoms: C_1  and  N_2
REMARK    2  A    between atoms: C_6  and  S_7
REMARK    3  A    between atoms: S_7  and  C_8
REMARK    4  A    between atoms: C_8  and  C_9
REMARK    5  A    between atoms: C_9  and  O_10
REMARK    6  A    between atoms: O_10  and  C_11
REMARK    7  A    between atoms: C_14  and  C_15
REMARK                            x       y       z     vdW  Elec       q    Type
REMARK                         _______ _______ _______ _____ _____    ______ ____
ROOT
ATOM      1  C   UNL     1       5.289   3.863  16.910  0.00  0.00    +0.000 C 
ENDROOT
BRANCH   1   2
ATOM      2  C   UNL     1       3.831   4.167  17.085  0.00  0.00    +0.000 C 
BRANCH   2   3
ATOM      3  S   UNL     1       2.729   2.706  17.584  0.00  0.00    +0.000 S 
BRANCH   3   9
ATOM      4  C   UNL     1       4.523   2.007  20.295  0.00  0.00    +0.000 C 
ATOM      5  N   UNL     1       3.142   2.428  20.409  0.00  0.00    +0.000 N 
ATOM      6  C   UNL     1       2.520   2.677  21.579  0.00  0.00    +0.000 A 
ATOM      7  C   UNL     1       1.263   3.133  21.281  0.00  0.00    +0.000 A 
ATOM      8  N   UNL     1       1.112   3.177  19.927  0.00  0.00    +0.000 NA
ATOM      9  C   UNL     1       2.291   2.770  19.408  0.00  0.00    +0.000 A 
ENDBRANCH   3   9
ENDBRANCH   2   3
ENDBRANCH   1   2
BRANCH   1  10
ATOM     10  O   UNL     1       6.083   4.283  17.958  0.00  0.00    +0.000 OA
BRANCH  10  11
ATOM     11  C   UNL     1       6.713   5.497  17.980  0.00  0.00    +0.000 A 
ATOM     12  C   UNL     1       7.728   5.766  18.928  0.00  0.00    +0.000 A 
ATOM     13  C   UNL     1       8.341   7.015  18.979  0.00  0.00    +0.000 A 
ATOM     14  C   UNL     1       7.981   8.031  18.082  0.00  0.00    +0.000 A 
ATOM     15  C   UNL     1       6.983   7.775  17.122  0.00  0.00    +0.000 A 
ATOM     16  C   UNL     1       6.365   6.516  17.063  0.00  0.00    +0.000 A 
BRANCH  14  17
ATOM     17  C   UNL     1       8.545   9.337  18.189  0.00  0.00    +0.000 C 
ATOM     18  N   UNL     1       9.058  10.368  18.289  0.00  0.00    +0.000 NA
ENDBRANCH  14  17
ENDBRANCH  10  11
ENDBRANCH   1  10
TORSDOF 6
ENDMDL
MODEL 6
REMARK VINA RESULT:      -5.6      0.658      1.025
REMARK  Name = 
REMARK  7 active torsions:
REMARK  status: ('A' for Active; 'I' for Inactive)
REMARK    1  A    between atoms: C_1  and  N_2
REMARK    2  A    between atoms: C_6  and  S_7
REMARK    3  A    between atoms: S_7  and  C_8
REMARK    4  A    between atoms: C_8  and  C_9
REMARK    5  A    between atoms: C_9  and  O_10
REMARK    6  A    between atoms: O_10  and  C_11
REMARK    7  A    between atoms: C_14  and  C_15
REMARK                            x       y       z     vdW  Elec       q    Type
REMARK                         _______ _______ _______ _____ _____    ______ ____
ROOT
ATOM      1  C   UNL     1       2.628   6.338  19.852  0.00  0.00    +0.000 C 
ENDROOT
BRANCH   1   2
ATOM      2  C   UNL     1       1.590   5.476  20.506  0.00  0.00    +0.000 C 
BRANCH   2   3
ATOM      3  S   UNL     1       2.234   3.931  21.401  0.00  0.00    +0.000 S 
BRANCH   3   9
ATOM      4  C   UNL     1       1.087   2.613  18.571  0.00  0.00    +0.000 C 
ATOM      5  N   UNL     1       2.394   2.252  19.081  0.00  0.00    +0.000 N 
ATOM      6  C   UNL     1       3.275   1.472  18.423  0.00  0.00    +0.000 A 
ATOM      7  C   UNL     1       4.420   1.430  19.174  0.00  0.00    +0.000 A 
ATOM      8  N   UNL     1       4.251   2.193  20.289  0.00  0.00    +0.000 NA
ATOM      9  C   UNL     1       3.010   2.717  20.198  0.00  0.00    +0.000 A 
ENDBRANCH   3   9
ENDBRANCH   2   3
ENDBRANCH   1   2
BRANCH   1  10
ATOM     10  O   UNL     1       3.881   5.763  19.788  0.00  0.00    +0.000 OA
BRANCH  10  11
ATOM     11  C   UNL     1       4.603   5.668  18.630  0.00  0.00    +0.000 A 
ATOM     12  C   UNL     1       4.227   6.406  17.483  0.00  0.00    +0.000 A 
ATOM     13  C   UNL     1       4.935   6.279  16.291  0.00  0.00    +0.000 A 
ATOM     14  C   UNL     1       6.048   5.430  16.202  0.00  0.00    +0.000 A 
ATOM     15  C   UNL     1       6.445   4.700  17.339  0.00  0.00    +0.000 A 
ATOM     16  C   UNL     1       5.738   4.828  18.545  0.00  0.00    +0.000 A 
BRANCH  14  17
ATOM     17  C   UNL     1       6.721   5.232  14.960  0.00  0.00    +0.000 C 
ATOM     18  N   UNL     1       7.319   5.098  13.979  0.00  0.00    +0.000 NA
ENDBRANCH  14  17
ENDBRANCH  10  11
ENDBRANCH   1  10
TORSDOF 6
ENDMDL
MODEL 7
REMARK VINA RESULT:      -5.6      3.606      5.727
REMARK  Name = 
REMARK  7 active torsions:
REMARK  status: ('A' for Active; 'I' for Inactive)
REMARK    1  A    between atoms: C_1  and  N_2
REMARK    2  A    between atoms: C_6  and  S_7
REMARK    3  A    between atoms: S_7  and  C_8
REMARK    4  A    between atoms: C_8  and  C_9
REMARK    5  A    between atoms: C_9  and  O_10
REMARK    6  A    between atoms: O_10  and  C_11
REMARK    7  A    between atoms: C_14  and  C_15
REMARK                            x       y       z     vdW  Elec       q    Type
REMARK                         _______ _______ _______ _____ _____    ______ ____
ROOT
ATOM      1  C   UNL     1       2.333   4.938  20.116  0.00  0.00    +0.000 C 
ENDROOT
BRANCH   1   2
ATOM      2  C   UNL     1       2.831   3.715  19.405  0.00  0.00    +0.000 C 
BRANCH   2   3
ATOM      3  S   UNL     1       3.571   3.996  17.680  0.00  0.00    +0.000 S 
BRANCH   3   9
ATOM      4  C   UNL     1       5.938   3.917  15.347  0.00  0.00    +0.000 C 
ATOM      5  N   UNL     1       6.261   4.249  16.719  0.00  0.00    +0.000 N 
ATOM      6  C   UNL     1       7.479   4.652  17.135  0.00  0.00    +0.000 A 
ATOM      7  C   UNL     1       7.373   4.956  18.467  0.00  0.00    +0.000 A 
ATOM      8  N   UNL     1       6.088   4.751  18.871  0.00  0.00    +0.000 NA
ATOM      9  C   UNL     1       5.412   4.347  17.774  0.00  0.00    +0.000 A 
ENDBRANCH   3   9
ENDBRANCH   2   3
ENDBRANCH   1   2
BRANCH   1  10
ATOM     10  O   UNL     1       2.981   6.102  19.757  0.00  0.00    +0.000 OA
BRANCH  10  11
ATOM     11  C   UNL     1       2.327   7.281  19.523  0.00  0.00    +0.000 A 
ATOM     12  C   UNL     1       1.661   7.957  20.572  0.00  0.00    +0.000 A 
ATOM     13  C   UNL     1       0.960   9.134  20.329  0.00  0.00    +0.000 A 
ATOM     14  C   UNL     1       0.909   9.689  19.041  0.00  0.00    +0.000 A 
ATOM     15  C   UNL     1       1.579   9.036  17.988  0.00  0.00    +0.000 A 
ATOM     16  C   UNL     1       2.292   7.852  18.229  0.00  0.00    +0.000 A 
BRANCH  14  17
ATOM     17  C   UNL     1       0.120  10.846  18.772  0.00  0.00    +0.000 C 
ATOM     18  N   UNL     1      -0.493  11.787  18.496  0.00  0.00    +0.000 NA
ENDBRANCH  14  17
ENDBRANCH  10  11
ENDBRANCH   1  10
TORSDOF 6
ENDMDL
MODEL 8
REMARK VINA RESULT:      -5.5      5.483      8.550
REMARK  Name = 
REMARK  7 active torsions:
REMARK  status: ('A' for Active; 'I' for Inactive)
REMARK    1  A    between atoms: C_1  and  N_2
REMARK    2  A    between atoms: C_6  and  S_7
REMARK    3  A    between atoms: S_7  and  C_8
REMARK    4  A    between atoms: C_8  and  C_9
REMARK    5  A    between atoms: C_9  and  O_10
REMARK    6  A    between atoms: O_10  and  C_11
REMARK    7  A    between atoms: C_14  and  C_15
REMARK                            x       y       z     vdW  Elec       q    Type
REMARK                         _______ _______ _______ _____ _____    ______ ____
ROOT
ATOM      1  C   UNL     1       8.073   7.720  18.324  0.00  0.00    +0.000 C 
ENDROOT
BRANCH   1   2
ATOM      2  C   UNL     1       8.207   9.166  17.951  0.00  0.00    +0.000 C 
BRANCH   2   3
ATOM      3  S   UNL     1       9.208  10.246  19.148  0.00  0.00    +0.000 S 
BRANCH   3   9
ATOM      4  C   UNL     1       8.244  13.024  17.595  0.00  0.00    +0.000 C 
ATOM      5  N   UNL     1       9.640  12.636  17.622  0.00  0.00    +0.000 N 
ATOM      6  C   UNL     1      10.646  13.394  17.142  0.00  0.00    +0.000 A 
ATOM      7  C   UNL     1      11.817  12.740  17.424  0.00  0.00    +0.000 A 
ATOM      8  N   UNL     1      11.534  11.585  18.089  0.00  0.00    +0.000 NA
ATOM      9  C   UNL     1      10.191  11.555  18.230  0.00  0.00    +0.000 A 
ENDBRANCH   3   9
ENDBRANCH   2   3
ENDBRANCH   1   2
BRANCH   1  10
ATOM     10  O   UNL     1       7.761   6.890  17.265  0.00  0.00    +0.000 OA
BRANCH  10  11
ATOM     11  C   UNL     1       6.688   6.041  17.270  0.00  0.00    +0.000 A 
ATOM     12  C   UNL     1       6.007   5.733  16.070  0.00  0.00    +0.000 A 
ATOM     13  C   UNL     1       4.890   4.903  16.078  0.00  0.00    +0.000 A 
ATOM     14  C   UNL     1       4.421   4.338  17.274  0.00  0.00    +0.000 A 
ATOM     15  C   UNL     1       5.098   4.623  18.476  0.00  0.00    +0.000 A 
ATOM     16  C   UNL     1       6.228   5.456  18.472  0.00  0.00    +0.000 A 
BRANCH  14  17
ATOM     17  C   UNL     1       3.227   3.559  17.299  0.00  0.00    +0.000 C 
ATOM     18  N   UNL     1       2.276   2.902  17.262  0.00  0.00    +0.000 NA
ENDBRANCH  14  17
ENDBRANCH  10  11
ENDBRANCH   1  10
TORSDOF 6
ENDMDL
MODEL 9
REMARK VINA RESULT:      -5.5      3.294      5.385
REMARK  Name = 
REMARK  7 active torsions:
REMARK  status: ('A' for Active; 'I' for Inactive)
REMARK    1  A    between atoms: C_1  and  N_2
REMARK    2  A    between atoms: C_6  and  S_7
REMARK    3  A    between atoms: S_7  and  C_8
REMARK    4  A    between atoms: C_8  and  C_9
REMARK    5  A    between atoms: C_9  and  O_10
REMARK    6  A    between atoms: O_10  and  C_11
REMARK    7  A    between atoms: C_14  and  C_15
REMARK                            x       y       z     vdW  Elec       q    Type
REMARK                         _______ _______ _______ _____ _____    ______ ____
ROOT
ATOM      1  C   UNL     1       4.440   5.765  18.503  0.00  0.00    +0.000 C 
ENDROOT
BRANCH   1   2
ATOM      2  C   UNL     1       4.807   4.495  17.795  0.00  0.00    +0.000 C 
BRANCH   2   3
ATOM      3  S   UNL     1       4.430   2.884  18.724  0.00  0.00    +0.000 S 
BRANCH   3   9
ATOM      4  C   UNL     1       1.309   3.821  18.063  0.00  0.00    +0.000 C 
ATOM      5  N   UNL     1       1.713   3.491  19.415  0.00  0.00    +0.000 N 
ATOM      6  C   UNL     1       0.869   3.424  20.463  0.00  0.00    +0.000 A 
ATOM      7  C   UNL     1       1.597   3.001  21.544  0.00  0.00    +0.000 A 
ATOM      8  N   UNL     1       2.888   2.796  21.161  0.00  0.00    +0.000 NA
ATOM      9  C   UNL     1       2.933   3.071  19.840  0.00  0.00    +0.000 A 
ENDBRANCH   3   9
ENDBRANCH   2   3
ENDBRANCH   1   2
BRANCH   1  10
ATOM     10  O   UNL     1       3.496   6.526  17.844  0.00  0.00    +0.000 OA
BRANCH  10  11
ATOM     11  C   UNL     1       2.656   7.396  18.484  0.00  0.00    +0.000 A 
ATOM     12  C   UNL     1       2.151   8.535  17.814  0.00  0.00    +0.000 A 
ATOM     13  C   UNL     1       1.330   9.443  18.476  0.00  0.00    +0.000 A 
ATOM     14  C   UNL     1       0.969   9.244  19.817  0.00  0.00    +0.000 A 
ATOM     15  C   UNL     1       1.452   8.106  20.494  0.00  0.00    +0.000 A 
ATOM     16  C   UNL     1       2.276   7.185  19.830  0.00  0.00    +0.000 A 
BRANCH  14  17
ATOM     17  C   UNL     1       0.200  10.216  20.522  0.00  0.00    +0.000 C 
ATOM     18  N   UNL     1      -0.413  11.046  21.045  0.00  0.00    +0.000 NA
ENDBRANCH  14  17
ENDBRANCH  10  11
ENDBRANCH   1  10
TORSDOF 6
ENDMDL
