MODEL 1
REMARK VINA RESULT:      -8.3      0.000      0.000
REMARK  Name = 
REMARK  4 active torsions:
REMARK  status: ('A' for Active; 'I' for Inactive)
REMARK    1  A    between atoms: O_1  and  C_2
REMARK    2  A    between atoms: C_2  and  C_3
REMARK    3  A    between atoms: C_2  and  C_18
REMARK    4  A    between atoms: C_5  and  C_6
REMARK                            x       y       z     vdW  Elec       q    Type
REMARK                         _______ _______ _______ _____ _____    ______ ____
ROOT
ATOM      1  C   UNL     1       3.565   5.346  18.189  0.00  0.00    +0.000 A 
ATOM      2  C   UNL     1       3.414   4.229  19.030  0.00  0.00    +0.000 A 
ATOM      3  C   UNL     1       2.632   4.316  20.175  0.00  0.00    +0.000 A 
ATOM      4  N   UNL     1       1.995   5.470  20.502  0.00  0.00    +0.000 NA
ATOM      5  C   UNL     1       2.124   6.563  19.722  0.00  0.00    +0.000 A 
ATOM      6  C   UNL     1       1.472   7.746  20.075  0.00  0.00    +0.000 A 
ATOM      7  F   UNL     1       0.710   7.778  21.182  0.00  0.00    +0.000 F 
ATOM      8  C   UNL     1       1.568   8.915  19.327  0.00  0.00    +0.000 A 
ATOM      9  C   UNL     1       2.350   8.930  18.185  0.00  0.00    +0.000 A 
ATOM     10  C   UNL     1       3.017   7.766  17.800  0.00  0.00    +0.000 A 
ATOM     11  C   UNL     1       2.917   6.562  18.547  0.00  0.00    +0.000 A 
ENDROOT
BRANCH   3  12
ATOM     12  C   UNL     1       2.503   3.112  21.102  0.00  0.00    +0.000 C 
ATOM     13  F   UNL     1       1.503   2.256  20.734  0.00  0.00    +0.000 F 
ATOM     14  F   UNL     1       3.632   2.349  21.146  0.00  0.00    +0.000 F 
ATOM     15  F   UNL     1       2.224   3.455  22.392  0.00  0.00    +0.000 F 
ENDBRANCH   3  12
BRANCH   1  16
ATOM     16  C   UNL     1       4.460   5.227  16.957  0.00  0.00    +0.000 C 
BRANCH  16  17
ATOM     17  C   UNL     1       5.939   5.659  17.239  0.00  0.00    +0.000 C 
ATOM     18  C   UNL     1       6.317   5.377  18.705  0.00  0.00    +0.000 C 
ATOM     19  C   UNL     1       7.782   5.722  18.970  0.00  0.00    +0.000 C 
ATOM     20  C   UNL     1       8.083   7.154  18.545  0.00  0.00    +0.000 C 
ATOM     21  C   UNL     1       7.614   7.423  17.118  0.00  0.00    +0.000 C 
ATOM     22  N   UNL     1       6.204   7.084  16.940  0.00  0.00    +0.000 NA
ATOM     23  H   UNL     1       5.927   7.292  15.982  0.00  0.00    +0.000 HD
ENDBRANCH  16  17
BRANCH  16  24
ATOM     24  O   UNL     1       4.406   3.909  16.399  0.00  0.00    +0.000 OA
ATOM     25  H   UNL     1       3.717   3.413  16.871  0.00  0.00    +0.000 HD
ENDBRANCH  16  24
ENDBRANCH   1  16
TORSDOF 4
ENDMDL
MODEL 2
REMARK VINA RESULT:      -8.2      2.348      4.610
REMARK  Name = 
REMARK  4 active torsions:
REMARK  status: ('A' for Active; 'I' for Inactive)
REMARK    1  A    between atoms: O_1  and  C_2
REMARK    2  A    between atoms: C_2  and  C_3
REMARK    3  A    between atoms: C_2  and  C_18
REMARK    4  A    between atoms: C_5  and  C_6
REMARK                            x       y       z     vdW  Elec       q    Type
REMARK                         _______ _______ _______ _____ _____    ______ ____
ROOT
ATOM      1  C   UNL     1       4.784   5.677  18.269  0.00  0.00    +0.000 A 
ATOM      2  C   UNL     1       4.110   6.888  18.025  0.00  0.00    +0.000 A 
ATOM      3  C   UNL     1       2.842   7.099  18.553  0.00  0.00    +0.000 A 
ATOM      4  N   UNL     1       2.232   6.155  19.315  0.00  0.00    +0.000 NA
ATOM      5  C   UNL     1       2.848   4.980  19.562  0.00  0.00    +0.000 A 
ATOM      6  C   UNL     1       2.206   4.013  20.337  0.00  0.00    +0.000 A 
ATOM      7  F   UNL     1       0.987   4.270  20.844  0.00  0.00    +0.000 F 
ATOM      8  C   UNL     1       2.772   2.774  20.625  0.00  0.00    +0.000 A 
ATOM      9  C   UNL     1       4.022   2.464  20.116  0.00  0.00    +0.000 A 
ATOM     10  C   UNL     1       4.694   3.406  19.336  0.00  0.00    +0.000 A 
ATOM     11  C   UNL     1       4.133   4.678  19.047  0.00  0.00    +0.000 A 
ENDROOT
BRANCH   3  12
ATOM     12  C   UNL     1       2.100   8.398  18.254  0.00  0.00    +0.000 C 
ATOM     13  F   UNL     1       1.100   8.246  17.335  0.00  0.00    +0.000 F 
ATOM     14  F   UNL     1       1.498   8.934  19.355  0.00  0.00    +0.000 F 
ATOM     15  F   UNL     1       2.907   9.374  17.748  0.00  0.00    +0.000 F 
ENDBRANCH   3  12
BRANCH   1  16
ATOM     16  C   UNL     1       6.161   5.463  17.646  0.00  0.00    +0.000 C 
BRANCH  16  17
ATOM     17  C   UNL     1       6.106   5.331  16.086  0.00  0.00    +0.000 C 
ATOM     18  C   UNL     1       5.280   4.098  15.673  0.00  0.00    +0.000 C 
ATOM     19  C   UNL     1       5.155   4.006  14.153  0.00  0.00    +0.000 C 
ATOM     20  C   UNL     1       6.528   4.048  13.496  0.00  0.00    +0.000 C 
ATOM     21  C   UNL     1       7.351   5.232  13.994  0.00  0.00    +0.000 C 
ATOM     22  N   UNL     1       7.442   5.250  15.453  0.00  0.00    +0.000 NA
ATOM     23  H   UNL     1       8.009   6.044  15.744  0.00  0.00    +0.000 HD
ENDBRANCH  16  17
BRANCH  16  24
ATOM     24  O   UNL     1       7.079   6.487  18.044  0.00  0.00    +0.000 OA
ATOM     25  H   UNL     1       7.708   6.097  18.673  0.00  0.00    +0.000 HD
ENDBRANCH  16  24
ENDBRANCH   1  16
TORSDOF 4
ENDMDL
MODEL 3
REMARK VINA RESULT:      -8.1      2.631      4.794
REMARK  Name = 
REMARK  4 active torsions:
REMARK  status: ('A' for Active; 'I' for Inactive)
REMARK    1  A    between atoms: O_1  and  C_2
REMARK    2  A    between atoms: C_2  and  C_3
REMARK    3  A    between atoms: C_2  and  C_18
REMARK    4  A    between atoms: C_5  and  C_6
REMARK                            x       y       z     vdW  Elec       q    Type
REMARK                         _______ _______ _______ _____ _____    ______ ____
ROOT
ATOM      1  C   UNL     1       4.706   5.088  17.689  0.00  0.00    +0.000 A 
ATOM      2  C   UNL     1       4.206   6.401  17.747  0.00  0.00    +0.000 A 
ATOM      3  C   UNL     1       2.920   6.639  18.217  0.00  0.00    +0.000 A 
ATOM      4  N   UNL     1       2.126   5.620  18.633  0.00  0.00    +0.000 NA
ATOM      5  C   UNL     1       2.571   4.347  18.584  0.00  0.00    +0.000 A 
ATOM      6  C   UNL     1       1.740   3.307  19.004  0.00  0.00    +0.000 A 
ATOM      7  F   UNL     1       0.510   3.587  19.470  0.00  0.00    +0.000 F 
ATOM      8  C   UNL     1       2.125   1.970  18.972  0.00  0.00    +0.000 A 
ATOM      9  C   UNL     1       3.380   1.636  18.492  0.00  0.00    +0.000 A 
ATOM     10  C   UNL     1       4.238   2.649  18.062  0.00  0.00    +0.000 A 
ATOM     11  C   UNL     1       3.863   4.018  18.102  0.00  0.00    +0.000 A 
ENDROOT
BRANCH   3  12
ATOM     12  C   UNL     1       2.370   8.062  18.242  0.00  0.00    +0.000 C 
ATOM     13  F   UNL     1       3.291   9.000  17.865  0.00  0.00    +0.000 F 
ATOM     14  F   UNL     1       1.311   8.239  17.401  0.00  0.00    +0.000 F 
ATOM     15  F   UNL     1       1.946   8.452  19.477  0.00  0.00    +0.000 F 
ENDBRANCH   3  12
BRANCH   1  16
ATOM     16  C   UNL     1       6.111   4.857  17.136  0.00  0.00    +0.000 C 
BRANCH  16  17
ATOM     17  C   UNL     1       6.170   4.960  15.574  0.00  0.00    +0.000 C 
ATOM     18  C   UNL     1       5.572   3.698  14.923  0.00  0.00    +0.000 C 
ATOM     19  C   UNL     1       5.554   3.822  13.400  0.00  0.00    +0.000 C 
ATOM     20  C   UNL     1       6.941   4.163  12.871  0.00  0.00    +0.000 C 
ATOM     21  C   UNL     1       7.538   5.364  13.600  0.00  0.00    +0.000 C 
ATOM     22  N   UNL     1       7.537   5.171  15.048  0.00  0.00    +0.000 NA
ATOM     23  H   UNL     1       7.956   5.985  15.495  0.00  0.00    +0.000 HD
ENDBRANCH  16  17
BRANCH  16  24
ATOM     24  O   UNL     1       7.062   5.736  17.746  0.00  0.00    +0.000 OA
ATOM     25  H   UNL     1       7.897   5.658  17.257  0.00  0.00    +0.000 HD
ENDBRANCH  16  24
ENDBRANCH   1  16
TORSDOF 4
ENDMDL
MODEL 4
REMARK VINA RESULT:      -7.9      2.896      5.640
REMARK  Name = 
REMARK  4 active torsions:
REMARK  status: ('A' for Active; 'I' for Inactive)
REMARK    1  A    between atoms: O_1  and  C_2
REMARK    2  A    between atoms: C_2  and  C_3
REMARK    3  A    between atoms: C_2  and  C_18
REMARK    4  A    between atoms: C_5  and  C_6
REMARK                            x       y       z     vdW  Elec       q    Type
REMARK                         _______ _______ _______ _____ _____    ______ ____
ROOT
ATOM      1  C   UNL     1       2.996   5.159  17.584  0.00  0.00    +0.000 A 
ATOM      2  C   UNL     1       2.237   6.302  17.896  0.00  0.00    +0.000 A 
ATOM      3  C   UNL     1       2.845   7.550  17.949  0.00  0.00    +0.000 A 
ATOM      4  N   UNL     1       4.171   7.696  17.696  0.00  0.00    +0.000 NA
ATOM      5  C   UNL     1       4.929   6.619  17.401  0.00  0.00    +0.000 A 
ATOM      6  C   UNL     1       6.294   6.781  17.155  0.00  0.00    +0.000 A 
ATOM      7  F   UNL     1       6.835   8.011  17.198  0.00  0.00    +0.000 F 
ATOM      8  C   UNL     1       7.141   5.718  16.856  0.00  0.00    +0.000 A 
ATOM      9  C   UNL     1       6.627   4.432  16.810  0.00  0.00    +0.000 A 
ATOM     10  C   UNL     1       5.268   4.232  17.053  0.00  0.00    +0.000 A 
ATOM     11  C   UNL     1       4.391   5.309  17.345  0.00  0.00    +0.000 A 
ENDROOT
BRANCH   3  12
ATOM     12  C   UNL     1       2.026   8.781  18.324  0.00  0.00    +0.000 C 
ATOM     13  F   UNL     1       0.842   8.865  17.644  0.00  0.00    +0.000 F 
ATOM     14  F   UNL     1       1.684   8.812  19.645  0.00  0.00    +0.000 F 
ATOM     15  F   UNL     1       2.671   9.954  18.069  0.00  0.00    +0.000 F 
ENDBRANCH   3  12
BRANCH   1  16
ATOM     16  C   UNL     1       2.304   3.797  17.568  0.00  0.00    +0.000 C 
BRANCH  16  17
ATOM     17  C   UNL     1       2.299   3.105  18.974  0.00  0.00    +0.000 C 
ATOM     18  C   UNL     1       1.093   3.575  19.807  0.00  0.00    +0.000 C 
ATOM     19  C   UNL     1       1.036   2.846  21.149  0.00  0.00    +0.000 C 
ATOM     20  C   UNL     1       2.359   2.982  21.892  0.00  0.00    +0.000 C 
ATOM     21  C   UNL     1       3.539   2.592  21.007  0.00  0.00    +0.000 C 
ATOM     22  N   UNL     1       3.539   3.336  19.749  0.00  0.00    +0.000 NA
ATOM     23  H   UNL     1       4.348   3.059  19.196  0.00  0.00    +0.000 HD
ENDBRANCH  16  17
BRANCH  16  24
ATOM     24  O   UNL     1       0.978   3.892  17.037  0.00  0.00    +0.000 OA
ATOM     25  H   UNL     1       0.920   3.299  16.270  0.00  0.00    +0.000 HD
ENDBRANCH  16  24
ENDBRANCH   1  16
TORSDOF 4
ENDMDL
MODEL 5
REMARK VINA RESULT:      -7.9      2.872      5.492
REMARK  Name = 
REMARK  4 active torsions:
REMARK  status: ('A' for Active; 'I' for Inactive)
REMARK    1  A    between atoms: O_1  and  C_2
REMARK    2  A    between atoms: C_2  and  C_3
REMARK    3  A    between atoms: C_2  and  C_18
REMARK    4  A    between atoms: C_5  and  C_6
REMARK                            x       y       z     vdW  Elec       q    Type
REMARK                         _______ _______ _______ _____ _____    ______ ____
ROOT
ATOM      1  C   UNL     1       3.554   6.019  18.204  0.00  0.00    +0.000 A 
ATOM      2  C   UNL     1       4.924   6.295  18.358  0.00  0.00    +0.000 A 
ATOM      3  C   UNL     1       5.796   5.293  18.766  0.00  0.00    +0.000 A 
ATOM      4  N   UNL     1       5.352   4.035  19.016  0.00  0.00    +0.000 NA
ATOM      5  C   UNL     1       4.042   3.738  18.885  0.00  0.00    +0.000 A 
ATOM      6  C   UNL     1       3.596   2.444  19.155  0.00  0.00    +0.000 A 
ATOM      7  F   UNL     1       4.480   1.501  19.528  0.00  0.00    +0.000 F 
ATOM      8  C   UNL     1       2.260   2.066  19.054  0.00  0.00    +0.000 A 
ATOM      9  C   UNL     1       1.315   3.007  18.681  0.00  0.00    +0.000 A 
ATOM     10  C   UNL     1       1.723   4.312  18.404  0.00  0.00    +0.000 A 
ATOM     11  C   UNL     1       3.085   4.706  18.491  0.00  0.00    +0.000 A 
ENDROOT
BRANCH   3  12
ATOM     12  C   UNL     1       7.275   5.608  18.968  0.00  0.00    +0.000 C 
ATOM     13  F   UNL     1       8.103   4.723  18.334  0.00  0.00    +0.000 F 
ATOM     14  F   UNL     1       7.629   6.836  18.492  0.00  0.00    +0.000 F 
ATOM     15  F   UNL     1       7.657   5.581  20.277  0.00  0.00    +0.000 F 
ENDBRANCH   3  12
BRANCH   1  16
ATOM     16  C   UNL     1       2.616   7.151  17.787  0.00  0.00    +0.000 C 
BRANCH  16  17
ATOM     17  C   UNL     1       2.252   8.103  18.977  0.00  0.00    +0.000 C 
ATOM     18  C   UNL     1       1.738   7.294  20.183  0.00  0.00    +0.000 C 
ATOM     19  C   UNL     1       1.454   8.206  21.375  0.00  0.00    +0.000 C 
ATOM     20  C   UNL     1       0.515   9.338  20.976  0.00  0.00    +0.000 C 
ATOM     21  C   UNL     1       1.010  10.060  19.726  0.00  0.00    +0.000 C 
ATOM     22  N   UNL     1       1.247   9.131  18.623  0.00  0.00    +0.000 NA
ATOM     23  H   UNL     1       1.560   9.652  17.807  0.00  0.00    +0.000 HD
ENDBRANCH  16  17
BRANCH  16  24
ATOM     24  O   UNL     1       3.149   7.889  16.682  0.00  0.00    +0.000 OA
ATOM     25  H   UNL     1       4.083   7.644  16.580  0.00  0.00    +0.000 HD
ENDBRANCH  16  24
ENDBRANCH   1  16
TORSDOF 4
ENDMDL
MODEL 6
REMARK VINA RESULT:      -7.8      2.784      5.574
REMARK  Name = 
REMARK  4 active torsions:
REMARK  status: ('A' for Active; 'I' for Inactive)
REMARK    1  A    between atoms: O_1  and  C_2
REMARK    2  A    between atoms: C_2  and  C_3
REMARK    3  A    between atoms: C_2  and  C_18
REMARK    4  A    between atoms: C_5  and  C_6
REMARK                            x       y       z     vdW  Elec       q    Type
REMARK                         _______ _______ _______ _____ _____    ______ ____
ROOT
ATOM      1  C   UNL     1       3.653   5.995  18.061  0.00  0.00    +0.000 A 
ATOM      2  C   UNL     1       5.027   6.250  18.224  0.00  0.00    +0.000 A 
ATOM      3  C   UNL     1       5.873   5.248  18.684  0.00  0.00    +0.000 A 
ATOM      4  N   UNL     1       5.400   4.009  18.976  0.00  0.00    +0.000 NA
ATOM      5  C   UNL     1       4.086   3.734  18.838  0.00  0.00    +0.000 A 
ATOM      6  C   UNL     1       3.610   2.460  19.152  0.00  0.00    +0.000 A 
ATOM      7  F   UNL     1       4.470   1.515  19.575  0.00  0.00    +0.000 F 
ATOM      8  C   UNL     1       2.269   2.105  19.046  0.00  0.00    +0.000 A 
ATOM      9  C   UNL     1       1.348   3.048  18.624  0.00  0.00    +0.000 A 
ATOM     10  C   UNL     1       1.786   4.333  18.301  0.00  0.00    +0.000 A 
ATOM     11  C   UNL     1       3.154   4.704  18.392  0.00  0.00    +0.000 A 
ENDROOT
BRANCH   3  12
ATOM     12  C   UNL     1       7.355   5.540  18.895  0.00  0.00    +0.000 C 
ATOM     13  F   UNL     1       7.749   6.734  18.355  0.00  0.00    +0.000 F 
ATOM     14  F   UNL     1       7.703   5.609  20.212  0.00  0.00    +0.000 F 
ATOM     15  F   UNL     1       8.173   4.606  18.333  0.00  0.00    +0.000 F 
ENDBRANCH   3  12
BRANCH   1  16
ATOM     16  C   UNL     1       2.745   7.128  17.588  0.00  0.00    +0.000 C 
BRANCH  16  17
ATOM     17  C   UNL     1       1.809   7.668  18.723  0.00  0.00    +0.000 C 
ATOM     18  C   UNL     1       1.542   9.173  18.537  0.00  0.00    +0.000 C 
ATOM     19  C   UNL     1       0.568   9.692  19.594  0.00  0.00    +0.000 C 
ATOM     20  C   UNL     1       1.058   9.345  20.994  0.00  0.00    +0.000 C 
ATOM     21  C   UNL     1       1.397   7.862  21.115  0.00  0.00    +0.000 C 
ATOM     22  N   UNL     1       2.342   7.438  20.085  0.00  0.00    +0.000 NA
ATOM     23  H   UNL     1       2.553   6.450  20.210  0.00  0.00    +0.000 HD
ENDBRANCH  16  17
BRANCH  16  24
ATOM     24  O   UNL     1       3.501   8.190  16.995  0.00  0.00    +0.000 OA
ATOM     25  H   UNL     1       4.397   8.164  17.369  0.00  0.00    +0.000 HD
ENDBRANCH  16  24
ENDBRANCH   1  16
TORSDOF 4
ENDMDL
MODEL 7
REMARK VINA RESULT:      -7.6      1.740      4.059
REMARK  Name = 
REMARK  4 active torsions:
REMARK  status: ('A' for Active; 'I' for Inactive)
REMARK    1  A    between atoms: O_1  and  C_2
REMARK    2  A    between atoms: C_2  and  C_3
REMARK    3  A    between atoms: C_2  and  C_18
REMARK    4  A    between atoms: C_5  and  C_6
REMARK                            x       y       z     vdW  Elec       q    Type
REMARK                         _______ _______ _______ _____ _____    ______ ____
ROOT
ATOM      1  C   UNL     1       4.131   5.103  17.341  0.00  0.00    +0.000 A 
ATOM      2  C   UNL     1       3.696   6.432  17.492  0.00  0.00    +0.000 A 
ATOM      3  C   UNL     1       2.560   6.714  18.241  0.00  0.00    +0.000 A 
ATOM      4  N   UNL     1       1.854   5.724  18.844  0.00  0.00    +0.000 NA
ATOM      5  C   UNL     1       2.239   4.437  18.714  0.00  0.00    +0.000 A 
ATOM      6  C   UNL     1       1.498   3.428  19.330  0.00  0.00    +0.000 A 
ATOM      7  F   UNL     1       0.417   3.751  20.062  0.00  0.00    +0.000 F 
ATOM      8  C   UNL     1       1.827   2.079  19.231  0.00  0.00    +0.000 A 
ATOM      9  C   UNL     1       2.927   1.701  18.480  0.00  0.00    +0.000 A 
ATOM     10  C   UNL     1       3.692   2.683  17.849  0.00  0.00    +0.000 A 
ATOM     11  C   UNL     1       3.375   4.063  17.953  0.00  0.00    +0.000 A 
ENDROOT
BRANCH   3  12
ATOM     12  C   UNL     1       2.072   8.154  18.370  0.00  0.00    +0.000 C 
ATOM     13  F   UNL     1       3.037   9.076  18.073  0.00  0.00    +0.000 F 
ATOM     14  F   UNL     1       1.032   8.441  17.536  0.00  0.00    +0.000 F 
ATOM     15  F   UNL     1       1.651   8.467  19.628  0.00  0.00    +0.000 F 
ENDBRANCH   3  12
BRANCH   1  16
ATOM     16  C   UNL     1       5.363   4.823  16.483  0.00  0.00    +0.000 C 
BRANCH  16  17
ATOM     17  C   UNL     1       6.646   5.551  17.011  0.00  0.00    +0.000 C 
ATOM     18  C   UNL     1       6.868   5.247  18.504  0.00  0.00    +0.000 C 
ATOM     19  C   UNL     1       8.159   5.889  19.009  0.00  0.00    +0.000 C 
ATOM     20  C   UNL     1       8.176   7.380  18.698  0.00  0.00    +0.000 C 
ATOM     21  C   UNL     1       7.865   7.649  17.229  0.00  0.00    +0.000 C 
ATOM     22  N   UNL     1       6.612   7.019  16.818  0.00  0.00    +0.000 NA
ATOM     23  H   UNL     1       6.434   7.234  15.839  0.00  0.00    +0.000 HD
ENDBRANCH  16  17
BRANCH  16  24
ATOM     24  O   UNL     1       5.592   3.417  16.341  0.00  0.00    +0.000 OA
ATOM     25  H   UNL     1       6.473   3.295  15.951  0.00  0.00    +0.000 HD
ENDBRANCH  16  24
ENDBRANCH   1  16
TORSDOF 4
ENDMDL
MODEL 8
REMARK VINA RESULT:      -7.4      3.517      6.352
REMARK  Name = 
REMARK  4 active torsions:
REMARK  status: ('A' for Active; 'I' for Inactive)
REMARK    1  A    between atoms: O_1  and  C_2
REMARK    2  A    between atoms: C_2  and  C_3
REMARK    3  A    between atoms: C_2  and  C_18
REMARK    4  A    between atoms: C_5  and  C_6
REMARK                            x       y       z     vdW  Elec       q    Type
REMARK                         _______ _______ _______ _____ _____    ______ ____
ROOT
ATOM      1  C   UNL     1       4.992   4.037  17.092  0.00  0.00    +0.000 A 
ATOM      2  C   UNL     1       5.762   4.586  18.133  0.00  0.00    +0.000 A 
ATOM      3  C   UNL     1       6.975   5.204  17.854  0.00  0.00    +0.000 A 
ATOM      4  N   UNL     1       7.437   5.298  16.581  0.00  0.00    +0.000 NA
ATOM      5  C   UNL     1       6.727   4.776  15.560  0.00  0.00    +0.000 A 
ATOM      6  C   UNL     1       7.219   4.871  14.257  0.00  0.00    +0.000 A 
ATOM      7  F   UNL     1       8.388   5.495  14.032  0.00  0.00    +0.000 F 
ATOM      8  C   UNL     1       6.549   4.346  13.155  0.00  0.00    +0.000 A 
ATOM      9  C   UNL     1       5.346   3.687  13.341  0.00  0.00    +0.000 A 
ATOM     10  C   UNL     1       4.823   3.573  14.630  0.00  0.00    +0.000 A 
ATOM     11  C   UNL     1       5.490   4.114  15.761  0.00  0.00    +0.000 A 
ENDROOT
BRANCH   3  12
ATOM     12  C   UNL     1       7.824   5.764  18.991  0.00  0.00    +0.000 C 
ATOM     13  F   UNL     1       7.129   5.902  20.161  0.00  0.00    +0.000 F 
ATOM     14  F   UNL     1       8.892   4.973  19.299  0.00  0.00    +0.000 F 
ATOM     15  F   UNL     1       8.329   7.001  18.726  0.00  0.00    +0.000 F 
ENDBRANCH   3  12
BRANCH   1  16
ATOM     16  C   UNL     1       3.680   3.334  17.437  0.00  0.00    +0.000 C 
BRANCH  16  17
ATOM     17  C   UNL     1       3.209   3.619  18.904  0.00  0.00    +0.000 C 
ATOM     18  C   UNL     1       3.204   2.321  19.734  0.00  0.00    +0.000 C 
ATOM     19  C   UNL     1       2.821   2.601  21.186  0.00  0.00    +0.000 C 
ATOM     20  C   UNL     1       1.501   3.358  21.259  0.00  0.00    +0.000 C 
ATOM     21  C   UNL     1       1.511   4.588  20.357  0.00  0.00    +0.000 C 
ATOM     22  N   UNL     1       1.871   4.246  18.982  0.00  0.00    +0.000 NA
ATOM     23  H   UNL     1       1.851   5.089  18.411  0.00  0.00    +0.000 HD
ENDBRANCH  16  17
BRANCH  16  24
ATOM     24  O   UNL     1       2.652   3.657  16.494  0.00  0.00    +0.000 OA
ATOM     25  H   UNL     1       3.053   4.181  15.782  0.00  0.00    +0.000 HD
ENDBRANCH  16  24
ENDBRANCH   1  16
TORSDOF 4
ENDMDL
MODEL 9
REMARK VINA RESULT:      -7.4      6.260      9.176
REMARK  Name = 
REMARK  4 active torsions:
REMARK  status: ('A' for Active; 'I' for Inactive)
REMARK    1  A    between atoms: O_1  and  C_2
REMARK    2  A    between atoms: C_2  and  C_3
REMARK    3  A    between atoms: C_2  and  C_18
REMARK    4  A    between atoms: C_5  and  C_6
REMARK                            x       y       z     vdW  Elec       q    Type
REMARK                         _______ _______ _______ _____ _____    ______ ____
ROOT
ATOM      1  C   UNL     1      -1.128  11.886  20.282  0.00  0.00    +0.000 A 
ATOM      2  C   UNL     1      -2.053  12.552  21.107  0.00  0.00    +0.000 A 
ATOM      3  C   UNL     1      -2.182  12.193  22.443  0.00  0.00    +0.000 A 
ATOM      4  N   UNL     1      -1.421  11.205  22.981  0.00  0.00    +0.000 NA
ATOM      5  C   UNL     1      -0.529  10.541  22.216  0.00  0.00    +0.000 A 
ATOM      6  C   UNL     1       0.239   9.521  22.778  0.00  0.00    +0.000 A 
ATOM      7  F   UNL     1       0.094   9.221  24.081  0.00  0.00    +0.000 F 
ATOM      8  C   UNL     1       1.169   8.784  22.050  0.00  0.00    +0.000 A 
ATOM      9  C   UNL     1       1.345   9.053  20.703  0.00  0.00    +0.000 A 
ATOM     10  C   UNL     1       0.593  10.066  20.106  0.00  0.00    +0.000 A 
ATOM     11  C   UNL     1      -0.349  10.834  20.841  0.00  0.00    +0.000 A 
ENDROOT
BRANCH   3  12
ATOM     12  C   UNL     1      -3.213  12.893  23.323  0.00  0.00    +0.000 C 
ATOM     13  F   UNL     1      -4.223  13.474  22.608  0.00  0.00    +0.000 F 
ATOM     14  F   UNL     1      -3.831  12.046  24.196  0.00  0.00    +0.000 F 
ATOM     15  F   UNL     1      -2.683  13.898  24.076  0.00  0.00    +0.000 F 
ENDBRANCH   3  12
BRANCH   1  16
ATOM     16  C   UNL     1      -1.035  12.281  18.810  0.00  0.00    +0.000 C 
BRANCH  16  17
ATOM     17  C   UNL     1      -2.153  11.618  17.934  0.00  0.00    +0.000 C 
ATOM     18  C   UNL     1      -2.248  10.109  18.226  0.00  0.00    +0.000 C 
ATOM     19  C   UNL     1      -3.388   9.469  17.434  0.00  0.00    +0.000 C 
ATOM     20  C   UNL     1      -3.252   9.779  15.949  0.00  0.00    +0.000 C 
ATOM     21  C   UNL     1      -3.071  11.274  15.704  0.00  0.00    +0.000 C 
ATOM     22  N   UNL     1      -1.958  11.817  16.480  0.00  0.00    +0.000 NA
ATOM     23  H   UNL     1      -1.860  12.810  16.278  0.00  0.00    +0.000 HD
ENDBRANCH  16  17
BRANCH  16  24
ATOM     24  O   UNL     1      -1.033  13.704  18.651  0.00  0.00    +0.000 OA
ATOM     25  H   UNL     1      -1.916  14.033  18.885  0.00  0.00    +0.000 HD
ENDBRANCH  16  24
ENDBRANCH   1  16
TORSDOF 4
ENDMDL
