MODEL 1
REMARK VINA RESULT:      -8.8      0.000      0.000
REMARK  Name = 
REMARK  5 active torsions:
REMARK  status: ('A' for Active; 'I' for Inactive)
REMARK    1  A    between atoms: C_2  and  C_3
REMARK    2  A    between atoms: C_3  and  C_4
REMARK    3  A    between atoms: C_4  and  N_5
REMARK    4  A    between atoms: C_8  and  C_9
REMARK    5  A    between atoms: C_21  and  C_22
REMARK                            x       y       z     vdW  Elec       q    Type
REMARK                         _______ _______ _______ _____ _____    ______ ____
ROOT
ATOM      1  O   UNL     1       1.378   5.616  20.615  0.00  0.00    +0.000 OA
ATOM      2  C   UNL     1       2.382   5.431  19.935  0.00  0.00    +0.000 C 
ATOM      3  N   UNL     1       2.864   4.151  19.624  0.00  0.00    +0.000 N 
ATOM      4  C   UNL     1       2.149   3.001  20.174  0.00  0.00    +0.000 C 
ATOM      5  C   UNL     1       3.204   2.210  20.922  0.00  0.00    +0.000 C 
ATOM      6  C   UNL     1       4.441   2.406  20.058  0.00  0.00    +0.000 C 
ATOM      7  C   UNL     1       4.303   3.849  19.548  0.00  0.00    +0.000 C 
ENDROOT
BRANCH   7   8
ATOM      8  C   UNL     1       4.939   3.983  18.190  0.00  0.00    +0.000 A 
ATOM      9  N   UNL     1       4.516   3.335  17.121  0.00  0.00    +0.000 NA
ATOM     10  C   UNL     1       5.277   3.775  16.072  0.00  0.00    +0.000 A 
ATOM     11  C   UNL     1       5.212   3.419  14.719  0.00  0.00    +0.000 A 
ATOM     12  C   UNL     1       6.116   3.999  13.824  0.00  0.00    +0.000 A 
ATOM     13 CL   UNL     1       5.977   3.553  12.159  0.00  0.00    +0.000 Cl
ATOM     14  C   UNL     1       7.082   4.912  14.282  0.00  0.00    +0.000 A 
ATOM     15 CL   UNL     1       8.244   5.616  13.208  0.00  0.00    +0.000 Cl
ATOM     16  C   UNL     1       7.149   5.282  15.635  0.00  0.00    +0.000 A 
ATOM     17  C   UNL     1       6.213   4.711  16.504  0.00  0.00    +0.000 A 
ATOM     18  N   UNL     1       5.938   4.868  17.847  0.00  0.00    +0.000 N 
ATOM     19  H   UNL     1       6.368   5.541  18.472  0.00  0.00    +0.000 HD
ENDBRANCH   7   8
BRANCH   2  20
ATOM     20  C   UNL     1       3.122   6.577  19.270  0.00  0.00    +0.000 C 
BRANCH  20  21
ATOM     21  C   UNL     1       2.222   7.441  18.369  0.00  0.00    +0.000 C 
BRANCH  21  22
ATOM     22  N   UNL     1       2.037   8.817  18.907  0.00  0.00    +0.000 NA
ATOM     23  C   UNL     1       1.779   9.771  17.820  0.00  0.00    +0.000 C 
ATOM     24  C   UNL     1       1.424  11.179  18.299  0.00  0.00    +0.000 C 
ATOM     25  C   UNL     1       0.248  11.193  19.285  0.00  0.00    +0.000 C 
ATOM     26  C   UNL     1       0.600  10.220  20.424  0.00  0.00    +0.000 C 
ATOM     27  C   UNL     1       0.964   8.819  19.918  0.00  0.00    +0.000 C 
BRANCH  25  28
ATOM     28  C   UNL     1      -1.144  10.989  18.686  0.00  0.00    +0.000 A 
ATOM     29  C   UNL     1      -1.398  10.128  17.606  0.00  0.00    +0.000 A 
ATOM     30  C   UNL     1      -2.671  10.021  17.036  0.00  0.00    +0.000 A 
ATOM     31  C   UNL     1      -3.714  10.799  17.520  0.00  0.00    +0.000 A 
ATOM     32  C   UNL     1      -3.493  11.668  18.581  0.00  0.00    +0.000 A 
ATOM     33  C   UNL     1      -2.221  11.759  19.162  0.00  0.00    +0.000 A 
ENDBRANCH  25  28
ENDBRANCH  21  22
ENDBRANCH  20  21
ENDBRANCH   2  20
TORSDOF 5
ENDMDL
MODEL 2
REMARK VINA RESULT:      -8.7      0.138      1.313
REMARK  Name = 
REMARK  5 active torsions:
REMARK  status: ('A' for Active; 'I' for Inactive)
REMARK    1  A    between atoms: C_2  and  C_3
REMARK    2  A    between atoms: C_3  and  C_4
REMARK    3  A    between atoms: C_4  and  N_5
REMARK    4  A    between atoms: C_8  and  C_9
REMARK    5  A    between atoms: C_21  and  C_22
REMARK                            x       y       z     vdW  Elec       q    Type
REMARK                         _______ _______ _______ _____ _____    ______ ____
ROOT
ATOM      1  O   UNL     1       1.500   5.585  20.803  0.00  0.00    +0.000 OA
ATOM      2  C   UNL     1       2.456   5.423  20.051  0.00  0.00    +0.000 C 
ATOM      3  N   UNL     1       2.926   4.154  19.682  0.00  0.00    +0.000 N 
ATOM      4  C   UNL     1       2.261   2.987  20.259  0.00  0.00    +0.000 C 
ATOM      5  C   UNL     1       3.374   2.194  20.916  0.00  0.00    +0.000 C 
ATOM      6  C   UNL     1       4.545   2.418  19.971  0.00  0.00    +0.000 C 
ATOM      7  C   UNL     1       4.359   3.868  19.500  0.00  0.00    +0.000 C 
ENDROOT
BRANCH   7   8
ATOM      8  C   UNL     1       4.896   4.034  18.103  0.00  0.00    +0.000 A 
ATOM      9  N   UNL     1       5.867   4.872  17.791  0.00  0.00    +0.000 NA
ATOM     10  C   UNL     1       6.135   4.680  16.464  0.00  0.00    +0.000 A 
ATOM     11  C   UNL     1       7.095   5.302  15.654  0.00  0.00    +0.000 A 
ATOM     12  C   UNL     1       7.173   4.947  14.305  0.00  0.00    +0.000 A 
ATOM     13 CL   UNL     1       8.394   5.717  13.353  0.00  0.00    +0.000 Cl
ATOM     14  C   UNL     1       6.290   3.991  13.770  0.00  0.00    +0.000 A 
ATOM     15 CL   UNL     1       6.331   3.560  12.093  0.00  0.00    +0.000 Cl
ATOM     16  C   UNL     1       5.331   3.356  14.575  0.00  0.00    +0.000 A 
ATOM     17  C   UNL     1       5.296   3.707  15.929  0.00  0.00    +0.000 A 
ATOM     18  N   UNL     1       4.555   3.271  17.008  0.00  0.00    +0.000 N 
ATOM     19  H   UNL     1       3.897   2.499  17.011  0.00  0.00    +0.000 HD
ENDBRANCH   7   8
BRANCH   2  20
ATOM     20  C   UNL     1       3.137   6.589  19.358  0.00  0.00    +0.000 C 
BRANCH  20  21
ATOM     21  C   UNL     1       2.179   7.424  18.489  0.00  0.00    +0.000 C 
BRANCH  21  22
ATOM     22  N   UNL     1       2.007   8.808  19.008  0.00  0.00    +0.000 NA
ATOM     23  C   UNL     1       1.756   9.749  17.908  0.00  0.00    +0.000 C 
ATOM     24  C   UNL     1       1.413  11.167  18.369  0.00  0.00    +0.000 C 
ATOM     25  C   UNL     1       0.239  11.204  19.356  0.00  0.00    +0.000 C 
ATOM     26  C   UNL     1       0.583  10.244  20.507  0.00  0.00    +0.000 C 
ATOM     27  C   UNL     1       0.935   8.833  20.020  0.00  0.00    +0.000 C 
BRANCH  25  28
ATOM     28  C   UNL     1      -1.156  11.004  18.761  0.00  0.00    +0.000 A 
ATOM     29  C   UNL     1      -1.423  10.112  17.708  0.00  0.00    +0.000 A 
ATOM     30  C   UNL     1      -2.697  10.008  17.141  0.00  0.00    +0.000 A 
ATOM     31  C   UNL     1      -3.728  10.818  17.597  0.00  0.00    +0.000 A 
ATOM     32  C   UNL     1      -3.493  11.718  18.630  0.00  0.00    +0.000 A 
ATOM     33  C   UNL     1      -2.221  11.807  19.210  0.00  0.00    +0.000 A 
ENDBRANCH  25  28
ENDBRANCH  21  22
ENDBRANCH  20  21
ENDBRANCH   2  20
TORSDOF 5
ENDMDL
MODEL 3
REMARK VINA RESULT:      -8.3      4.274      9.302
REMARK  Name = 
REMARK  5 active torsions:
REMARK  status: ('A' for Active; 'I' for Inactive)
REMARK    1  A    between atoms: C_2  and  C_3
REMARK    2  A    between atoms: C_3  and  C_4
REMARK    3  A    between atoms: C_4  and  N_5
REMARK    4  A    between atoms: C_8  and  C_9
REMARK    5  A    between atoms: C_21  and  C_22
REMARK                            x       y       z     vdW  Elec       q    Type
REMARK                         _______ _______ _______ _____ _____    ______ ____
ROOT
ATOM      1  O   UNL     1      -0.688   8.561  22.145  0.00  0.00    +0.000 OA
ATOM      2  C   UNL     1      -0.210   9.520  21.547  0.00  0.00    +0.000 C 
ATOM      3  N   UNL     1      -0.414  10.846  21.952  0.00  0.00    +0.000 N 
ATOM      4  C   UNL     1      -1.270  11.080  23.115  0.00  0.00    +0.000 C 
ATOM      5  C   UNL     1      -2.339  12.035  22.622  0.00  0.00    +0.000 C 
ATOM      6  C   UNL     1      -1.575  12.915  21.644  0.00  0.00    +0.000 C 
ATOM      7  C   UNL     1      -0.579  11.947  20.988  0.00  0.00    +0.000 C 
ENDROOT
BRANCH   7   8
ATOM      8  C   UNL     1       0.677  12.680  20.598  0.00  0.00    +0.000 A 
ATOM      9  N   UNL     1       1.504  13.225  21.471  0.00  0.00    +0.000 NA
ATOM     10  C   UNL     1       2.559  13.717  20.753  0.00  0.00    +0.000 A 
ATOM     11  C   UNL     1       3.715  14.365  21.208  0.00  0.00    +0.000 A 
ATOM     12  C   UNL     1       4.660  14.797  20.273  0.00  0.00    +0.000 A 
ATOM     13 CL   UNL     1       6.085  15.563  20.883  0.00  0.00    +0.000 Cl
ATOM     14  C   UNL     1       4.442  14.595  18.898  0.00  0.00    +0.000 A 
ATOM     15 CL   UNL     1       5.571  15.156  17.710  0.00  0.00    +0.000 Cl
ATOM     16  C   UNL     1       3.291  13.938  18.433  0.00  0.00    +0.000 A 
ATOM     17  C   UNL     1       2.377  13.488  19.392  0.00  0.00    +0.000 A 
ATOM     18  N   UNL     1       1.198  12.775  19.325  0.00  0.00    +0.000 N 
ATOM     19  H   UNL     1       0.796  12.359  18.492  0.00  0.00    +0.000 HD
ENDBRANCH   7   8
BRANCH   2  20
ATOM     20  C   UNL     1       0.749   9.341  20.384  0.00  0.00    +0.000 C 
BRANCH  20  21
ATOM     21  C   UNL     1       1.735   8.175  20.580  0.00  0.00    +0.000 C 
BRANCH  21  22
ATOM     22  N   UNL     1       1.915   7.373  19.340  0.00  0.00    +0.000 NA
ATOM     23  C   UNL     1       2.708   8.116  18.351  0.00  0.00    +0.000 C 
ATOM     24  C   UNL     1       3.072   7.303  17.107  0.00  0.00    +0.000 C 
ATOM     25  C   UNL     1       3.777   5.982  17.446  0.00  0.00    +0.000 C 
ATOM     26  C   UNL     1       2.876   5.228  18.439  0.00  0.00    +0.000 C 
ATOM     27  C   UNL     1       2.516   6.068  19.670  0.00  0.00    +0.000 C 
BRANCH  25  28
ATOM     28  C   UNL     1       5.242   6.084  17.872  0.00  0.00    +0.000 A 
ATOM     29  C   UNL     1       5.775   5.385  18.968  0.00  0.00    +0.000 A 
ATOM     30  C   UNL     1       7.103   5.557  19.373  0.00  0.00    +0.000 A 
ATOM     31  C   UNL     1       7.920   6.459  18.704  0.00  0.00    +0.000 A 
ATOM     32  C   UNL     1       7.419   7.173  17.622  0.00  0.00    +0.000 A 
ATOM     33  C   UNL     1       6.095   6.984  17.207  0.00  0.00    +0.000 A 
ENDBRANCH  25  28
ENDBRANCH  21  22
ENDBRANCH  20  21
ENDBRANCH   2  20
TORSDOF 5
ENDMDL
MODEL 4
REMARK VINA RESULT:      -8.1      1.462      2.811
REMARK  Name = 
REMARK  5 active torsions:
REMARK  status: ('A' for Active; 'I' for Inactive)
REMARK    1  A    between atoms: C_2  and  C_3
REMARK    2  A    between atoms: C_3  and  C_4
REMARK    3  A    between atoms: C_4  and  N_5
REMARK    4  A    between atoms: C_8  and  C_9
REMARK    5  A    between atoms: C_21  and  C_22
REMARK                            x       y       z     vdW  Elec       q    Type
REMARK                         _______ _______ _______ _____ _____    ______ ____
ROOT
ATOM      1  O   UNL     1       0.924   4.967  20.405  0.00  0.00    +0.000 OA
ATOM      2  C   UNL     1       1.975   4.938  19.772  0.00  0.00    +0.000 C 
ATOM      3  N   UNL     1       2.715   3.762  19.583  0.00  0.00    +0.000 N 
ATOM      4  C   UNL     1       2.218   2.536  20.206  0.00  0.00    +0.000 C 
ATOM      5  C   UNL     1       3.375   2.034  21.048  0.00  0.00    +0.000 C 
ATOM      6  C   UNL     1       4.586   2.409  20.206  0.00  0.00    +0.000 C 
ATOM      7  C   UNL     1       4.187   3.751  19.575  0.00  0.00    +0.000 C 
ENDROOT
BRANCH   7   8
ATOM      8  C   UNL     1       4.844   3.907  18.228  0.00  0.00    +0.000 A 
ATOM      9  N   UNL     1       4.438   3.276  17.143  0.00  0.00    +0.000 NA
ATOM     10  C   UNL     1       5.215   3.733  16.113  0.00  0.00    +0.000 A 
ATOM     11  C   UNL     1       5.172   3.399  14.754  0.00  0.00    +0.000 A 
ATOM     12  C   UNL     1       6.089   3.993  13.882  0.00  0.00    +0.000 A 
ATOM     13 CL   UNL     1       5.976   3.574  12.208  0.00  0.00    +0.000 Cl
ATOM     14  C   UNL     1       7.048   4.899  14.370  0.00  0.00    +0.000 A 
ATOM     15 CL   UNL     1       8.226   5.620  13.326  0.00  0.00    +0.000 Cl
ATOM     16  C   UNL     1       7.093   5.248  15.730  0.00  0.00    +0.000 A 
ATOM     17  C   UNL     1       6.143   4.663  16.574  0.00  0.00    +0.000 A 
ATOM     18  N   UNL     1       5.847   4.798  17.915  0.00  0.00    +0.000 N 
ATOM     19  H   UNL     1       6.267   5.461  18.557  0.00  0.00    +0.000 HD
ENDBRANCH   7   8
BRANCH   2  20
ATOM     20  C   UNL     1       2.500   6.156  19.035  0.00  0.00    +0.000 C 
BRANCH  20  21
ATOM     21  C   UNL     1       2.490   7.436  19.890  0.00  0.00    +0.000 C 
BRANCH  21  22
ATOM     22  N   UNL     1       1.346   8.328  19.556  0.00  0.00    +0.000 NA
ATOM     23  C   UNL     1       1.016   9.199  20.693  0.00  0.00    +0.000 C 
ATOM     24  C   UNL     1      -0.046  10.254  20.381  0.00  0.00    +0.000 C 
ATOM     25  C   UNL     1       0.310  11.114  19.161  0.00  0.00    +0.000 C 
ATOM     26  C   UNL     1       0.591  10.152  17.994  0.00  0.00    +0.000 C 
ATOM     27  C   UNL     1       1.650   9.097  18.335  0.00  0.00    +0.000 C 
BRANCH  25  28
ATOM     28  C   UNL     1       1.384  12.182  19.373  0.00  0.00    +0.000 A 
ATOM     29  C   UNL     1       1.663  12.754  20.625  0.00  0.00    +0.000 A 
ATOM     30  C   UNL     1       2.603  13.781  20.770  0.00  0.00    +0.000 A 
ATOM     31  C   UNL     1       3.263  14.278  19.654  0.00  0.00    +0.000 A 
ATOM     32  C   UNL     1       3.001  13.740  18.400  0.00  0.00    +0.000 A 
ATOM     33  C   UNL     1       2.074  12.699  18.261  0.00  0.00    +0.000 A 
ENDBRANCH  25  28
ENDBRANCH  21  22
ENDBRANCH  20  21
ENDBRANCH   2  20
TORSDOF 5
ENDMDL
MODEL 5
REMARK VINA RESULT:      -8.0      1.292      2.228
REMARK  Name = 
REMARK  5 active torsions:
REMARK  status: ('A' for Active; 'I' for Inactive)
REMARK    1  A    between atoms: C_2  and  C_3
REMARK    2  A    between atoms: C_3  and  C_4
REMARK    3  A    between atoms: C_4  and  N_5
REMARK    4  A    between atoms: C_8  and  C_9
REMARK    5  A    between atoms: C_21  and  C_22
REMARK                            x       y       z     vdW  Elec       q    Type
REMARK                         _______ _______ _______ _____ _____    ______ ____
ROOT
ATOM      1  O   UNL     1       1.272   6.319  20.342  0.00  0.00    +0.000 OA
ATOM      2  C   UNL     1       2.279   6.042  19.698  0.00  0.00    +0.000 C 
ATOM      3  N   UNL     1       2.704   4.723  19.482  0.00  0.00    +0.000 N 
ATOM      4  C   UNL     1       1.924   3.647  20.092  0.00  0.00    +0.000 C 
ATOM      5  C   UNL     1       2.927   2.860  20.913  0.00  0.00    +0.000 C 
ATOM      6  C   UNL     1       4.187   2.939  20.064  0.00  0.00    +0.000 C 
ATOM      7  C   UNL     1       4.128   4.349  19.458  0.00  0.00    +0.000 C 
ENDROOT
BRANCH   7   8
ATOM      8  C   UNL     1       4.794   4.362  18.107  0.00  0.00    +0.000 A 
ATOM      9  N   UNL     1       4.380   3.640  17.084  0.00  0.00    +0.000 NA
ATOM     10  C   UNL     1       5.171   3.979  16.021  0.00  0.00    +0.000 A 
ATOM     11  C   UNL     1       5.126   3.518  14.699  0.00  0.00    +0.000 A 
ATOM     12  C   UNL     1       6.060   4.006  13.781  0.00  0.00    +0.000 A 
ATOM     13 CL   UNL     1       5.946   3.432  12.154  0.00  0.00    +0.000 Cl
ATOM     14  C   UNL     1       7.037   4.934  14.187  0.00  0.00    +0.000 A 
ATOM     15 CL   UNL     1       8.236   5.526  13.086  0.00  0.00    +0.000 Cl
ATOM     16  C   UNL     1       7.084   5.409  15.507  0.00  0.00    +0.000 A 
ATOM     17  C   UNL     1       6.118   4.928  16.397  0.00  0.00    +0.000 A 
ATOM     18  N   UNL     1       5.819   5.197  17.717  0.00  0.00    +0.000 N 
ATOM     19  H   UNL     1       6.250   5.909  18.296  0.00  0.00    +0.000 HD
ENDBRANCH   7   8
BRANCH   2  20
ATOM     20  C   UNL     1       3.085   7.105  18.974  0.00  0.00    +0.000 C 
BRANCH  20  21
ATOM     21  C   UNL     1       2.540   7.434  17.573  0.00  0.00    +0.000 C 
BRANCH  21  22
ATOM     22  N   UNL     1       1.882   8.768  17.521  0.00  0.00    +0.000 NA
ATOM     23  C   UNL     1       0.451   8.655  17.832  0.00  0.00    +0.000 C 
ATOM     24  C   UNL     1      -0.267  10.000  17.952  0.00  0.00    +0.000 C 
ATOM     25  C   UNL     1       0.405  10.945  18.957  0.00  0.00    +0.000 C 
ATOM     26  C   UNL     1       1.883  11.066  18.549  0.00  0.00    +0.000 C 
ATOM     27  C   UNL     1       2.578   9.704  18.423  0.00  0.00    +0.000 C 
BRANCH  25  28
ATOM     28  C   UNL     1       0.181  10.634  20.438  0.00  0.00    +0.000 A 
ATOM     29  C   UNL     1       0.792   9.555  21.098  0.00  0.00    +0.000 A 
ATOM     30  C   UNL     1       0.508   9.257  22.435  0.00  0.00    +0.000 A 
ATOM     31  C   UNL     1      -0.420  10.018  23.133  0.00  0.00    +0.000 A 
ATOM     32  C   UNL     1      -1.050  11.086  22.505  0.00  0.00    +0.000 A 
ATOM     33  C   UNL     1      -0.749  11.394  21.171  0.00  0.00    +0.000 A 
ENDBRANCH  25  28
ENDBRANCH  21  22
ENDBRANCH  20  21
ENDBRANCH   2  20
TORSDOF 5
ENDMDL
MODEL 6
REMARK VINA RESULT:      -8.0      1.270      2.520
REMARK  Name = 
REMARK  5 active torsions:
REMARK  status: ('A' for Active; 'I' for Inactive)
REMARK    1  A    between atoms: C_2  and  C_3
REMARK    2  A    between atoms: C_3  and  C_4
REMARK    3  A    between atoms: C_4  and  N_5
REMARK    4  A    between atoms: C_8  and  C_9
REMARK    5  A    between atoms: C_21  and  C_22
REMARK                            x       y       z     vdW  Elec       q    Type
REMARK                         _______ _______ _______ _____ _____    ______ ____
ROOT
ATOM      1  O   UNL     1       1.296   6.308  20.555  0.00  0.00    +0.000 OA
ATOM      2  C   UNL     1       2.259   6.057  19.838  0.00  0.00    +0.000 C 
ATOM      3  N   UNL     1       2.682   4.748  19.564  0.00  0.00    +0.000 N 
ATOM      4  C   UNL     1       1.955   3.650  20.199  0.00  0.00    +0.000 C 
ATOM      5  C   UNL     1       3.019   2.856  20.933  0.00  0.00    +0.000 C 
ATOM      6  C   UNL     1       4.219   2.969  20.004  0.00  0.00    +0.000 C 
ATOM      7  C   UNL     1       4.105   4.391  19.436  0.00  0.00    +0.000 C 
ENDROOT
BRANCH   7   8
ATOM      8  C   UNL     1       4.678   4.442  18.044  0.00  0.00    +0.000 A 
ATOM      9  N   UNL     1       5.721   5.180  17.713  0.00  0.00    +0.000 NA
ATOM     10  C   UNL     1       5.996   4.901  16.402  0.00  0.00    +0.000 A 
ATOM     11  C   UNL     1       7.018   5.400  15.584  0.00  0.00    +0.000 A 
ATOM     12  C   UNL     1       7.089   4.973  14.256  0.00  0.00    +0.000 A 
ATOM     13 CL   UNL     1       8.387   5.591  13.294  0.00  0.00    +0.000 Cl
ATOM     14  C   UNL     1       6.139   4.068  13.748  0.00  0.00    +0.000 A 
ATOM     15 CL   UNL     1       6.172   3.552  12.095  0.00  0.00    +0.000 Cl
ATOM     16  C   UNL     1       5.116   3.555  14.563  0.00  0.00    +0.000 A 
ATOM     17  C   UNL     1       5.087   3.975  15.897  0.00  0.00    +0.000 A 
ATOM     18  N   UNL     1       4.293   3.656  16.980  0.00  0.00    +0.000 N 
ATOM     19  H   UNL     1       3.573   2.943  17.005  0.00  0.00    +0.000 HD
ENDBRANCH   7   8
BRANCH   2  20
ATOM     20  C   UNL     1       3.004   7.145  19.087  0.00  0.00    +0.000 C 
BRANCH  20  21
ATOM     21  C   UNL     1       2.433   7.417  17.684  0.00  0.00    +0.000 C 
BRANCH  21  22
ATOM     22  N   UNL     1       1.779   8.751  17.589  0.00  0.00    +0.000 NA
ATOM     23  C   UNL     1       0.336   8.641  17.841  0.00  0.00    +0.000 C 
ATOM     24  C   UNL     1      -0.387   9.987  17.915  0.00  0.00    +0.000 C 
ATOM     25  C   UNL     1       0.243  10.944  18.937  0.00  0.00    +0.000 C 
ATOM     26  C   UNL     1       1.737  11.060  18.590  0.00  0.00    +0.000 C 
ATOM     27  C   UNL     1       2.436   9.697  18.509  0.00  0.00    +0.000 C 
BRANCH  25  28
ATOM     28  C   UNL     1      -0.043  10.650  20.410  0.00  0.00    +0.000 A 
ATOM     29  C   UNL     1      -0.040   9.353  20.950  0.00  0.00    +0.000 A 
ATOM     30  C   UNL     1      -0.377   9.114  22.287  0.00  0.00    +0.000 A 
ATOM     31  C   UNL     1      -0.755  10.169  23.106  0.00  0.00    +0.000 A 
ATOM     32  C   UNL     1      -0.778  11.463  22.598  0.00  0.00    +0.000 A 
ATOM     33  C   UNL     1      -0.421  11.702  21.264  0.00  0.00    +0.000 A 
ENDBRANCH  25  28
ENDBRANCH  21  22
ENDBRANCH  20  21
ENDBRANCH   2  20
TORSDOF 5
ENDMDL
MODEL 7
REMARK VINA RESULT:      -8.0      1.384      2.958
REMARK  Name = 
REMARK  5 active torsions:
REMARK  status: ('A' for Active; 'I' for Inactive)
REMARK    1  A    between atoms: C_2  and  C_3
REMARK    2  A    between atoms: C_3  and  C_4
REMARK    3  A    between atoms: C_4  and  N_5
REMARK    4  A    between atoms: C_8  and  C_9
REMARK    5  A    between atoms: C_21  and  C_22
REMARK                            x       y       z     vdW  Elec       q    Type
REMARK                         _______ _______ _______ _____ _____    ______ ____
ROOT
ATOM      1  O   UNL     1       1.006   4.966  20.421  0.00  0.00    +0.000 OA
ATOM      2  C   UNL     1       2.015   4.971  19.723  0.00  0.00    +0.000 C 
ATOM      3  N   UNL     1       2.794   3.826  19.505  0.00  0.00    +0.000 N 
ATOM      4  C   UNL     1       2.394   2.592  20.179  0.00  0.00    +0.000 C 
ATOM      5  C   UNL     1       3.624   2.157  20.953  0.00  0.00    +0.000 C 
ATOM      6  C   UNL     1       4.761   2.570  20.030  0.00  0.00    +0.000 C 
ATOM      7  C   UNL     1       4.262   3.880  19.403  0.00  0.00    +0.000 C 
ENDROOT
BRANCH   7   8
ATOM      8  C   UNL     1       4.824   4.040  18.015  0.00  0.00    +0.000 A 
ATOM      9  N   UNL     1       5.787   4.890  17.713  0.00  0.00    +0.000 NA
ATOM     10  C   UNL     1       6.085   4.688  16.393  0.00  0.00    +0.000 A 
ATOM     11  C   UNL     1       7.051   5.316  15.596  0.00  0.00    +0.000 A 
ATOM     12  C   UNL     1       7.161   4.948  14.252  0.00  0.00    +0.000 A 
ATOM     13 CL   UNL     1       8.388   5.728  13.316  0.00  0.00    +0.000 Cl
ATOM     14  C   UNL     1       6.304   3.973  13.710  0.00  0.00    +0.000 A 
ATOM     15 CL   UNL     1       6.385   3.524  12.039  0.00  0.00    +0.000 Cl
ATOM     16  C   UNL     1       5.340   3.331  14.504  0.00  0.00    +0.000 A 
ATOM     17  C   UNL     1       5.272   3.696  15.852  0.00  0.00    +0.000 A 
ATOM     18  N   UNL     1       4.517   3.259  16.922  0.00  0.00    +0.000 N 
ATOM     19  H   UNL     1       3.872   2.477  16.920  0.00  0.00    +0.000 HD
ENDBRANCH   7   8
BRANCH   2  20
ATOM     20  C   UNL     1       2.437   6.197  18.934  0.00  0.00    +0.000 C 
BRANCH  20  21
ATOM     21  C   UNL     1       2.470   7.483  19.779  0.00  0.00    +0.000 C 
BRANCH  21  22
ATOM     22  N   UNL     1       1.260   8.326  19.572  0.00  0.00    +0.000 NA
ATOM     23  C   UNL     1       1.013   9.178  20.743  0.00  0.00    +0.000 C 
ATOM     24  C   UNL     1      -0.120  10.187  20.550  0.00  0.00    +0.000 C 
ATOM     25  C   UNL     1       0.070  11.065  19.306  0.00  0.00    +0.000 C 
ATOM     26  C   UNL     1       0.269  10.119  18.109  0.00  0.00    +0.000 C 
ATOM     27  C   UNL     1       1.402   9.110  18.331  0.00  0.00    +0.000 C 
BRANCH  25  28
ATOM     28  C   UNL     1       1.113  12.178  19.413  0.00  0.00    +0.000 A 
ATOM     29  C   UNL     1       1.934  12.568  18.342  0.00  0.00    +0.000 A 
ATOM     30  C   UNL     1       2.927  13.542  18.495  0.00  0.00    +0.000 A 
ATOM     31  C   UNL     1       3.140  14.125  19.737  0.00  0.00    +0.000 A 
ATOM     32  C   UNL     1       2.351  13.753  20.819  0.00  0.00    +0.000 A 
ATOM     33  C   UNL     1       1.344  12.792  20.657  0.00  0.00    +0.000 A 
ENDBRANCH  25  28
ENDBRANCH  21  22
ENDBRANCH  20  21
ENDBRANCH   2  20
TORSDOF 5
ENDMDL
MODEL 8
REMARK VINA RESULT:      -7.9      4.305      7.942
REMARK  Name = 
REMARK  5 active torsions:
REMARK  status: ('A' for Active; 'I' for Inactive)
REMARK    1  A    between atoms: C_2  and  C_3
REMARK    2  A    between atoms: C_3  and  C_4
REMARK    3  A    between atoms: C_4  and  N_5
REMARK    4  A    between atoms: C_8  and  C_9
REMARK    5  A    between atoms: C_21  and  C_22
REMARK                            x       y       z     vdW  Elec       q    Type
REMARK                         _______ _______ _______ _____ _____    ______ ____
ROOT
ATOM      1  O   UNL     1      -3.200  12.988  19.798  0.00  0.00    +0.000 OA
ATOM      2  C   UNL     1      -2.272  12.292  19.400  0.00  0.00    +0.000 C 
ATOM      3  N   UNL     1      -0.936  12.534  19.749  0.00  0.00    +0.000 N 
ATOM      4  C   UNL     1      -0.652  13.694  20.593  0.00  0.00    +0.000 C 
ATOM      5  C   UNL     1       0.370  14.498  19.814  0.00  0.00    +0.000 C 
ATOM      6  C   UNL     1       1.202  13.417  19.140  0.00  0.00    +0.000 C 
ATOM      7  C   UNL     1       0.175  12.325  18.806  0.00  0.00    +0.000 C 
ENDROOT
BRANCH   7   8
ATOM      8  C   UNL     1       0.829  10.969  18.842  0.00  0.00    +0.000 A 
ATOM      9  N   UNL     1       0.781  10.165  19.887  0.00  0.00    +0.000 NA
ATOM     10  C   UNL     1       1.406   9.006  19.516  0.00  0.00    +0.000 A 
ATOM     11  C   UNL     1       1.601   7.829  20.250  0.00  0.00    +0.000 A 
ATOM     12  C   UNL     1       2.291   6.768  19.656  0.00  0.00    +0.000 A 
ATOM     13 CL   UNL     1       2.479   5.325  20.590  0.00  0.00    +0.000 Cl
ATOM     14  C   UNL     1       2.792   6.891  18.348  0.00  0.00    +0.000 A 
ATOM     15 CL   UNL     1       3.689   5.613  17.598  0.00  0.00    +0.000 Cl
ATOM     16  C   UNL     1       2.593   8.063  17.600  0.00  0.00    +0.000 A 
ATOM     17  C   UNL     1       1.873   9.097  18.207  0.00  0.00    +0.000 A 
ATOM     18  N   UNL     1       1.441  10.337  17.781  0.00  0.00    +0.000 N 
ATOM     19  H   UNL     1       1.526  10.710  16.842  0.00  0.00    +0.000 HD
ENDBRANCH   7   8
BRANCH   2  20
ATOM     20  C   UNL     1      -2.507  11.031  18.589  0.00  0.00    +0.000 C 
BRANCH  20  21
ATOM     21  C   UNL     1      -3.188  11.296  17.234  0.00  0.00    +0.000 C 
BRANCH  21  22
ATOM     22  N   UNL     1      -4.662  11.101  17.294  0.00  0.00    +0.000 NA
ATOM     23  C   UNL     1      -5.045  10.408  18.532  0.00  0.00    +0.000 C 
ATOM     24  C   UNL     1      -6.556  10.306  18.746  0.00  0.00    +0.000 C 
ATOM     25  C   UNL     1      -7.259  11.669  18.680  0.00  0.00    +0.000 C 
ATOM     26  C   UNL     1      -6.864  12.320  17.343  0.00  0.00    +0.000 C 
ATOM     27  C   UNL     1      -5.345  12.399  17.147  0.00  0.00    +0.000 C 
BRANCH  25  28
ATOM     28  C   UNL     1      -7.095  12.578  19.899  0.00  0.00    +0.000 A 
ATOM     29  C   UNL     1      -6.974  13.974  19.807  0.00  0.00    +0.000 A 
ATOM     30  C   UNL     1      -6.753  14.768  20.938  0.00  0.00    +0.000 A 
ATOM     31  C   UNL     1      -6.618  14.174  22.185  0.00  0.00    +0.000 A 
ATOM     32  C   UNL     1      -6.723  12.794  22.308  0.00  0.00    +0.000 A 
ATOM     33  C   UNL     1      -6.964  12.003  21.177  0.00  0.00    +0.000 A 
ENDBRANCH  25  28
ENDBRANCH  21  22
ENDBRANCH  20  21
ENDBRANCH   2  20
TORSDOF 5
ENDMDL
MODEL 9
REMARK VINA RESULT:      -7.9      4.440      9.377
REMARK  Name = 
REMARK  5 active torsions:
REMARK  status: ('A' for Active; 'I' for Inactive)
REMARK    1  A    between atoms: C_2  and  C_3
REMARK    2  A    between atoms: C_3  and  C_4
REMARK    3  A    between atoms: C_4  and  N_5
REMARK    4  A    between atoms: C_8  and  C_9
REMARK    5  A    between atoms: C_21  and  C_22
REMARK                            x       y       z     vdW  Elec       q    Type
REMARK                         _______ _______ _______ _____ _____    ______ ____
ROOT
ATOM      1  O   UNL     1      -0.700   9.212  22.740  0.00  0.00    +0.000 OA
ATOM      2  C   UNL     1      -0.118  10.040  22.047  0.00  0.00    +0.000 C 
ATOM      3  N   UNL     1      -0.450  11.402  22.050  0.00  0.00    +0.000 N 
ATOM      4  C   UNL     1      -1.566  11.830  22.892  0.00  0.00    +0.000 C 
ATOM      5  C   UNL     1      -2.511  12.547  21.947  0.00  0.00    +0.000 C 
ATOM      6  C   UNL     1      -1.557  13.232  20.979  0.00  0.00    +0.000 C 
ATOM      7  C   UNL     1      -0.406  12.226  20.830  0.00  0.00    +0.000 C 
ENDROOT
BRANCH   7   8
ATOM      8  C   UNL     1       0.887  12.951  20.565  0.00  0.00    +0.000 A 
ATOM      9  N   UNL     1       1.707  13.350  21.519  0.00  0.00    +0.000 NA
ATOM     10  C   UNL     1       2.800  13.885  20.895  0.00  0.00    +0.000 A 
ATOM     11  C   UNL     1       3.965  14.425  21.455  0.00  0.00    +0.000 A 
ATOM     12  C   UNL     1       4.952  14.931  20.604  0.00  0.00    +0.000 A 
ATOM     13 CL   UNL     1       6.386  15.558  21.340  0.00  0.00    +0.000 Cl
ATOM     14  C   UNL     1       4.766  14.910  19.210  0.00  0.00    +0.000 A 
ATOM     15 CL   UNL     1       5.949  15.568  18.129  0.00  0.00    +0.000 Cl
ATOM     16  C   UNL     1       3.607  14.362  18.639  0.00  0.00    +0.000 A 
ATOM     17  C   UNL     1       2.649  13.834  19.512  0.00  0.00    +0.000 A 
ATOM     18  N   UNL     1       1.447  13.182  19.328  0.00  0.00    +0.000 N 
ATOM     19  H   UNL     1       1.054  12.889  18.440  0.00  0.00    +0.000 HD
ENDBRANCH   7   8
BRANCH   2  20
ATOM     20  C   UNL     1       1.098   9.675  21.215  0.00  0.00    +0.000 C 
BRANCH  20  21
ATOM     21  C   UNL     1       1.580   8.231  21.442  0.00  0.00    +0.000 C 
BRANCH  21  22
ATOM     22  N   UNL     1       1.516   7.412  20.201  0.00  0.00    +0.000 NA
ATOM     23  C   UNL     1       2.114   8.134  19.069  0.00  0.00    +0.000 C 
ATOM     24  C   UNL     1       2.229   7.302  17.791  0.00  0.00    +0.000 C 
ATOM     25  C   UNL     1       2.975   5.979  18.009  0.00  0.00    +0.000 C 
ATOM     26  C   UNL     1       2.273   5.246  19.165  0.00  0.00    +0.000 C 
ATOM     27  C   UNL     1       2.158   6.105  20.430  0.00  0.00    +0.000 C 
BRANCH  25  28
ATOM     28  C   UNL     1       4.495   6.070  18.148  0.00  0.00    +0.000 A 
ATOM     29  C   UNL     1       5.311   6.762  17.238  0.00  0.00    +0.000 A 
ATOM     30  C   UNL     1       6.705   6.764  17.357  0.00  0.00    +0.000 A 
ATOM     31  C   UNL     1       7.315   6.047  18.377  0.00  0.00    +0.000 A 
ATOM     32  C   UNL     1       6.535   5.344  19.288  0.00  0.00    +0.000 A 
ATOM     33  C   UNL     1       5.139   5.359  19.178  0.00  0.00    +0.000 A 
ENDBRANCH  25  28
ENDBRANCH  21  22
ENDBRANCH  20  21
ENDBRANCH   2  20
TORSDOF 5
ENDMDL
