MODEL 1
REMARK VINA RESULT:      -7.9      0.000      0.000
REMARK  Name = 
REMARK  5 active torsions:
REMARK  status: ('A' for Active; 'I' for Inactive)
REMARK    1  A    between atoms: C_2  and  O_3
REMARK    2  A    between atoms: C_2  and  C_4
REMARK    3  A    between atoms: C_5  and  C_6
REMARK    4  A    between atoms: C_6  and  C_7
REMARK    5  A    between atoms: C_19  and  C_21
REMARK                            x       y       z     vdW  Elec       q    Type
REMARK                         _______ _______ _______ _____ _____    ______ ____
ROOT
ATOM      1  C   UNL     1       6.101   6.155  17.679  0.00  0.00    +0.000 C 
ATOM      2  C   UNL     1       4.772   6.906  17.976  0.00  0.00    +0.000 C 
ATOM      3  C   UNL     1       4.560   7.631  16.645  0.00  0.00    +0.000 C 
ATOM      4  C   UNL     1       5.038   6.631  15.600  0.00  0.00    +0.000 C 
ATOM      5  N   UNL     1       5.908   5.693  16.296  0.00  0.00    +0.000 N 
ATOM      6  C   UNL     1       6.863   4.853  15.713  0.00  0.00    +0.000 C 
ATOM      7  O   UNL     1       7.756   4.361  16.397  0.00  0.00    +0.000 OA
ENDROOT
BRANCH   6   8
ATOM      8  C   UNL     1       6.862   4.581  14.232  0.00  0.00    +0.000 A 
ATOM      9  C   UNL     1       5.945   3.626  13.764  0.00  0.00    +0.000 A 
ATOM     10  C   UNL     1       5.943   3.225  12.423  0.00  0.00    +0.000 A 
ATOM     11  C   UNL     1       6.864   3.766  11.531  0.00  0.00    +0.000 A 
ATOM     12  C   UNL     1       7.742   4.752  11.965  0.00  0.00    +0.000 A 
ATOM     13  C   UNL     1       7.709   5.186  13.296  0.00  0.00    +0.000 A 
ENDBRANCH   6   8
BRANCH   1  15
ATOM     14  O   UNL     1       7.137   5.391  19.782  0.00  0.00    +0.000 OA
ATOM     15  C   UNL     1       6.478   5.144  18.783  0.00  0.00    +0.000 C 
BRANCH  15  16
ATOM     16  O   UNL     1       6.037   3.882  18.521  0.00  0.00    +0.000 OA
ATOM     17  H   UNL     1       5.109   3.840  18.221  0.00  0.00    +0.000 HD
ENDBRANCH  15  16
ENDBRANCH   1  15
BRANCH   2  18
ATOM     18  C   UNL     1       3.593   5.961  18.304  0.00  0.00    +0.000 C 
BRANCH  18  19
ATOM     19  C   UNL     1       2.775   6.327  19.513  0.00  0.00    +0.000 A 
ATOM     20  C   UNL     1       2.493   5.504  20.587  0.00  0.00    +0.000 A 
ATOM     21  N   UNL     1       1.531   6.107  21.352  0.00  0.00    +0.000 N 
ATOM     22  C   UNL     1       1.212   7.340  20.833  0.00  0.00    +0.000 A 
ATOM     23  C   UNL     1       0.256   8.272  21.254  0.00  0.00    +0.000 A 
ATOM     24  C   UNL     1       0.159   9.470  20.541  0.00  0.00    +0.000 A 
ATOM     25  C   UNL     1       0.991   9.723  19.454  0.00  0.00    +0.000 A 
ATOM     26  C   UNL     1       1.917   8.763  19.024  0.00  0.00    +0.000 A 
ATOM     27  C   UNL     1       2.027   7.538  19.717  0.00  0.00    +0.000 A 
ATOM     28  H   UNL     1       1.086   5.695  22.159  0.00  0.00    +0.000 HD
ENDBRANCH  18  19
ENDBRANCH   2  18
TORSDOF 5
ENDMDL
MODEL 2
REMARK VINA RESULT:      -7.6      1.426      2.948
REMARK  Name = 
REMARK  5 active torsions:
REMARK  status: ('A' for Active; 'I' for Inactive)
REMARK    1  A    between atoms: C_2  and  O_3
REMARK    2  A    between atoms: C_2  and  C_4
REMARK    3  A    between atoms: C_5  and  C_6
REMARK    4  A    between atoms: C_6  and  C_7
REMARK    5  A    between atoms: C_19  and  C_21
REMARK                            x       y       z     vdW  Elec       q    Type
REMARK                         _______ _______ _______ _____ _____    ______ ____
ROOT
ATOM      1  C   UNL     1       5.634   6.014  17.555  0.00  0.00    +0.000 C 
ATOM      2  C   UNL     1       4.296   6.801  17.658  0.00  0.00    +0.000 C 
ATOM      3  C   UNL     1       4.342   7.597  16.351  0.00  0.00    +0.000 C 
ATOM      4  C   UNL     1       4.966   6.630  15.353  0.00  0.00    +0.000 C 
ATOM      5  N   UNL     1       5.673   5.627  16.137  0.00  0.00    +0.000 N 
ATOM      6  C   UNL     1       6.690   4.779  15.685  0.00  0.00    +0.000 C 
ATOM      7  O   UNL     1       7.434   4.222  16.486  0.00  0.00    +0.000 OA
ENDROOT
BRANCH   6   8
ATOM      8  C   UNL     1       6.940   4.579  14.214  0.00  0.00    +0.000 A 
ATOM      9  C   UNL     1       7.838   5.464  13.597  0.00  0.00    +0.000 A 
ATOM     10  C   UNL     1       8.052   5.429  12.215  0.00  0.00    +0.000 A 
ATOM     11  C   UNL     1       7.364   4.513  11.425  0.00  0.00    +0.000 A 
ATOM     12  C   UNL     1       6.513   3.592  12.026  0.00  0.00    +0.000 A 
ATOM     13  C   UNL     1       6.339   3.599  13.414  0.00  0.00    +0.000 A 
ENDBRANCH   6   8
BRANCH   1  15
ATOM     14  O   UNL     1       6.251   5.114  19.766  0.00  0.00    +0.000 OA
ATOM     15  C   UNL     1       5.781   4.938  18.652  0.00  0.00    +0.000 C 
BRANCH  15  16
ATOM     16  O   UNL     1       5.368   3.705  18.246  0.00  0.00    +0.000 OA
ATOM     17  H   UNL     1       4.909   3.704  17.385  0.00  0.00    +0.000 HD
ENDBRANCH  15  16
ENDBRANCH   1  15
BRANCH   2  18
ATOM     18  C   UNL     1       3.050   5.888  17.725  0.00  0.00    +0.000 C 
BRANCH  18  19
ATOM     19  C   UNL     1       2.510   5.614  19.102  0.00  0.00    +0.000 A 
ATOM     20  C   UNL     1       2.368   6.538  20.121  0.00  0.00    +0.000 A 
ATOM     21  N   UNL     1       2.082   5.863  21.277  0.00  0.00    +0.000 N 
ATOM     22  C   UNL     1       1.978   4.515  21.031  0.00  0.00    +0.000 A 
ATOM     23  C   UNL     1       1.751   3.454  21.916  0.00  0.00    +0.000 A 
ATOM     24  C   UNL     1       1.672   2.166  21.379  0.00  0.00    +0.000 A 
ATOM     25  C   UNL     1       1.809   1.953  20.010  0.00  0.00    +0.000 A 
ATOM     26  C   UNL     1       2.074   3.023  19.143  0.00  0.00    +0.000 A 
ATOM     27  C   UNL     1       2.173   4.333  19.660  0.00  0.00    +0.000 A 
ATOM     28  H   UNL     1       1.999   6.284  22.191  0.00  0.00    +0.000 HD
ENDBRANCH  18  19
ENDBRANCH   2  18
TORSDOF 5
ENDMDL
MODEL 3
REMARK VINA RESULT:      -7.4      2.643      3.440
REMARK  Name = 
REMARK  5 active torsions:
REMARK  status: ('A' for Active; 'I' for Inactive)
REMARK    1  A    between atoms: C_2  and  O_3
REMARK    2  A    between atoms: C_2  and  C_4
REMARK    3  A    between atoms: C_5  and  C_6
REMARK    4  A    between atoms: C_6  and  C_7
REMARK    5  A    between atoms: C_19  and  C_21
REMARK                            x       y       z     vdW  Elec       q    Type
REMARK                         _______ _______ _______ _____ _____    ______ ____
ROOT
ATOM      1  C   UNL     1       6.211   6.060  17.595  0.00  0.00    +0.000 C 
ATOM      2  C   UNL     1       5.054   5.633  18.541  0.00  0.00    +0.000 C 
ATOM      3  C   UNL     1       3.913   5.482  17.533  0.00  0.00    +0.000 C 
ATOM      4  C   UNL     1       4.586   4.895  16.299  0.00  0.00    +0.000 C 
ATOM      5  N   UNL     1       6.006   5.195  16.423  0.00  0.00    +0.000 N 
ATOM      6  C   UNL     1       6.950   5.203  15.390  0.00  0.00    +0.000 C 
ATOM      7  O   UNL     1       8.021   5.784  15.534  0.00  0.00    +0.000 OA
ENDROOT
BRANCH   6   8
ATOM      8  C   UNL     1       6.655   4.561  14.061  0.00  0.00    +0.000 A 
ATOM      9  C   UNL     1       7.539   4.848  13.008  0.00  0.00    +0.000 A 
ATOM     10  C   UNL     1       7.289   4.388  11.710  0.00  0.00    +0.000 A 
ATOM     11  C   UNL     1       6.145   3.642  11.442  0.00  0.00    +0.000 A 
ATOM     12  C   UNL     1       5.288   3.302  12.483  0.00  0.00    +0.000 A 
ATOM     13  C   UNL     1       5.567   3.723  13.788  0.00  0.00    +0.000 A 
ENDBRANCH   6   8
BRANCH   1  15
ATOM     14  O   UNL     1       8.187   7.091  18.650  0.00  0.00    +0.000 OA
ATOM     15  C   UNL     1       7.583   6.087  18.301  0.00  0.00    +0.000 C 
BRANCH  15  16
ATOM     16  O   UNL     1       8.118   4.846  18.472  0.00  0.00    +0.000 OA
ATOM     17  H   UNL     1       8.933   4.691  17.959  0.00  0.00    +0.000 HD
ENDBRANCH  15  16
ENDBRANCH   1  15
BRANCH   2  18
ATOM     18  C   UNL     1       5.330   4.309  19.291  0.00  0.00    +0.000 C 
BRANCH  18  19
ATOM     19  C   UNL     1       4.261   3.256  19.180  0.00  0.00    +0.000 A 
ATOM     20  C   UNL     1       4.378   2.040  18.533  0.00  0.00    +0.000 A 
ATOM     21  N   UNL     1       3.132   1.480  18.440  0.00  0.00    +0.000 N 
ATOM     22  C   UNL     1       2.202   2.277  19.063  0.00  0.00    +0.000 A 
ATOM     23  C   UNL     1       0.814   2.126  19.170  0.00  0.00    +0.000 A 
ATOM     24  C   UNL     1       0.108   3.093  19.889  0.00  0.00    +0.000 A 
ATOM     25  C   UNL     1       0.769   4.167  20.481  0.00  0.00    +0.000 A 
ATOM     26  C   UNL     1       2.154   4.323  20.332  0.00  0.00    +0.000 A 
ATOM     27  C   UNL     1       2.891   3.367  19.599  0.00  0.00    +0.000 A 
ATOM     28  H   UNL     1       2.914   0.624  17.951  0.00  0.00    +0.000 HD
ENDBRANCH  18  19
ENDBRANCH   2  18
TORSDOF 5
ENDMDL
MODEL 4
REMARK VINA RESULT:      -7.4      1.299      1.572
REMARK  Name = 
REMARK  5 active torsions:
REMARK  status: ('A' for Active; 'I' for Inactive)
REMARK    1  A    between atoms: C_2  and  O_3
REMARK    2  A    between atoms: C_2  and  C_4
REMARK    3  A    between atoms: C_5  and  C_6
REMARK    4  A    between atoms: C_6  and  C_7
REMARK    5  A    between atoms: C_19  and  C_21
REMARK                            x       y       z     vdW  Elec       q    Type
REMARK                         _______ _______ _______ _____ _____    ______ ____
ROOT
ATOM      1  C   UNL     1       5.269   4.867  17.886  0.00  0.00    +0.000 C 
ATOM      2  C   UNL     1       4.767   6.265  18.344  0.00  0.00    +0.000 C 
ATOM      3  C   UNL     1       5.632   7.172  17.465  0.00  0.00    +0.000 C 
ATOM      4  C   UNL     1       5.723   6.425  16.141  0.00  0.00    +0.000 C 
ATOM      5  N   UNL     1       5.406   5.032  16.431  0.00  0.00    +0.000 N 
ATOM      6  C   UNL     1       5.724   3.923  15.641  0.00  0.00    +0.000 C 
ATOM      7  O   UNL     1       5.713   2.795  16.123  0.00  0.00    +0.000 OA
ENDROOT
BRANCH   6   8
ATOM      8  C   UNL     1       6.147   4.085  14.205  0.00  0.00    +0.000 A 
ATOM      9  C   UNL     1       5.389   3.402  13.240  0.00  0.00    +0.000 A 
ATOM     10  C   UNL     1       5.769   3.401  11.893  0.00  0.00    +0.000 A 
ATOM     11  C   UNL     1       6.917   4.076  11.491  0.00  0.00    +0.000 A 
ATOM     12  C   UNL     1       7.648   4.802  12.423  0.00  0.00    +0.000 A 
ATOM     13  C   UNL     1       7.239   4.841  13.761  0.00  0.00    +0.000 A 
ENDBRANCH   6   8
BRANCH   1  15
ATOM     14  O   UNL     1       3.222   3.548  18.271  0.00  0.00    +0.000 OA
ATOM     15  C   UNL     1       4.420   3.710  18.453  0.00  0.00    +0.000 C 
BRANCH  15  16
ATOM     16  O   UNL     1       5.134   2.866  19.249  0.00  0.00    +0.000 OA
ATOM     17  H   UNL     1       4.584   2.318  19.840  0.00  0.00    +0.000 HD
ENDBRANCH  15  16
ENDBRANCH   1  15
BRANCH   2  18
ATOM     18  C   UNL     1       3.260   6.491  18.084  0.00  0.00    +0.000 C 
BRANCH  18  19
ATOM     19  C   UNL     1       2.501   7.185  19.182  0.00  0.00    +0.000 A 
ATOM     20  C   UNL     1       2.179   6.648  20.415  0.00  0.00    +0.000 A 
ATOM     21  N   UNL     1       1.285   7.485  21.028  0.00  0.00    +0.000 N 
ATOM     22  C   UNL     1       1.053   8.592  20.247  0.00  0.00    +0.000 A 
ATOM     23  C   UNL     1       0.183   9.670  20.451  0.00  0.00    +0.000 A 
ATOM     24  C   UNL     1       0.165  10.681  19.488  0.00  0.00    +0.000 A 
ATOM     25  C   UNL     1       0.990  10.616  18.368  0.00  0.00    +0.000 A 
ATOM     26  C   UNL     1       1.827   9.510  18.161  0.00  0.00    +0.000 A 
ATOM     27  C   UNL     1       1.856   8.467  19.112  0.00  0.00    +0.000 A 
ATOM     28  H   UNL     1       0.827   7.301  21.910  0.00  0.00    +0.000 HD
ENDBRANCH  18  19
ENDBRANCH   2  18
TORSDOF 5
ENDMDL
MODEL 5
REMARK VINA RESULT:      -7.3      1.831      3.189
REMARK  Name = 
REMARK  5 active torsions:
REMARK  status: ('A' for Active; 'I' for Inactive)
REMARK    1  A    between atoms: C_2  and  O_3
REMARK    2  A    between atoms: C_2  and  C_4
REMARK    3  A    between atoms: C_5  and  C_6
REMARK    4  A    between atoms: C_6  and  C_7
REMARK    5  A    between atoms: C_19  and  C_21
REMARK                            x       y       z     vdW  Elec       q    Type
REMARK                         _______ _______ _______ _____ _____    ______ ____
ROOT
ATOM      1  C   UNL     1       6.528   6.427  17.613  0.00  0.00    +0.000 C 
ATOM      2  C   UNL     1       5.243   6.647  18.459  0.00  0.00    +0.000 C 
ATOM      3  C   UNL     1       4.208   6.839  17.347  0.00  0.00    +0.000 C 
ATOM      4  C   UNL     1       4.647   5.864  16.263  0.00  0.00    +0.000 C 
ATOM      5  N   UNL     1       6.051   5.569  16.517  0.00  0.00    +0.000 N 
ATOM      6  C   UNL     1       6.973   5.047  15.603  0.00  0.00    +0.000 C 
ATOM      7  O   UNL     1       8.178   5.152  15.809  0.00  0.00    +0.000 OA
ENDROOT
BRANCH   6   8
ATOM      8  C   UNL     1       6.518   4.405  14.319  0.00  0.00    +0.000 A 
ATOM      9  C   UNL     1       7.387   4.500  13.221  0.00  0.00    +0.000 A 
ATOM     10  C   UNL     1       7.007   4.032  11.958  0.00  0.00    +0.000 A 
ATOM     11  C   UNL     1       5.747   3.470  11.772  0.00  0.00    +0.000 A 
ATOM     12  C   UNL     1       4.896   3.318  12.860  0.00  0.00    +0.000 A 
ATOM     13  C   UNL     1       5.299   3.743  14.131  0.00  0.00    +0.000 A 
ENDBRANCH   6   8
BRANCH   1  15
ATOM     14  O   UNL     1       8.019   4.836  18.765  0.00  0.00    +0.000 OA
ATOM     15  C   UNL     1       7.738   5.987  18.464  0.00  0.00    +0.000 C 
BRANCH  15  16
ATOM     16  O   UNL     1       8.480   7.036  18.915  0.00  0.00    +0.000 OA
ATOM     17  H   UNL     1       8.370   7.854  18.394  0.00  0.00    +0.000 HD
ENDBRANCH  15  16
ENDBRANCH   1  15
BRANCH   2  18
ATOM     18  C   UNL     1       4.890   5.443  19.363  0.00  0.00    +0.000 C 
BRANCH  18  19
ATOM     19  C   UNL     1       3.423   5.212  19.604  0.00  0.00    +0.000 A 
ATOM     20  C   UNL     1       2.600   5.970  20.416  0.00  0.00    +0.000 A 
ATOM     21  N   UNL     1       1.413   5.305  20.568  0.00  0.00    +0.000 N 
ATOM     22  C   UNL     1       1.415   4.148  19.826  0.00  0.00    +0.000 A 
ATOM     23  C   UNL     1       0.444   3.144  19.721  0.00  0.00    +0.000 A 
ATOM     24  C   UNL     1       0.707   2.073  18.863  0.00  0.00    +0.000 A 
ATOM     25  C   UNL     1       1.893   2.014  18.137  0.00  0.00    +0.000 A 
ATOM     26  C   UNL     1       2.871   3.008  18.283  0.00  0.00    +0.000 A 
ATOM     27  C   UNL     1       2.638   4.095  19.153  0.00  0.00    +0.000 A 
ATOM     28  H   UNL     1       0.655   5.596  21.169  0.00  0.00    +0.000 HD
ENDBRANCH  18  19
ENDBRANCH   2  18
TORSDOF 5
ENDMDL
MODEL 6
REMARK VINA RESULT:      -7.3      4.178      6.456
REMARK  Name = 
REMARK  5 active torsions:
REMARK  status: ('A' for Active; 'I' for Inactive)
REMARK    1  A    between atoms: C_2  and  O_3
REMARK    2  A    between atoms: C_2  and  C_4
REMARK    3  A    between atoms: C_5  and  C_6
REMARK    4  A    between atoms: C_6  and  C_7
REMARK    5  A    between atoms: C_19  and  C_21
REMARK                            x       y       z     vdW  Elec       q    Type
REMARK                         _______ _______ _______ _____ _____    ______ ____
ROOT
ATOM      1  C   UNL     1       1.499   9.153  20.047  0.00  0.00    +0.000 C 
ATOM      2  C   UNL     1       0.929  10.289  19.151  0.00  0.00    +0.000 C 
ATOM      3  C   UNL     1       1.893  10.215  17.964  0.00  0.00    +0.000 C 
ATOM      4  C   UNL     1       2.160   8.725  17.798  0.00  0.00    +0.000 C 
ATOM      5  N   UNL     1       1.820   8.101  19.070  0.00  0.00    +0.000 N 
ATOM      6  C   UNL     1       2.246   6.849  19.525  0.00  0.00    +0.000 C 
ATOM      7  O   UNL     1       2.184   6.568  20.718  0.00  0.00    +0.000 OA
ENDROOT
BRANCH   6   8
ATOM      8  C   UNL     1       2.849   5.841  18.582  0.00  0.00    +0.000 A 
ATOM      9  C   UNL     1       2.012   4.803  18.143  0.00  0.00    +0.000 A 
ATOM     10  C   UNL     1       2.509   3.759  17.355  0.00  0.00    +0.000 A 
ATOM     11  C   UNL     1       3.854   3.733  17.000  0.00  0.00    +0.000 A 
ATOM     12  C   UNL     1       4.685   4.780  17.379  0.00  0.00    +0.000 A 
ATOM     13  C   UNL     1       4.173   5.847  18.126  0.00  0.00    +0.000 A 
ENDBRANCH   6   8
BRANCH   1  15
ATOM     14  O   UNL     1      -0.550   8.404  21.196  0.00  0.00    +0.000 OA
ATOM     15  C   UNL     1       0.593   8.831  21.255  0.00  0.00    +0.000 C 
BRANCH  15  16
ATOM     16  O   UNL     1       1.180   9.118  22.450  0.00  0.00    +0.000 OA
ATOM     17  H   UNL     1       1.226   8.359  23.062  0.00  0.00    +0.000 HD
ENDBRANCH  15  16
ENDBRANCH   1  15
BRANCH   2  18
ATOM     18  C   UNL     1      -0.534  10.050  18.712  0.00  0.00    +0.000 C 
BRANCH  18  19
ATOM     19  C   UNL     1      -1.529  11.090  19.151  0.00  0.00    +0.000 A 
ATOM     20  C   UNL     1      -1.436  11.881  20.281  0.00  0.00    +0.000 A 
ATOM     21  N   UNL     1      -2.637  12.514  20.463  0.00  0.00    +0.000 N 
ATOM     22  C   UNL     1      -3.503  12.198  19.443  0.00  0.00    +0.000 A 
ATOM     23  C   UNL     1      -4.839  12.571  19.250  0.00  0.00    +0.000 A 
ATOM     24  C   UNL     1      -5.480  12.114  18.096  0.00  0.00    +0.000 A 
ATOM     25  C   UNL     1      -4.807  11.319  17.172  0.00  0.00    +0.000 A 
ATOM     26  C   UNL     1      -3.481  10.924  17.401  0.00  0.00    +0.000 A 
ATOM     27  C   UNL     1      -2.813  11.360  18.565  0.00  0.00    +0.000 A 
ATOM     28  H   UNL     1      -2.873  13.097  21.253  0.00  0.00    +0.000 HD
ENDBRANCH  18  19
ENDBRANCH   2  18
TORSDOF 5
ENDMDL
MODEL 7
REMARK VINA RESULT:      -7.3      4.395      6.087
REMARK  Name = 
REMARK  5 active torsions:
REMARK  status: ('A' for Active; 'I' for Inactive)
REMARK    1  A    between atoms: C_2  and  O_3
REMARK    2  A    between atoms: C_2  and  C_4
REMARK    3  A    between atoms: C_5  and  C_6
REMARK    4  A    between atoms: C_6  and  C_7
REMARK    5  A    between atoms: C_19  and  C_21
REMARK                            x       y       z     vdW  Elec       q    Type
REMARK                         _______ _______ _______ _____ _____    ______ ____
ROOT
ATOM      1  C   UNL     1       2.167   7.889  19.951  0.00  0.00    +0.000 C 
ATOM      2  C   UNL     1       2.016   8.882  18.764  0.00  0.00    +0.000 C 
ATOM      3  C   UNL     1       2.962   8.243  17.745  0.00  0.00    +0.000 C 
ATOM      4  C   UNL     1       2.765   6.746  17.948  0.00  0.00    +0.000 C 
ATOM      5  N   UNL     1       2.193   6.582  19.277  0.00  0.00    +0.000 N 
ATOM      6  C   UNL     1       2.192   5.414  20.046  0.00  0.00    +0.000 C 
ATOM      7  O   UNL     1       1.993   5.468  21.256  0.00  0.00    +0.000 OA
ENDROOT
BRANCH   6   8
ATOM      8  C   UNL     1       2.497   4.075  19.429  0.00  0.00    +0.000 A 
ATOM      9  C   UNL     1       3.682   3.443  19.839  0.00  0.00    +0.000 A 
ATOM     10  C   UNL     1       4.107   2.250  19.242  0.00  0.00    +0.000 A 
ATOM     11  C   UNL     1       3.358   1.676  18.220  0.00  0.00    +0.000 A 
ATOM     12  C   UNL     1       2.155   2.258  17.840  0.00  0.00    +0.000 A 
ATOM     13  C   UNL     1       1.708   3.424  18.472  0.00  0.00    +0.000 A 
ENDBRANCH   6   8
BRANCH   1  15
ATOM     14  O   UNL     1      -0.034   7.866  21.061  0.00  0.00    +0.000 OA
ATOM     15  C   UNL     1       1.154   8.152  21.085  0.00  0.00    +0.000 C 
BRANCH  15  16
ATOM     16  O   UNL     1       1.703   8.800  22.149  0.00  0.00    +0.000 OA
ATOM     17  H   UNL     1       2.622   8.536  22.344  0.00  0.00    +0.000 HD
ENDBRANCH  15  16
ENDBRANCH   1  15
BRANCH   2  18
ATOM     18  C   UNL     1       0.572   8.974  18.221  0.00  0.00    +0.000 C 
BRANCH  18  19
ATOM     19  C   UNL     1      -0.179  10.233  18.561  0.00  0.00    +0.000 A 
ATOM     20  C   UNL     1       0.299  11.289  19.313  0.00  0.00    +0.000 A 
ATOM     21  N   UNL     1      -0.750  12.121  19.604  0.00  0.00    +0.000 N 
ATOM     22  C   UNL     1      -1.901  11.662  19.010  0.00  0.00    +0.000 A 
ATOM     23  C   UNL     1      -3.208  12.161  19.078  0.00  0.00    +0.000 A 
ATOM     24  C   UNL     1      -4.196  11.496  18.347  0.00  0.00    +0.000 A 
ATOM     25  C   UNL     1      -3.884  10.380  17.575  0.00  0.00    +0.000 A 
ATOM     26  C   UNL     1      -2.578   9.872  17.549  0.00  0.00    +0.000 A 
ATOM     27  C   UNL     1      -1.562  10.515  18.289  0.00  0.00    +0.000 A 
ATOM     28  H   UNL     1      -0.700  12.933  20.201  0.00  0.00    +0.000 HD
ENDBRANCH  18  19
ENDBRANCH   2  18
TORSDOF 5
ENDMDL
MODEL 8
REMARK VINA RESULT:      -7.3      4.174      6.505
REMARK  Name = 
REMARK  5 active torsions:
REMARK  status: ('A' for Active; 'I' for Inactive)
REMARK    1  A    between atoms: C_2  and  O_3
REMARK    2  A    between atoms: C_2  and  C_4
REMARK    3  A    between atoms: C_5  and  C_6
REMARK    4  A    between atoms: C_6  and  C_7
REMARK    5  A    between atoms: C_19  and  C_21
REMARK                            x       y       z     vdW  Elec       q    Type
REMARK                         _______ _______ _______ _____ _____    ______ ____
ROOT
ATOM      1  C   UNL     1       1.493   9.270  20.310  0.00  0.00    +0.000 C 
ATOM      2  C   UNL     1       0.574  10.289  19.579  0.00  0.00    +0.000 C 
ATOM      3  C   UNL     1       1.193  10.267  18.179  0.00  0.00    +0.000 C 
ATOM      4  C   UNL     1       1.587   8.810  17.973  0.00  0.00    +0.000 C 
ATOM      5  N   UNL     1       1.672   8.215  19.300  0.00  0.00    +0.000 N 
ATOM      6  C   UNL     1       2.352   7.042  19.646  0.00  0.00    +0.000 C 
ATOM      7  O   UNL     1       2.640   6.815  20.817  0.00  0.00    +0.000 OA
ENDROOT
BRANCH   6   8
ATOM      8  C   UNL     1       2.805   6.065  18.594  0.00  0.00    +0.000 A 
ATOM      9  C   UNL     1       2.002   4.931  18.395  0.00  0.00    +0.000 A 
ATOM     10  C   UNL     1       2.395   3.913  17.519  0.00  0.00    +0.000 A 
ATOM     11  C   UNL     1       3.603   4.008  16.836  0.00  0.00    +0.000 A 
ATOM     12  C   UNL     1       4.384   5.149  16.978  0.00  0.00    +0.000 A 
ATOM     13  C   UNL     1       3.964   6.187  17.818  0.00  0.00    +0.000 A 
ENDBRANCH   6   8
BRANCH   1  15
ATOM     14  O   UNL     1       1.419   9.348  22.773  0.00  0.00    +0.000 OA
ATOM     15  C   UNL     1       0.982   8.907  21.720  0.00  0.00    +0.000 C 
BRANCH  15  16
ATOM     16  O   UNL     1      -0.011   7.975  21.703  0.00  0.00    +0.000 OA
ATOM     17  H   UNL     1      -0.021   7.391  22.484  0.00  0.00    +0.000 HD
ENDBRANCH  15  16
ENDBRANCH   1  15
BRANCH   2  18
ATOM     18  C   UNL     1      -0.913   9.865  19.550  0.00  0.00    +0.000 C 
BRANCH  18  19
ATOM     19  C   UNL     1      -1.842  10.779  18.798  0.00  0.00    +0.000 A 
ATOM     20  C   UNL     1      -2.467  11.903  19.305  0.00  0.00    +0.000 A 
ATOM     21  N   UNL     1      -3.409  12.316  18.401  0.00  0.00    +0.000 N 
ATOM     22  C   UNL     1      -3.380  11.518  17.282  0.00  0.00    +0.000 A 
ATOM     23  C   UNL     1      -4.190  11.541  16.140  0.00  0.00    +0.000 A 
ATOM     24  C   UNL     1      -3.919  10.611  15.133  0.00  0.00    +0.000 A 
ATOM     25  C   UNL     1      -2.875   9.700  15.264  0.00  0.00    +0.000 A 
ATOM     26  C   UNL     1      -2.097   9.667  16.431  0.00  0.00    +0.000 A 
ATOM     27  C   UNL     1      -2.358  10.586  17.470  0.00  0.00    +0.000 A 
ATOM     28  H   UNL     1      -4.063  13.072  18.547  0.00  0.00    +0.000 HD
ENDBRANCH  18  19
ENDBRANCH   2  18
TORSDOF 5
ENDMDL
MODEL 9
REMARK VINA RESULT:      -7.3      1.757      2.281
REMARK  Name = 
REMARK  5 active torsions:
REMARK  status: ('A' for Active; 'I' for Inactive)
REMARK    1  A    between atoms: C_2  and  O_3
REMARK    2  A    between atoms: C_2  and  C_4
REMARK    3  A    between atoms: C_5  and  C_6
REMARK    4  A    between atoms: C_6  and  C_7
REMARK    5  A    between atoms: C_19  and  C_21
REMARK                            x       y       z     vdW  Elec       q    Type
REMARK                         _______ _______ _______ _____ _____    ______ ____
ROOT
ATOM      1  C   UNL     1       4.773   5.041  18.018  0.00  0.00    +0.000 C 
ATOM      2  C   UNL     1       4.147   6.416  18.389  0.00  0.00    +0.000 C 
ATOM      3  C   UNL     1       5.049   7.356  17.585  0.00  0.00    +0.000 C 
ATOM      4  C   UNL     1       5.321   6.593  16.296  0.00  0.00    +0.000 C 
ATOM      5  N   UNL     1       5.053   5.190  16.582  0.00  0.00    +0.000 N 
ATOM      6  C   UNL     1       5.514   4.088  15.854  0.00  0.00    +0.000 C 
ATOM      7  O   UNL     1       5.515   2.969  16.359  0.00  0.00    +0.000 OA
ENDROOT
BRANCH   6   8
ATOM      8  C   UNL     1       6.077   4.250  14.467  0.00  0.00    +0.000 A 
ATOM      9  C   UNL     1       5.448   3.530  13.440  0.00  0.00    +0.000 A 
ATOM     10  C   UNL     1       5.964   3.529  12.139  0.00  0.00    +0.000 A 
ATOM     11  C   UNL     1       7.123   4.241  11.847  0.00  0.00    +0.000 A 
ATOM     12  C   UNL     1       7.728   5.003  12.840  0.00  0.00    +0.000 A 
ATOM     13  C   UNL     1       7.181   5.041  14.127  0.00  0.00    +0.000 A 
ENDBRANCH   6   8
BRANCH   1  15
ATOM     14  O   UNL     1       4.092   3.257  19.577  0.00  0.00    +0.000 OA
ATOM     15  C   UNL     1       3.933   3.847  18.519  0.00  0.00    +0.000 C 
BRANCH  15  16
ATOM     16  O   UNL     1       2.985   3.451  17.624  0.00  0.00    +0.000 OA
ATOM     17  H   UNL     1       2.092   3.364  18.006  0.00  0.00    +0.000 HD
ENDBRANCH  15  16
ENDBRANCH   1  15
BRANCH   2  18
ATOM     18  C   UNL     1       2.666   6.550  17.967  0.00  0.00    +0.000 C 
BRANCH  18  19
ATOM     19  C   UNL     1       2.019   7.877  18.256  0.00  0.00    +0.000 A 
ATOM     20  C   UNL     1       1.870   8.923  17.364  0.00  0.00    +0.000 A 
ATOM     21  N   UNL     1       1.465  10.029  18.062  0.00  0.00    +0.000 N 
ATOM     22  C   UNL     1       1.289   9.719  19.389  0.00  0.00    +0.000 A 
ATOM     23  C   UNL     1       0.935  10.542  20.466  0.00  0.00    +0.000 A 
ATOM     24  C   UNL     1       0.807   9.947  21.723  0.00  0.00    +0.000 A 
ATOM     25  C   UNL     1       1.021   8.581  21.892  0.00  0.00    +0.000 A 
ATOM     26  C   UNL     1       1.411   7.780  20.811  0.00  0.00    +0.000 A 
ATOM     27  C   UNL     1       1.562   8.357  19.531  0.00  0.00    +0.000 A 
ATOM     28  H   UNL     1       1.349  10.953  17.671  0.00  0.00    +0.000 HD
ENDBRANCH  18  19
ENDBRANCH   2  18
TORSDOF 5
ENDMDL
