MODEL 1
REMARK VINA RESULT:      -7.7      0.000      0.000
REMARK  Name = 
REMARK  9 active torsions:
REMARK  status: ('A' for Active; 'I' for Inactive)
REMARK    1  A    between atoms: C_1  and  N_2
REMARK    2  A    between atoms: N_2  and  C_3
REMARK    3  A    between atoms: N_2  and  C_4
REMARK    4  A    between atoms: C_4  and  C_5
REMARK    5  A    between atoms: C_5  and  O_6
REMARK    6  A    between atoms: O_6  and  C_7
REMARK    7  A    between atoms: C_11  and  N_12
REMARK    8  A    between atoms: N_17  and  C_18
REMARK    9  A    between atoms: C_18  and  C_19
REMARK                            x       y       z     vdW  Elec       q    Type
REMARK                         _______ _______ _______ _____ _____    ______ ____
ROOT
ATOM      1  N   UNL     1       5.467   3.584  16.717  0.00  0.00    +0.000 N 
ATOM      2  C   UNL     1       6.354   4.642  16.970  0.00  0.00    +0.000 A 
ATOM      3  N   UNL     1       6.478   5.111  18.228  0.00  0.00    +0.000 NA
ATOM      4  N   UNL     1       7.099   6.303  18.459  0.00  0.00    +0.000 NA
ATOM      5  C   UNL     1       7.632   6.987  17.436  0.00  0.00    +0.000 A 
ATOM      6  N   UNL     1       8.085   8.278  17.624  0.00  0.00    +0.000 N 
ATOM      7  N   UNL     1       7.620   6.465  16.196  0.00  0.00    +0.000 NA
ATOM      8  N   UNL     1       6.972   5.269  15.957  0.00  0.00    +0.000 NA
ATOM      9  H   UNL     1       5.351   3.479  15.713  0.00  0.00    +0.000 HD
ATOM     10  H   UNL     1       8.555   8.652  16.812  0.00  0.00    +0.000 HD
ENDROOT
BRANCH   1  15
ATOM     11  C   UNL     1       2.447   4.308  18.817  0.00  0.00    +0.000 A 
ATOM     12  C   UNL     1       1.959   3.015  18.997  0.00  0.00    +0.000 A 
ATOM     13  C   UNL     1       2.573   1.937  18.362  0.00  0.00    +0.000 A 
ATOM     14  C   UNL     1       3.709   2.132  17.569  0.00  0.00    +0.000 A 
ATOM     15  C   UNL     1       4.260   3.404  17.436  0.00  0.00    +0.000 A 
ATOM     16  C   UNL     1       3.588   4.492  18.030  0.00  0.00    +0.000 A 
BRANCH  11  17
ATOM     17  O   UNL     1       1.796   5.300  19.498  0.00  0.00    +0.000 OA
BRANCH  17  18
ATOM     18  C   UNL     1       2.623   6.386  19.929  0.00  0.00    +0.000 C 
BRANCH  18  19
ATOM     19  C   UNL     1       1.979   7.727  19.534  0.00  0.00    +0.000 C 
BRANCH  19  21
ATOM     20  C   UNL     1       1.565   9.387  17.833  0.00  0.00    +0.000 C 
ATOM     21  N   UNL     1       2.083   8.041  18.092  0.00  0.00    +0.000 NA
ATOM     22  C   UNL     1       3.457   7.944  17.594  0.00  0.00    +0.000 C 
ENDBRANCH  19  21
ENDBRANCH  18  19
ENDBRANCH  17  18
ENDBRANCH  11  17
ENDBRANCH   1  15
BRANCH   6  23
ATOM     23  C   UNL     1       8.610   8.625  18.929  0.00  0.00    +0.000 C 
BRANCH  23  24
ATOM     24  C   UNL     1       9.026  10.074  18.896  0.00  0.00    +0.000 A 
ATOM     25  C   UNL     1       9.792  10.605  19.945  0.00  0.00    +0.000 A 
ATOM     26  C   UNL     1      10.080  11.968  19.993  0.00  0.00    +0.000 A 
ATOM     27  C   UNL     1       9.618  12.812  18.984  0.00  0.00    +0.000 A 
ATOM     28  C   UNL     1       8.886  12.290  17.919  0.00  0.00    +0.000 A 
ATOM     29  C   UNL     1       8.586  10.927  17.875  0.00  0.00    +0.000 A 
ENDBRANCH  23  24
ENDBRANCH   6  23
TORSDOF 7
ENDMDL
MODEL 2
REMARK VINA RESULT:      -7.7      1.000      1.526
REMARK  Name = 
REMARK  9 active torsions:
REMARK  status: ('A' for Active; 'I' for Inactive)
REMARK    1  A    between atoms: C_1  and  N_2
REMARK    2  A    between atoms: N_2  and  C_3
REMARK    3  A    between atoms: N_2  and  C_4
REMARK    4  A    between atoms: C_4  and  C_5
REMARK    5  A    between atoms: C_5  and  O_6
REMARK    6  A    between atoms: O_6  and  C_7
REMARK    7  A    between atoms: C_11  and  N_12
REMARK    8  A    between atoms: N_17  and  C_18
REMARK    9  A    between atoms: C_18  and  C_19
REMARK                            x       y       z     vdW  Elec       q    Type
REMARK                         _______ _______ _______ _____ _____    ______ ____
ROOT
ATOM      1  N   UNL     1       5.228   3.713  17.378  0.00  0.00    +0.000 N 
ATOM      2  C   UNL     1       6.158   4.764  17.394  0.00  0.00    +0.000 A 
ATOM      3  N   UNL     1       6.465   5.354  18.567  0.00  0.00    +0.000 NA
ATOM      4  N   UNL     1       7.131   6.543  18.585  0.00  0.00    +0.000 NA
ATOM      5  C   UNL     1       7.526   7.104  17.433  0.00  0.00    +0.000 A 
ATOM      6  N   UNL     1       8.021   8.393  17.421  0.00  0.00    +0.000 N 
ATOM      7  N   UNL     1       7.332   6.460  16.267  0.00  0.00    +0.000 NA
ATOM      8  N   UNL     1       6.639   5.266  16.246  0.00  0.00    +0.000 NA
ATOM      9  H   UNL     1       4.971   3.510  16.416  0.00  0.00    +0.000 HD
ATOM     10  H   UNL     1       8.379   8.669  16.517  0.00  0.00    +0.000 HD
ENDROOT
BRANCH   1  15
ATOM     11  C   UNL     1       2.465   4.748  19.691  0.00  0.00    +0.000 A 
ATOM     12  C   UNL     1       2.066   3.501  20.167  0.00  0.00    +0.000 A 
ATOM     13  C   UNL     1       2.645   2.337  19.665  0.00  0.00    +0.000 A 
ATOM     14  C   UNL     1       3.661   2.406  18.706  0.00  0.00    +0.000 A 
ATOM     15  C   UNL     1       4.131   3.644  18.271  0.00  0.00    +0.000 A 
ATOM     16  C   UNL     1       3.489   4.807  18.740  0.00  0.00    +0.000 A 
BRANCH  11  17
ATOM     17  O   UNL     1       1.859   5.835  20.259  0.00  0.00    +0.000 OA
BRANCH  17  18
ATOM     18  C   UNL     1       2.270   7.103  19.737  0.00  0.00    +0.000 C 
BRANCH  18  19
ATOM     19  C   UNL     1       1.388   8.222  20.317  0.00  0.00    +0.000 C 
BRANCH  19  21
ATOM     20  C   UNL     1       1.437   9.199  18.111  0.00  0.00    +0.000 C 
ATOM     21  N   UNL     1       1.440   9.485  19.549  0.00  0.00    +0.000 NA
ATOM     22  C   UNL     1       0.327  10.383  19.868  0.00  0.00    +0.000 C 
ENDBRANCH  19  21
ENDBRANCH  18  19
ENDBRANCH  17  18
ENDBRANCH  11  17
ENDBRANCH   1  15
BRANCH   6  23
ATOM     23  C   UNL     1       8.730   8.854  18.598  0.00  0.00    +0.000 C 
BRANCH  23  24
ATOM     24  C   UNL     1       9.006  10.328  18.431  0.00  0.00    +0.000 A 
ATOM     25  C   UNL     1       8.088  11.136  17.743  0.00  0.00    +0.000 A 
ATOM     26  C   UNL     1       8.383  12.471  17.473  0.00  0.00    +0.000 A 
ATOM     27  C   UNL     1       9.593  13.016  17.900  0.00  0.00    +0.000 A 
ATOM     28  C   UNL     1      10.498  12.231  18.613  0.00  0.00    +0.000 A 
ATOM     29  C   UNL     1      10.209  10.890  18.876  0.00  0.00    +0.000 A 
ENDBRANCH  23  24
ENDBRANCH   6  23
TORSDOF 7
ENDMDL
MODEL 3
REMARK VINA RESULT:      -7.6      1.484      1.645
REMARK  Name = 
REMARK  9 active torsions:
REMARK  status: ('A' for Active; 'I' for Inactive)
REMARK    1  A    between atoms: C_1  and  N_2
REMARK    2  A    between atoms: N_2  and  C_3
REMARK    3  A    between atoms: N_2  and  C_4
REMARK    4  A    between atoms: C_4  and  C_5
REMARK    5  A    between atoms: C_5  and  O_6
REMARK    6  A    between atoms: O_6  and  C_7
REMARK    7  A    between atoms: C_11  and  N_12
REMARK    8  A    between atoms: N_17  and  C_18
REMARK    9  A    between atoms: C_18  and  C_19
REMARK                            x       y       z     vdW  Elec       q    Type
REMARK                         _______ _______ _______ _____ _____    ______ ____
ROOT
ATOM      1  N   UNL     1       5.070   3.580  18.160  0.00  0.00    +0.000 N 
ATOM      2  C   UNL     1       6.022   4.599  18.002  0.00  0.00    +0.000 A 
ATOM      3  N   UNL     1       6.468   5.258  19.091  0.00  0.00    +0.000 NA
ATOM      4  N   UNL     1       7.162   6.423  18.952  0.00  0.00    +0.000 NA
ATOM      5  C   UNL     1       7.444   6.891  17.728  0.00  0.00    +0.000 A 
ATOM      6  N   UNL     1       7.968   8.159  17.571  0.00  0.00    +0.000 N 
ATOM      7  N   UNL     1       7.110   6.175  16.639  0.00  0.00    +0.000 NA
ATOM      8  N   UNL     1       6.388   5.005  16.777  0.00  0.00    +0.000 NA
ATOM      9  H   UNL     1       4.706   3.321  17.248  0.00  0.00    +0.000 HD
ATOM     10  H   UNL     1       8.233   8.360  16.617  0.00  0.00    +0.000 HD
ENDROOT
BRANCH   1  15
ATOM     11  C   UNL     1       2.261   4.770  20.339  0.00  0.00    +0.000 A 
ATOM     12  C   UNL     1       2.214   3.729  21.266  0.00  0.00    +0.000 A 
ATOM     13  C   UNL     1       3.040   2.617  21.118  0.00  0.00    +0.000 A 
ATOM     14  C   UNL     1       3.954   2.547  20.061  0.00  0.00    +0.000 A 
ATOM     15  C   UNL     1       4.073   3.608  19.167  0.00  0.00    +0.000 A 
ATOM     16  C   UNL     1       3.185   4.694  19.292  0.00  0.00    +0.000 A 
BRANCH  11  17
ATOM     17  O   UNL     1       1.431   5.830  20.579  0.00  0.00    +0.000 OA
BRANCH  17  18
ATOM     18  C   UNL     1       2.020   7.120  20.383  0.00  0.00    +0.000 C 
BRANCH  18  19
ATOM     19  C   UNL     1       1.232   8.184  21.168  0.00  0.00    +0.000 C 
BRANCH  19  21
ATOM     20  C   UNL     1       0.785  10.547  20.980  0.00  0.00    +0.000 C 
ATOM     21  N   UNL     1       0.650   9.246  20.319  0.00  0.00    +0.000 NA
ATOM     22  C   UNL     1       1.270   9.307  18.993  0.00  0.00    +0.000 C 
ENDBRANCH  19  21
ENDBRANCH  18  19
ENDBRANCH  17  18
ENDBRANCH  11  17
ENDBRANCH   1  15
BRANCH   6  23
ATOM     23  C   UNL     1       8.810   8.676  18.630  0.00  0.00    +0.000 C 
BRANCH  23  24
ATOM     24  C   UNL     1       8.969  10.161  18.419  0.00  0.00    +0.000 A 
ATOM     25  C   UNL     1       9.948  10.867  19.134  0.00  0.00    +0.000 A 
ATOM     26  C   UNL     1      10.028  12.256  19.044  0.00  0.00    +0.000 A 
ATOM     27  C   UNL     1       9.139  12.952  18.226  0.00  0.00    +0.000 A 
ATOM     28  C   UNL     1       8.184  12.257  17.485  0.00  0.00    +0.000 A 
ATOM     29  C   UNL     1       8.095  10.867  17.582  0.00  0.00    +0.000 A 
ENDBRANCH  23  24
ENDBRANCH   6  23
TORSDOF 7
ENDMDL
MODEL 4
REMARK VINA RESULT:      -7.6      1.341      1.594
REMARK  Name = 
REMARK  9 active torsions:
REMARK  status: ('A' for Active; 'I' for Inactive)
REMARK    1  A    between atoms: C_1  and  N_2
REMARK    2  A    between atoms: N_2  and  C_3
REMARK    3  A    between atoms: N_2  and  C_4
REMARK    4  A    between atoms: C_4  and  C_5
REMARK    5  A    between atoms: C_5  and  O_6
REMARK    6  A    between atoms: O_6  and  C_7
REMARK    7  A    between atoms: C_11  and  N_12
REMARK    8  A    between atoms: N_17  and  C_18
REMARK    9  A    between atoms: C_18  and  C_19
REMARK                            x       y       z     vdW  Elec       q    Type
REMARK                         _______ _______ _______ _____ _____    ______ ____
ROOT
ATOM      1  N   UNL     1       4.289   3.785  16.930  0.00  0.00    +0.000 N 
ATOM      2  C   UNL     1       5.361   4.686  17.024  0.00  0.00    +0.000 A 
ATOM      3  N   UNL     1       5.748   5.125  18.239  0.00  0.00    +0.000 NA
ATOM      4  N   UNL     1       6.580   6.199  18.348  0.00  0.00    +0.000 NA
ATOM      5  C   UNL     1       7.054   6.792  17.242  0.00  0.00    +0.000 A 
ATOM      6  N   UNL     1       7.731   7.991  17.332  0.00  0.00    +0.000 N 
ATOM      7  N   UNL     1       6.771   6.282  16.029  0.00  0.00    +0.000 NA
ATOM      8  N   UNL     1       5.912   5.207  15.917  0.00  0.00    +0.000 NA
ATOM      9  H   UNL     1       4.007   3.703  15.958  0.00  0.00    +0.000 HD
ATOM     10  H   UNL     1       8.127   8.288  16.451  0.00  0.00    +0.000 HD
ENDROOT
BRANCH   1  15
ATOM     11  C   UNL     1       1.949   4.858  19.656  0.00  0.00    +0.000 A 
ATOM     12  C   UNL     1       1.111   3.746  19.709  0.00  0.00    +0.000 A 
ATOM     13  C   UNL     1       1.269   2.701  18.801  0.00  0.00    +0.000 A 
ATOM     14  C   UNL     1       2.294   2.736  17.849  0.00  0.00    +0.000 A 
ATOM     15  C   UNL     1       3.191   3.801  17.826  0.00  0.00    +0.000 A 
ATOM     16  C   UNL     1       2.976   4.879  18.707  0.00  0.00    +0.000 A 
BRANCH  11  17
ATOM     17  O   UNL     1       1.735   5.823  20.602  0.00  0.00    +0.000 OA
BRANCH  17  18
ATOM     18  C   UNL     1       1.878   7.170  20.140  0.00  0.00    +0.000 C 
BRANCH  18  19
ATOM     19  C   UNL     1       1.348   8.150  21.201  0.00  0.00    +0.000 C 
BRANCH  19  21
ATOM     20  C   UNL     1      -0.119   9.980  21.769  0.00  0.00    +0.000 C 
ATOM     21  N   UNL     1       0.342   9.105  20.687  0.00  0.00    +0.000 NA
ATOM     22  C   UNL     1       0.856   9.923  19.586  0.00  0.00    +0.000 C 
ENDBRANCH  19  21
ENDBRANCH  18  19
ENDBRANCH  17  18
ENDBRANCH  11  17
ENDBRANCH   1  15
BRANCH   6  23
ATOM     23  C   UNL     1       8.497   8.245  18.536  0.00  0.00    +0.000 C 
BRANCH  23  24
ATOM     24  C   UNL     1       8.811   9.720  18.589  0.00  0.00    +0.000 A 
ATOM     25  C   UNL     1       9.466  10.254  19.709  0.00  0.00    +0.000 A 
ATOM     26  C   UNL     1       9.654  11.630  19.830  0.00  0.00    +0.000 A 
ATOM     27  C   UNL     1       9.202  12.484  18.827  0.00  0.00    +0.000 A 
ATOM     28  C   UNL     1       8.580  11.962  17.693  0.00  0.00    +0.000 A 
ATOM     29  C   UNL     1       8.381  10.585  17.574  0.00  0.00    +0.000 A 
ENDBRANCH  23  24
ENDBRANCH   6  23
TORSDOF 7
ENDMDL
MODEL 5
REMARK VINA RESULT:      -7.6      0.714      1.100
REMARK  Name = 
REMARK  9 active torsions:
REMARK  status: ('A' for Active; 'I' for Inactive)
REMARK    1  A    between atoms: C_1  and  N_2
REMARK    2  A    between atoms: N_2  and  C_3
REMARK    3  A    between atoms: N_2  and  C_4
REMARK    4  A    between atoms: C_4  and  C_5
REMARK    5  A    between atoms: C_5  and  O_6
REMARK    6  A    between atoms: O_6  and  C_7
REMARK    7  A    between atoms: C_11  and  N_12
REMARK    8  A    between atoms: N_17  and  C_18
REMARK    9  A    between atoms: C_18  and  C_19
REMARK                            x       y       z     vdW  Elec       q    Type
REMARK                         _______ _______ _______ _____ _____    ______ ____
ROOT
ATOM      1  N   UNL     1       5.510   3.696  16.747  0.00  0.00    +0.000 N 
ATOM      2  C   UNL     1       6.397   4.755  16.996  0.00  0.00    +0.000 A 
ATOM      3  N   UNL     1       6.560   5.194  18.261  0.00  0.00    +0.000 NA
ATOM      4  N   UNL     1       7.179   6.384  18.501  0.00  0.00    +0.000 NA
ATOM      5  C   UNL     1       7.672   7.098  17.479  0.00  0.00    +0.000 A 
ATOM      6  N   UNL     1       8.122   8.387  17.685  0.00  0.00    +0.000 N 
ATOM      7  N   UNL     1       7.623   6.607  16.227  0.00  0.00    +0.000 NA
ATOM      8  N   UNL     1       6.977   5.412  15.980  0.00  0.00    +0.000 NA
ATOM      9  H   UNL     1       5.362   3.616  15.745  0.00  0.00    +0.000 HD
ATOM     10  H   UNL     1       8.562   8.786  16.867  0.00  0.00    +0.000 HD
ENDROOT
BRANCH   1  15
ATOM     11  C   UNL     1       2.417   4.375  18.753  0.00  0.00    +0.000 A 
ATOM     12  C   UNL     1       2.083   3.077  19.132  0.00  0.00    +0.000 A 
ATOM     13  C   UNL     1       2.821   1.993  18.660  0.00  0.00    +0.000 A 
ATOM     14  C   UNL     1       3.930   2.196  17.831  0.00  0.00    +0.000 A 
ATOM     15  C   UNL     1       4.329   3.489  17.501  0.00  0.00    +0.000 A 
ATOM     16  C   UNL     1       3.532   4.568  17.932  0.00  0.00    +0.000 A 
BRANCH  11  17
ATOM     17  O   UNL     1       1.651   5.376  19.284  0.00  0.00    +0.000 OA
BRANCH  17  18
ATOM     18  C   UNL     1       2.378   6.392  19.984  0.00  0.00    +0.000 C 
BRANCH  18  19
ATOM     19  C   UNL     1       2.138   7.761  19.325  0.00  0.00    +0.000 C 
BRANCH  19  21
ATOM     20  C   UNL     1       1.315   8.625  21.422  0.00  0.00    +0.000 C 
ATOM     21  N   UNL     1       1.079   8.563  19.977  0.00  0.00    +0.000 NA
ATOM     22  C   UNL     1       0.993   9.922  19.438  0.00  0.00    +0.000 C 
ENDBRANCH  19  21
ENDBRANCH  18  19
ENDBRANCH  17  18
ENDBRANCH  11  17
ENDBRANCH   1  15
BRANCH   6  23
ATOM     23  C   UNL     1       8.688   8.706  18.980  0.00  0.00    +0.000 C 
BRANCH  23  24
ATOM     24  C   UNL     1       9.086  10.161  18.972  0.00  0.00    +0.000 A 
ATOM     25  C   UNL     1       9.689  10.726  20.106  0.00  0.00    +0.000 A 
ATOM     26  C   UNL     1       9.951  12.094  20.162  0.00  0.00    +0.000 A 
ATOM     27  C   UNL     1       9.627  12.908  19.078  0.00  0.00    +0.000 A 
ATOM     28  C   UNL     1       9.059  12.352  17.933  0.00  0.00    +0.000 A 
ATOM     29  C   UNL     1       8.786  10.984  17.878  0.00  0.00    +0.000 A 
ENDBRANCH  23  24
ENDBRANCH   6  23
TORSDOF 7
ENDMDL
MODEL 6
REMARK VINA RESULT:      -7.5      4.344      7.658
REMARK  Name = 
REMARK  9 active torsions:
REMARK  status: ('A' for Active; 'I' for Inactive)
REMARK    1  A    between atoms: C_1  and  N_2
REMARK    2  A    between atoms: N_2  and  C_3
REMARK    3  A    between atoms: N_2  and  C_4
REMARK    4  A    between atoms: C_4  and  C_5
REMARK    5  A    between atoms: C_5  and  O_6
REMARK    6  A    between atoms: O_6  and  C_7
REMARK    7  A    between atoms: C_11  and  N_12
REMARK    8  A    between atoms: N_17  and  C_18
REMARK    9  A    between atoms: C_18  and  C_19
REMARK                            x       y       z     vdW  Elec       q    Type
REMARK                         _______ _______ _______ _____ _____    ______ ____
ROOT
ATOM      1  N   UNL     1       3.591   4.216  18.909  0.00  0.00    +0.000 N 
ATOM      2  C   UNL     1       2.769   5.271  19.331  0.00  0.00    +0.000 A 
ATOM      3  N   UNL     1       2.727   6.406  18.603  0.00  0.00    +0.000 NA
ATOM      4  N   UNL     1       2.174   7.537  19.125  0.00  0.00    +0.000 NA
ATOM      5  C   UNL     1       1.626   7.509  20.349  0.00  0.00    +0.000 A 
ATOM      6  N   UNL     1       1.243   8.684  20.966  0.00  0.00    +0.000 N 
ATOM      7  N   UNL     1       1.553   6.351  21.030  0.00  0.00    +0.000 NA
ATOM      8  N   UNL     1       2.132   5.209  20.511  0.00  0.00    +0.000 NA
ATOM      9  H   UNL     1       3.654   3.525  19.651  0.00  0.00    +0.000 HD
ATOM     10  H   UNL     1       0.753   8.530  21.836  0.00  0.00    +0.000 HD
ENDROOT
BRANCH   1  15
ATOM     11  C   UNL     1       6.260   4.104  16.279  0.00  0.00    +0.000 A 
ATOM     12  C   UNL     1       7.316   4.686  16.978  0.00  0.00    +0.000 A 
ATOM     13  C   UNL     1       7.119   5.183  18.265  0.00  0.00    +0.000 A 
ATOM     14  C   UNL     1       5.871   5.069  18.887  0.00  0.00    +0.000 A 
ATOM     15  C   UNL     1       4.822   4.421  18.238  0.00  0.00    +0.000 A 
ATOM     16  C   UNL     1       5.019   3.985  16.913  0.00  0.00    +0.000 A 
BRANCH  11  17
ATOM     17  O   UNL     1       6.552   3.623  15.032  0.00  0.00    +0.000 OA
BRANCH  17  18
ATOM     18  C   UNL     1       5.805   4.212  13.962  0.00  0.00    +0.000 C 
BRANCH  18  19
ATOM     19  C   UNL     1       6.282   3.648  12.613  0.00  0.00    +0.000 C 
BRANCH  19  21
ATOM     20  C   UNL     1       4.290   3.199  11.327  0.00  0.00    +0.000 C 
ATOM     21  N   UNL     1       5.404   2.592  12.061  0.00  0.00    +0.000 NA
ATOM     22  C   UNL     1       6.123   1.670  11.178  0.00  0.00    +0.000 C 
ENDBRANCH  19  21
ENDBRANCH  18  19
ENDBRANCH  17  18
ENDBRANCH  11  17
ENDBRANCH   1  15
BRANCH   6  23
ATOM     23  C   UNL     1       0.798   9.775  20.123  0.00  0.00    +0.000 C 
BRANCH  23  24
ATOM     24  C   UNL     1      -0.129  10.645  20.935  0.00  0.00    +0.000 A 
ATOM     25  C   UNL     1      -0.267  10.422  22.313  0.00  0.00    +0.000 A 
ATOM     26  C   UNL     1      -1.209  11.134  23.055  0.00  0.00    +0.000 A 
ATOM     27  C   UNL     1      -2.010  12.088  22.430  0.00  0.00    +0.000 A 
ATOM     28  C   UNL     1      -1.857  12.342  21.068  0.00  0.00    +0.000 A 
ATOM     29  C   UNL     1      -0.922  11.623  20.320  0.00  0.00    +0.000 A 
ENDBRANCH  23  24
ENDBRANCH   6  23
TORSDOF 7
ENDMDL
MODEL 7
REMARK VINA RESULT:      -7.4      4.328      7.095
REMARK  Name = 
REMARK  9 active torsions:
REMARK  status: ('A' for Active; 'I' for Inactive)
REMARK    1  A    between atoms: C_1  and  N_2
REMARK    2  A    between atoms: N_2  and  C_3
REMARK    3  A    between atoms: N_2  and  C_4
REMARK    4  A    between atoms: C_4  and  C_5
REMARK    5  A    between atoms: C_5  and  O_6
REMARK    6  A    between atoms: O_6  and  C_7
REMARK    7  A    between atoms: C_11  and  N_12
REMARK    8  A    between atoms: N_17  and  C_18
REMARK    9  A    between atoms: C_18  and  C_19
REMARK                            x       y       z     vdW  Elec       q    Type
REMARK                         _______ _______ _______ _____ _____    ______ ____
ROOT
ATOM      1  N   UNL     1       3.551   7.318  17.346  0.00  0.00    +0.000 N 
ATOM      2  C   UNL     1       2.706   8.135  18.113  0.00  0.00    +0.000 A 
ATOM      3  N   UNL     1       2.550   7.873  19.426  0.00  0.00    +0.000 NA
ATOM      4  N   UNL     1       1.535   8.455  20.127  0.00  0.00    +0.000 NA
ATOM      5  C   UNL     1       0.719   9.328  19.520  0.00  0.00    +0.000 A 
ATOM      6  N   UNL     1      -0.423   9.771  20.156  0.00  0.00    +0.000 N 
ATOM      7  N   UNL     1       0.945   9.688  18.243  0.00  0.00    +0.000 NA
ATOM      8  N   UNL     1       1.959   9.084  17.526  0.00  0.00    +0.000 NA
ATOM      9  H   UNL     1       3.413   7.527  16.362  0.00  0.00    +0.000 HD
ATOM     10  H   UNL     1      -0.902  10.499  19.646  0.00  0.00    +0.000 HD
ENDROOT
BRANCH   1  15
ATOM     11  C   UNL     1       2.788   3.678  17.819  0.00  0.00    +0.000 A 
ATOM     12  C   UNL     1       4.028   3.226  18.267  0.00  0.00    +0.000 A 
ATOM     13  C   UNL     1       5.115   4.096  18.328  0.00  0.00    +0.000 A 
ATOM     14  C   UNL     1       4.968   5.442  17.978  0.00  0.00    +0.000 A 
ATOM     15  C   UNL     1       3.720   5.935  17.601  0.00  0.00    +0.000 A 
ATOM     16  C   UNL     1       2.649   5.028  17.481  0.00  0.00    +0.000 A 
BRANCH  11  17
ATOM     17  O   UNL     1       1.774   2.760  17.816  0.00  0.00    +0.000 OA
BRANCH  17  18
ATOM     18  C   UNL     1       1.514   2.137  19.079  0.00  0.00    +0.000 C 
BRANCH  18  19
ATOM     19  C   UNL     1       0.721   3.095  19.985  0.00  0.00    +0.000 C 
BRANCH  19  21
ATOM     20  C   UNL     1       2.475   2.499  21.532  0.00  0.00    +0.000 C 
ATOM     21  N   UNL     1       1.442   3.491  21.215  0.00  0.00    +0.000 NA
ATOM     22  C   UNL     1       2.058   4.815  21.103  0.00  0.00    +0.000 C 
ENDBRANCH  19  21
ENDBRANCH  18  19
ENDBRANCH  17  18
ENDBRANCH  11  17
ENDBRANCH   1  15
BRANCH   6  23
ATOM     23  C   UNL     1      -0.396   9.865  21.602  0.00  0.00    +0.000 C 
BRANCH  23  24
ATOM     24  C   UNL     1      -0.658  11.301  21.982  0.00  0.00    +0.000 A 
ATOM     25  C   UNL     1       0.166  12.318  21.478  0.00  0.00    +0.000 A 
ATOM     26  C   UNL     1       0.016  13.634  21.915  0.00  0.00    +0.000 A 
ATOM     27  C   UNL     1      -0.970  13.948  22.848  0.00  0.00    +0.000 A 
ATOM     28  C   UNL     1      -1.818  12.952  23.329  0.00  0.00    +0.000 A 
ATOM     29  C   UNL     1      -1.662  11.632  22.902  0.00  0.00    +0.000 A 
ENDBRANCH  23  24
ENDBRANCH   6  23
TORSDOF 7
ENDMDL
MODEL 8
REMARK VINA RESULT:      -7.4      4.114      7.901
REMARK  Name = 
REMARK  9 active torsions:
REMARK  status: ('A' for Active; 'I' for Inactive)
REMARK    1  A    between atoms: C_1  and  N_2
REMARK    2  A    between atoms: N_2  and  C_3
REMARK    3  A    between atoms: N_2  and  C_4
REMARK    4  A    between atoms: C_4  and  C_5
REMARK    5  A    between atoms: C_5  and  O_6
REMARK    6  A    between atoms: O_6  and  C_7
REMARK    7  A    between atoms: C_11  and  N_12
REMARK    8  A    between atoms: N_17  and  C_18
REMARK    9  A    between atoms: C_18  and  C_19
REMARK                            x       y       z     vdW  Elec       q    Type
REMARK                         _______ _______ _______ _____ _____    ______ ____
ROOT
ATOM      1  N   UNL     1       2.584   7.771  17.785  0.00  0.00    +0.000 N 
ATOM      2  C   UNL     1       1.860   8.635  18.621  0.00  0.00    +0.000 A 
ATOM      3  N   UNL     1       1.925   8.468  19.957  0.00  0.00    +0.000 NA
ATOM      4  N   UNL     1       1.027   9.090  20.772  0.00  0.00    +0.000 NA
ATOM      5  C   UNL     1       0.106   9.912  20.247  0.00  0.00    +0.000 A 
ATOM      6  N   UNL     1      -0.925  10.391  21.030  0.00  0.00    +0.000 N 
ATOM      7  N   UNL     1       0.115  10.180  18.929  0.00  0.00    +0.000 NA
ATOM      8  N   UNL     1       1.010   9.534  18.099  0.00  0.00    +0.000 NA
ATOM      9  H   UNL     1       2.284   7.908  16.824  0.00  0.00    +0.000 HD
ATOM     10  H   UNL     1      -1.495  11.077  20.555  0.00  0.00    +0.000 HD
ENDROOT
BRANCH   1  15
ATOM     11  C   UNL     1       4.342   4.613  18.781  0.00  0.00    +0.000 A 
ATOM     12  C   UNL     1       3.318   3.690  18.575  0.00  0.00    +0.000 A 
ATOM     13  C   UNL     1       2.048   4.119  18.196  0.00  0.00    +0.000 A 
ATOM     14  C   UNL     1       1.793   5.478  17.979  0.00  0.00    +0.000 A 
ATOM     15  C   UNL     1       2.819   6.411  18.104  0.00  0.00    +0.000 A 
ATOM     16  C   UNL     1       4.079   5.967  18.553  0.00  0.00    +0.000 A 
BRANCH  11  17
ATOM     17  O   UNL     1       5.560   4.098  19.128  0.00  0.00    +0.000 OA
BRANCH  17  18
ATOM     18  C   UNL     1       6.649   5.026  19.078  0.00  0.00    +0.000 C 
BRANCH  18  19
ATOM     19  C   UNL     1       7.579   4.683  17.900  0.00  0.00    +0.000 C 
BRANCH  19  21
ATOM     20  C   UNL     1       6.535   5.356  15.832  0.00  0.00    +0.000 C 
ATOM     21  N   UNL     1       7.568   5.690  16.816  0.00  0.00    +0.000 NA
ATOM     22  C   UNL     1       7.344   7.049  17.315  0.00  0.00    +0.000 C 
ENDBRANCH  19  21
ENDBRANCH  18  19
ENDBRANCH  17  18
ENDBRANCH  11  17
ENDBRANCH   1  15
BRANCH   6  23
ATOM     23  C   UNL     1      -0.665  10.589  22.441  0.00  0.00    +0.000 C 
BRANCH  23  24
ATOM     24  C   UNL     1      -1.330  11.876  22.863  0.00  0.00    +0.000 A 
ATOM     25  C   UNL     1      -2.630  11.850  23.390  0.00  0.00    +0.000 A 
ATOM     26  C   UNL     1      -3.305  13.038  23.670  0.00  0.00    +0.000 A 
ATOM     27  C   UNL     1      -2.681  14.262  23.441  0.00  0.00    +0.000 A 
ATOM     28  C   UNL     1      -1.376  14.299  22.950  0.00  0.00    +0.000 A 
ATOM     29  C   UNL     1      -0.702  13.112  22.659  0.00  0.00    +0.000 A 
ENDBRANCH  23  24
ENDBRANCH   6  23
TORSDOF 7
ENDMDL
MODEL 9
REMARK VINA RESULT:      -7.3      5.060     10.306
REMARK  Name = 
REMARK  9 active torsions:
REMARK  status: ('A' for Active; 'I' for Inactive)
REMARK    1  A    between atoms: C_1  and  N_2
REMARK    2  A    between atoms: N_2  and  C_3
REMARK    3  A    between atoms: N_2  and  C_4
REMARK    4  A    between atoms: C_4  and  C_5
REMARK    5  A    between atoms: C_5  and  O_6
REMARK    6  A    between atoms: O_6  and  C_7
REMARK    7  A    between atoms: C_11  and  N_12
REMARK    8  A    between atoms: N_17  and  C_18
REMARK    9  A    between atoms: C_18  and  C_19
REMARK                            x       y       z     vdW  Elec       q    Type
REMARK                         _______ _______ _______ _____ _____    ______ ____
ROOT
ATOM      1  N   UNL     1       0.875  10.008  19.848  0.00  0.00    +0.000 N 
ATOM      2  C   UNL     1      -0.332  10.498  19.326  0.00  0.00    +0.000 A 
ATOM      3  N   UNL     1      -1.176   9.647  18.708  0.00  0.00    +0.000 NA
ATOM      4  N   UNL     1      -2.202  10.127  17.949  0.00  0.00    +0.000 NA
ATOM      5  C   UNL     1      -2.402  11.449  17.857  0.00  0.00    +0.000 A 
ATOM      6  N   UNL     1      -3.306  11.953  16.943  0.00  0.00    +0.000 N 
ATOM      7  N   UNL     1      -1.641  12.299  18.570  0.00  0.00    +0.000 NA
ATOM      8  N   UNL     1      -0.587  11.816  19.321  0.00  0.00    +0.000 NA
ATOM      9  H   UNL     1       1.469  10.791  20.105  0.00  0.00    +0.000 HD
ATOM     10  H   UNL     1      -3.445  12.950  17.035  0.00  0.00    +0.000 HD
ENDROOT
BRANCH   1  15
ATOM     11  C   UNL     1       2.585   6.703  19.393  0.00  0.00    +0.000 A 
ATOM     12  C   UNL     1       3.154   6.894  18.135  0.00  0.00    +0.000 A 
ATOM     13  C   UNL     1       2.902   8.063  17.418  0.00  0.00    +0.000 A 
ATOM     14  C   UNL     1       2.108   9.076  17.968  0.00  0.00    +0.000 A 
ATOM     15  C   UNL     1       1.592   8.940  19.254  0.00  0.00    +0.000 A 
ATOM     16  C   UNL     1       1.801   7.725  19.937  0.00  0.00    +0.000 A 
BRANCH  11  17
ATOM     17  O   UNL     1       2.907   5.537  20.031  0.00  0.00    +0.000 OA
BRANCH  17  18
ATOM     18  C   UNL     1       3.214   4.436  19.168  0.00  0.00    +0.000 C 
BRANCH  18  19
ATOM     19  C   UNL     1       4.510   3.749  19.632  0.00  0.00    +0.000 C 
BRANCH  19  21
ATOM     20  C   UNL     1       5.329   4.219  17.412  0.00  0.00    +0.000 C 
ATOM     21  N   UNL     1       5.698   4.104  18.825  0.00  0.00    +0.000 NA
ATOM     22  C   UNL     1       6.324   5.352  19.268  0.00  0.00    +0.000 C 
ENDBRANCH  19  21
ENDBRANCH  18  19
ENDBRANCH  17  18
ENDBRANCH  11  17
ENDBRANCH   1  15
BRANCH   6  23
ATOM     23  C   UNL     1      -4.457  11.138  16.612  0.00  0.00    +0.000 C 
BRANCH  23  24
ATOM     24  C   UNL     1      -5.612  11.587  17.473  0.00  0.00    +0.000 A 
ATOM     25  C   UNL     1      -6.226  12.824  17.228  0.00  0.00    +0.000 A 
ATOM     26  C   UNL     1      -7.210  13.309  18.087  0.00  0.00    +0.000 A 
ATOM     27  C   UNL     1      -7.601  12.556  19.192  0.00  0.00    +0.000 A 
ATOM     28  C   UNL     1      -7.022  11.309  19.427  0.00  0.00    +0.000 A 
ATOM     29  C   UNL     1      -6.028  10.826  18.574  0.00  0.00    +0.000 A 
ENDBRANCH  23  24
ENDBRANCH   6  23
TORSDOF 7
ENDMDL
