MODEL 1
REMARK VINA RESULT:      -7.3      0.000      0.000
REMARK  Name = 
REMARK  8 active torsions:
REMARK  status: ('A' for Active; 'I' for Inactive)
REMARK    1  A    between atoms: C_1  and  O_2
REMARK    2  A    between atoms: O_2  and  C_3
REMARK    3  A    between atoms: N_5  and  C_6
REMARK    4  A    between atoms: C_6  and  C_7
REMARK    5  A    between atoms: C_6  and  C_15
REMARK    6  A    between atoms: C_8  and  C_9
REMARK    7  A    between atoms: C_15  and  C_16
REMARK    8  A    between atoms: C_15  and  N_17
REMARK                            x       y       z     vdW  Elec       q    Type
REMARK                         _______ _______ _______ _____ _____    ______ ____
ROOT
ATOM      1  C   UNL     1       5.863   4.328  16.462  0.00  0.00    +0.000 C 
ENDROOT
BRANCH   1   4
ATOM      2  C   UNL     1       7.695   5.057  17.975  0.00  0.00    +0.000 C 
ATOM      3  O   UNL     1       8.391   4.064  17.803  0.00  0.00    +0.000 OA
ATOM      4  N   UNL     1       6.485   5.272  17.388  0.00  0.00    +0.000 N 
ATOM      5  H   UNL     1       5.973   6.068  17.747  0.00  0.00    +0.000 HD
BRANCH   2   7
ATOM      6  C   UNL     1       7.887   7.383  18.140  0.00  0.00    +0.000 C 
ATOM      7  O   UNL     1       8.004   6.105  18.771  0.00  0.00    +0.000 OA
ENDBRANCH   2   7
ENDBRANCH   1   4
BRANCH   1   8
ATOM      8  C   UNL     1       4.613   3.841  17.165  0.00  0.00    +0.000 C 
ATOM      9  C   UNL     1       3.840   4.628  17.933  0.00  0.00    +0.000 C 
BRANCH   9  10
ATOM     10  C   UNL     1       2.695   4.093  18.670  0.00  0.00    +0.000 A 
ATOM     11  C   UNL     1       2.361   4.626  19.921  0.00  0.00    +0.000 A 
ATOM     12  C   UNL     1       1.293   4.099  20.649  0.00  0.00    +0.000 A 
ATOM     13  C   UNL     1       0.552   3.037  20.130  0.00  0.00    +0.000 A 
ATOM     14  C   UNL     1       0.874   2.508  18.880  0.00  0.00    +0.000 A 
ATOM     15  C   UNL     1       1.943   3.035  18.150  0.00  0.00    +0.000 A 
ENDBRANCH   9  10
ENDBRANCH   1   8
BRANCH   1  16
ATOM     16  C   UNL     1       5.550   4.967  15.090  0.00  0.00    +0.000 C 
ATOM     17  C   UNL     1       5.238   6.460  15.129  0.00  0.00    +0.000 C 
BRANCH  16  18
ATOM     18  N   UNL     1       6.745   4.788  14.180  0.00  0.00    +0.000 N 
ATOM     19  O   UNL     1       7.779   5.418  14.448  0.00  0.00    +0.000 OA
ATOM     20  O   UNL     1       6.598   4.040  13.207  0.00  0.00    +0.000 OA
ENDBRANCH  16  18
ENDBRANCH   1  16
TORSDOF 6
ENDMDL
MODEL 2
REMARK VINA RESULT:      -7.3      0.053      1.319
REMARK  Name = 
REMARK  8 active torsions:
REMARK  status: ('A' for Active; 'I' for Inactive)
REMARK    1  A    between atoms: C_1  and  O_2
REMARK    2  A    between atoms: O_2  and  C_3
REMARK    3  A    between atoms: N_5  and  C_6
REMARK    4  A    between atoms: C_6  and  C_7
REMARK    5  A    between atoms: C_6  and  C_15
REMARK    6  A    between atoms: C_8  and  C_9
REMARK    7  A    between atoms: C_15  and  C_16
REMARK    8  A    between atoms: C_15  and  N_17
REMARK                            x       y       z     vdW  Elec       q    Type
REMARK                         _______ _______ _______ _____ _____    ______ ____
ROOT
ATOM      1  C   UNL     1       5.859   4.320  16.506  0.00  0.00    +0.000 C 
ENDROOT
BRANCH   1   4
ATOM      2  C   UNL     1       7.698   5.066  18.001  0.00  0.00    +0.000 C 
ATOM      3  O   UNL     1       8.399   4.076  17.827  0.00  0.00    +0.000 OA
ATOM      4  N   UNL     1       6.483   5.271  17.423  0.00  0.00    +0.000 N 
ATOM      5  H   UNL     1       5.968   6.065  17.783  0.00  0.00    +0.000 HD
BRANCH   2   7
ATOM      6  C   UNL     1       7.892   7.393  18.152  0.00  0.00    +0.000 C 
ATOM      7  O   UNL     1       8.007   6.119  18.792  0.00  0.00    +0.000 OA
ENDBRANCH   2   7
ENDBRANCH   1   4
BRANCH   1   8
ATOM      8  C   UNL     1       4.626   3.817  17.227  0.00  0.00    +0.000 C 
ATOM      9  C   UNL     1       3.822   4.605  17.959  0.00  0.00    +0.000 C 
BRANCH   9  10
ATOM     10  C   UNL     1       2.695   4.059  18.716  0.00  0.00    +0.000 A 
ATOM     11  C   UNL     1       1.940   3.009  18.180  0.00  0.00    +0.000 A 
ATOM     12  C   UNL     1       0.840   2.505  18.878  0.00  0.00    +0.000 A 
ATOM     13  C   UNL     1       0.491   3.047  20.114  0.00  0.00    +0.000 A 
ATOM     14  C   UNL     1       1.246   4.086  20.658  0.00  0.00    +0.000 A 
ATOM     15  C   UNL     1       2.346   4.592  19.961  0.00  0.00    +0.000 A 
ENDBRANCH   9  10
ENDBRANCH   1   8
BRANCH   1  16
ATOM     16  C   UNL     1       5.517   4.956  15.140  0.00  0.00    +0.000 C 
ATOM     17  C   UNL     1       5.227   6.454  15.179  0.00  0.00    +0.000 C 
BRANCH  16  18
ATOM     18  N   UNL     1       6.684   4.756  14.198  0.00  0.00    +0.000 N 
ATOM     19  O   UNL     1       6.536   3.976  13.245  0.00  0.00    +0.000 OA
ATOM     20  O   UNL     1       7.724   5.372  14.460  0.00  0.00    +0.000 OA
ENDBRANCH  16  18
ENDBRANCH   1  16
TORSDOF 6
ENDMDL
MODEL 3
REMARK VINA RESULT:      -7.2      1.247      3.488
REMARK  Name = 
REMARK  8 active torsions:
REMARK  status: ('A' for Active; 'I' for Inactive)
REMARK    1  A    between atoms: C_1  and  O_2
REMARK    2  A    between atoms: O_2  and  C_3
REMARK    3  A    between atoms: N_5  and  C_6
REMARK    4  A    between atoms: C_6  and  C_7
REMARK    5  A    between atoms: C_6  and  C_15
REMARK    6  A    between atoms: C_8  and  C_9
REMARK    7  A    between atoms: C_15  and  C_16
REMARK    8  A    between atoms: C_15  and  N_17
REMARK                            x       y       z     vdW  Elec       q    Type
REMARK                         _______ _______ _______ _____ _____    ______ ____
ROOT
ATOM      1  C   UNL     1       5.921   6.039  16.410  0.00  0.00    +0.000 C 
ENDROOT
BRANCH   1   4
ATOM      2  C   UNL     1       6.685   4.722  14.446  0.00  0.00    +0.000 C 
ATOM      3  O   UNL     1       7.543   5.522  14.095  0.00  0.00    +0.000 OA
ATOM      4  N   UNL     1       5.868   4.878  15.525  0.00  0.00    +0.000 N 
ATOM      5  H   UNL     1       5.118   4.202  15.592  0.00  0.00    +0.000 HD
BRANCH   2   7
ATOM      6  C   UNL     1       6.408   3.619  12.401  0.00  0.00    +0.000 C 
ATOM      7  O   UNL     1       6.402   3.552  13.830  0.00  0.00    +0.000 OA
ENDBRANCH   2   7
ENDBRANCH   1   4
BRANCH   1   8
ATOM      8  C   UNL     1       4.895   5.766  17.490  0.00  0.00    +0.000 C 
ATOM      9  C   UNL     1       4.126   4.664  17.521  0.00  0.00    +0.000 C 
BRANCH   9  10
ATOM     10  C   UNL     1       3.081   4.487  18.530  0.00  0.00    +0.000 A 
ATOM     11  C   UNL     1       2.044   3.574  18.305  0.00  0.00    +0.000 A 
ATOM     12  C   UNL     1       1.022   3.423  19.245  0.00  0.00    +0.000 A 
ATOM     13  C   UNL     1       1.032   4.183  20.414  0.00  0.00    +0.000 A 
ATOM     14  C   UNL     1       2.069   5.087  20.648  0.00  0.00    +0.000 A 
ATOM     15  C   UNL     1       3.092   5.239  19.709  0.00  0.00    +0.000 A 
ENDBRANCH   9  10
ENDBRANCH   1   8
BRANCH   1  16
ATOM     16  C   UNL     1       7.333   6.273  16.993  0.00  0.00    +0.000 C 
ATOM     17  C   UNL     1       7.497   7.564  17.789  0.00  0.00    +0.000 C 
BRANCH  16  18
ATOM     18  N   UNL     1       7.676   5.132  17.925  0.00  0.00    +0.000 N 
ATOM     19  O   UNL     1       7.489   5.297  19.140  0.00  0.00    +0.000 OA
ATOM     20  O   UNL     1       8.149   4.113  17.408  0.00  0.00    +0.000 OA
ENDBRANCH  16  18
ENDBRANCH   1  16
TORSDOF 6
ENDMDL
MODEL 4
REMARK VINA RESULT:      -7.2      1.452      1.568
REMARK  Name = 
REMARK  8 active torsions:
REMARK  status: ('A' for Active; 'I' for Inactive)
REMARK    1  A    between atoms: C_1  and  O_2
REMARK    2  A    between atoms: O_2  and  C_3
REMARK    3  A    between atoms: N_5  and  C_6
REMARK    4  A    between atoms: C_6  and  C_7
REMARK    5  A    between atoms: C_6  and  C_15
REMARK    6  A    between atoms: C_8  and  C_9
REMARK    7  A    between atoms: C_15  and  C_16
REMARK    8  A    between atoms: C_15  and  N_17
REMARK                            x       y       z     vdW  Elec       q    Type
REMARK                         _______ _______ _______ _____ _____    ______ ____
ROOT
ATOM      1  C   UNL     1       6.680   4.507  17.399  0.00  0.00    +0.000 C 
ENDROOT
BRANCH   1   4
ATOM      2  C   UNL     1       7.914   6.157  18.787  0.00  0.00    +0.000 C 
ATOM      3  O   UNL     1       8.096   5.402  19.733  0.00  0.00    +0.000 OA
ATOM      4  N   UNL     1       7.255   5.827  17.642  0.00  0.00    +0.000 N 
ATOM      5  H   UNL     1       7.062   6.605  17.023  0.00  0.00    +0.000 HD
BRANCH   2   7
ATOM      6  C   UNL     1       7.783   8.182  17.620  0.00  0.00    +0.000 C 
ATOM      7  O   UNL     1       8.331   7.442  18.715  0.00  0.00    +0.000 OA
ENDBRANCH   2   7
ENDBRANCH   1   4
BRANCH   1   8
ATOM      8  C   UNL     1       5.288   4.560  17.992  0.00  0.00    +0.000 C 
ATOM      9  C   UNL     1       4.896   3.806  19.034  0.00  0.00    +0.000 C 
BRANCH   9  10
ATOM     10  C   UNL     1       3.514   3.821  19.514  0.00  0.00    +0.000 A 
ATOM     11  C   UNL     1       2.978   4.996  20.054  0.00  0.00    +0.000 A 
ATOM     12  C   UNL     1       1.672   5.011  20.549  0.00  0.00    +0.000 A 
ATOM     13  C   UNL     1       0.897   3.853  20.507  0.00  0.00    +0.000 A 
ATOM     14  C   UNL     1       1.423   2.682  19.961  0.00  0.00    +0.000 A 
ATOM     15  C   UNL     1       2.729   2.665  19.465  0.00  0.00    +0.000 A 
ENDBRANCH   9  10
ENDBRANCH   1   8
BRANCH   1  16
ATOM     16  C   UNL     1       6.662   4.138  15.899  0.00  0.00    +0.000 C 
ATOM     17  C   UNL     1       5.380   3.466  15.414  0.00  0.00    +0.000 C 
BRANCH  16  18
ATOM     18  N   UNL     1       6.837   5.398  15.080  0.00  0.00    +0.000 N 
ATOM     19  O   UNL     1       7.934   5.589  14.533  0.00  0.00    +0.000 OA
ATOM     20  O   UNL     1       5.873   6.171  15.033  0.00  0.00    +0.000 OA
ENDBRANCH  16  18
ENDBRANCH   1  16
TORSDOF 6
ENDMDL
MODEL 5
REMARK VINA RESULT:      -7.2      1.100      1.503
REMARK  Name = 
REMARK  8 active torsions:
REMARK  status: ('A' for Active; 'I' for Inactive)
REMARK    1  A    between atoms: C_1  and  O_2
REMARK    2  A    between atoms: O_2  and  C_3
REMARK    3  A    between atoms: N_5  and  C_6
REMARK    4  A    between atoms: C_6  and  C_7
REMARK    5  A    between atoms: C_6  and  C_15
REMARK    6  A    between atoms: C_8  and  C_9
REMARK    7  A    between atoms: C_15  and  C_16
REMARK    8  A    between atoms: C_15  and  N_17
REMARK                            x       y       z     vdW  Elec       q    Type
REMARK                         _______ _______ _______ _____ _____    ______ ____
ROOT
ATOM      1  C   UNL     1       6.267   4.750  17.147  0.00  0.00    +0.000 C 
ENDROOT
BRANCH   1   4
ATOM      2  C   UNL     1       7.845   5.987  18.615  0.00  0.00    +0.000 C 
ATOM      3  O   UNL     1       8.203   5.007  19.254  0.00  0.00    +0.000 OA
ATOM      4  N   UNL     1       6.934   5.967  17.602  0.00  0.00    +0.000 N 
ATOM      5  H   UNL     1       6.639   6.879  17.277  0.00  0.00    +0.000 HD
BRANCH   2   7
ATOM      6  C   UNL     1       7.900   8.171  17.775  0.00  0.00    +0.000 C 
ATOM      7  O   UNL     1       8.287   7.252  18.801  0.00  0.00    +0.000 OA
ENDBRANCH   2   7
ENDBRANCH   1   4
BRANCH   1   8
ATOM      8  C   UNL     1       5.261   4.416  18.228  0.00  0.00    +0.000 C 
ATOM      9  C   UNL     1       4.161   3.673  18.014  0.00  0.00    +0.000 C 
BRANCH   9  10
ATOM     10  C   UNL     1       3.167   3.454  19.066  0.00  0.00    +0.000 A 
ATOM     11  C   UNL     1       1.844   3.865  18.869  0.00  0.00    +0.000 A 
ATOM     12  C   UNL     1       0.895   3.694  19.879  0.00  0.00    +0.000 A 
ATOM     13  C   UNL     1       1.266   3.111  21.091  0.00  0.00    +0.000 A 
ATOM     14  C   UNL     1       2.581   2.691  21.289  0.00  0.00    +0.000 A 
ATOM     15  C   UNL     1       3.531   2.861  20.279  0.00  0.00    +0.000 A 
ENDBRANCH   9  10
ENDBRANCH   1   8
BRANCH   1  16
ATOM     16  C   UNL     1       5.601   4.924  15.764  0.00  0.00    +0.000 C 
ATOM     17  C   UNL     1       5.053   6.321  15.482  0.00  0.00    +0.000 C 
BRANCH  16  18
ATOM     18  N   UNL     1       6.619   4.624  14.685  0.00  0.00    +0.000 N 
ATOM     19  O   UNL     1       6.362   3.716  13.880  0.00  0.00    +0.000 OA
ATOM     20  O   UNL     1       7.659   5.293  14.698  0.00  0.00    +0.000 OA
ENDBRANCH  16  18
ENDBRANCH   1  16
TORSDOF 6
ENDMDL
MODEL 6
REMARK VINA RESULT:      -7.1      1.500      1.898
REMARK  Name = 
REMARK  8 active torsions:
REMARK  status: ('A' for Active; 'I' for Inactive)
REMARK    1  A    between atoms: C_1  and  O_2
REMARK    2  A    between atoms: O_2  and  C_3
REMARK    3  A    between atoms: N_5  and  C_6
REMARK    4  A    between atoms: C_6  and  C_7
REMARK    5  A    between atoms: C_6  and  C_15
REMARK    6  A    between atoms: C_8  and  C_9
REMARK    7  A    between atoms: C_15  and  C_16
REMARK    8  A    between atoms: C_15  and  N_17
REMARK                            x       y       z     vdW  Elec       q    Type
REMARK                         _______ _______ _______ _____ _____    ______ ____
ROOT
ATOM      1  C   UNL     1       6.694   4.497  17.453  0.00  0.00    +0.000 C 
ENDROOT
BRANCH   1   4
ATOM      2  C   UNL     1       7.828   6.186  18.879  0.00  0.00    +0.000 C 
ATOM      3  O   UNL     1       7.782   5.522  19.907  0.00  0.00    +0.000 OA
ATOM      4  N   UNL     1       7.339   5.789  17.672  0.00  0.00    +0.000 N 
ATOM      5  H   UNL     1       7.323   6.509  16.961  0.00  0.00    +0.000 HD
BRANCH   2   7
ATOM      6  C   UNL     1       7.842   8.199  17.685  0.00  0.00    +0.000 C 
ATOM      7  O   UNL     1       8.367   7.421  18.765  0.00  0.00    +0.000 OA
ENDBRANCH   2   7
ENDBRANCH   1   4
BRANCH   1   8
ATOM      8  C   UNL     1       5.344   4.603  18.130  0.00  0.00    +0.000 C 
ATOM      9  C   UNL     1       4.887   3.704  19.018  0.00  0.00    +0.000 C 
BRANCH   9  10
ATOM     10  C   UNL     1       3.538   3.795  19.577  0.00  0.00    +0.000 A 
ATOM     11  C   UNL     1       2.738   2.649  19.655  0.00  0.00    +0.000 A 
ATOM     12  C   UNL     1       1.436   2.732  20.153  0.00  0.00    +0.000 A 
ATOM     13  C   UNL     1       0.928   3.960  20.575  0.00  0.00    +0.000 A 
ATOM     14  C   UNL     1       1.724   5.103  20.510  0.00  0.00    +0.000 A 
ATOM     15  C   UNL     1       3.027   5.022  20.012  0.00  0.00    +0.000 A 
ENDBRANCH   9  10
ENDBRANCH   1   8
BRANCH   1  16
ATOM     16  C   UNL     1       6.569   4.146  15.953  0.00  0.00    +0.000 C 
ATOM     17  C   UNL     1       5.211   3.591  15.531  0.00  0.00    +0.000 C 
BRANCH  16  18
ATOM     18  N   UNL     1       6.810   5.395  15.133  0.00  0.00    +0.000 N 
ATOM     19  O   UNL     1       7.915   5.527  14.587  0.00  0.00    +0.000 OA
ATOM     20  O   UNL     1       5.887   6.217  15.086  0.00  0.00    +0.000 OA
ENDBRANCH  16  18
ENDBRANCH   1  16
TORSDOF 6
ENDMDL
MODEL 7
REMARK VINA RESULT:      -7.1      1.094      1.236
REMARK  Name = 
REMARK  8 active torsions:
REMARK  status: ('A' for Active; 'I' for Inactive)
REMARK    1  A    between atoms: C_1  and  O_2
REMARK    2  A    between atoms: O_2  and  C_3
REMARK    3  A    between atoms: N_5  and  C_6
REMARK    4  A    between atoms: C_6  and  C_7
REMARK    5  A    between atoms: C_6  and  C_15
REMARK    6  A    between atoms: C_8  and  C_9
REMARK    7  A    between atoms: C_15  and  C_16
REMARK    8  A    between atoms: C_15  and  N_17
REMARK                            x       y       z     vdW  Elec       q    Type
REMARK                         _______ _______ _______ _____ _____    ______ ____
ROOT
ATOM      1  C   UNL     1       6.329   4.729  17.145  0.00  0.00    +0.000 C 
ENDROOT
BRANCH   1   4
ATOM      2  C   UNL     1       7.845   6.024  18.627  0.00  0.00    +0.000 C 
ATOM      3  O   UNL     1       8.159   5.074  19.332  0.00  0.00    +0.000 OA
ATOM      4  N   UNL     1       6.986   5.961  17.572  0.00  0.00    +0.000 N 
ATOM      5  H   UNL     1       6.718   6.858  17.187  0.00  0.00    +0.000 HD
BRANCH   2   7
ATOM      6  C   UNL     1       7.861   8.193  17.747  0.00  0.00    +0.000 C 
ATOM      7  O   UNL     1       8.291   7.292  18.772  0.00  0.00    +0.000 OA
ENDBRANCH   2   7
ENDBRANCH   1   4
BRANCH   1   8
ATOM      8  C   UNL     1       5.340   4.400  18.244  0.00  0.00    +0.000 C 
ATOM      9  C   UNL     1       4.131   3.858  18.016  0.00  0.00    +0.000 C 
BRANCH   9  10
ATOM     10  C   UNL     1       3.171   3.644  19.099  0.00  0.00    +0.000 A 
ATOM     11  C   UNL     1       3.555   2.928  20.239  0.00  0.00    +0.000 A 
ATOM     12  C   UNL     1       2.635   2.687  21.262  0.00  0.00    +0.000 A 
ATOM     13  C   UNL     1       1.328   3.160  21.150  0.00  0.00    +0.000 A 
ATOM     14  C   UNL     1       0.943   3.882  20.021  0.00  0.00    +0.000 A 
ATOM     15  C   UNL     1       1.862   4.125  18.997  0.00  0.00    +0.000 A 
ENDBRANCH   9  10
ENDBRANCH   1   8
BRANCH   1  16
ATOM     16  C   UNL     1       5.644   4.872  15.767  0.00  0.00    +0.000 C 
ATOM     17  C   UNL     1       5.060   6.253  15.476  0.00  0.00    +0.000 C 
BRANCH  16  18
ATOM     18  N   UNL     1       6.657   4.583  14.681  0.00  0.00    +0.000 N 
ATOM     19  O   UNL     1       7.683   5.278  14.643  0.00  0.00    +0.000 OA
ATOM     20  O   UNL     1       6.376   3.682  13.882  0.00  0.00    +0.000 OA
ENDBRANCH  16  18
ENDBRANCH   1  16
TORSDOF 6
ENDMDL
MODEL 8
REMARK VINA RESULT:      -7.1      1.424      1.717
REMARK  Name = 
REMARK  8 active torsions:
REMARK  status: ('A' for Active; 'I' for Inactive)
REMARK    1  A    between atoms: C_1  and  O_2
REMARK    2  A    between atoms: O_2  and  C_3
REMARK    3  A    between atoms: N_5  and  C_6
REMARK    4  A    between atoms: C_6  and  C_7
REMARK    5  A    between atoms: C_6  and  C_15
REMARK    6  A    between atoms: C_8  and  C_9
REMARK    7  A    between atoms: C_15  and  C_16
REMARK    8  A    between atoms: C_15  and  N_17
REMARK                            x       y       z     vdW  Elec       q    Type
REMARK                         _______ _______ _______ _____ _____    ______ ____
ROOT
ATOM      1  C   UNL     1       6.485   4.468  17.497  0.00  0.00    +0.000 C 
ENDROOT
BRANCH   1   4
ATOM      2  C   UNL     1       7.883   6.062  18.791  0.00  0.00    +0.000 C 
ATOM      3  O   UNL     1       8.235   5.250  19.637  0.00  0.00    +0.000 OA
ATOM      4  N   UNL     1       7.057   5.789  17.744  0.00  0.00    +0.000 N 
ATOM      5  H   UNL     1       6.748   6.599  17.223  0.00  0.00    +0.000 HD
BRANCH   2   7
ATOM      6  C   UNL     1       7.809   8.066  17.585  0.00  0.00    +0.000 C 
ATOM      7  O   UNL     1       8.251   7.363  18.749  0.00  0.00    +0.000 OA
ENDBRANCH   2   7
ENDBRANCH   1   4
BRANCH   1   8
ATOM      8  C   UNL     1       5.172   4.453  18.252  0.00  0.00    +0.000 C 
ATOM      9  C   UNL     1       4.807   3.465  19.086  0.00  0.00    +0.000 C 
BRANCH   9  10
ATOM     10  C   UNL     1       3.489   3.444  19.721  0.00  0.00    +0.000 A 
ATOM     11  C   UNL     1       3.291   2.700  20.890  0.00  0.00    +0.000 A 
ATOM     12  C   UNL     1       2.028   2.644  21.484  0.00  0.00    +0.000 A 
ATOM     13  C   UNL     1       0.959   3.332  20.913  0.00  0.00    +0.000 A 
ATOM     14  C   UNL     1       1.152   4.084  19.754  0.00  0.00    +0.000 A 
ATOM     15  C   UNL     1       2.415   4.141  19.159  0.00  0.00    +0.000 A 
ENDBRANCH   9  10
ENDBRANCH   1   8
BRANCH   1  16
ATOM     16  C   UNL     1       6.296   4.178  15.992  0.00  0.00    +0.000 C 
ATOM     17  C   UNL     1       4.879   3.786  15.582  0.00  0.00    +0.000 C 
BRANCH  16  18
ATOM     18  N   UNL     1       6.657   5.417  15.202  0.00  0.00    +0.000 N 
ATOM     19  O   UNL     1       5.796   6.302  15.084  0.00  0.00    +0.000 OA
ATOM     20  O   UNL     1       7.787   5.451  14.703  0.00  0.00    +0.000 OA
ENDBRANCH  16  18
ENDBRANCH   1  16
TORSDOF 6
ENDMDL
MODEL 9
REMARK VINA RESULT:      -6.9      1.248      3.345
REMARK  Name = 
REMARK  8 active torsions:
REMARK  status: ('A' for Active; 'I' for Inactive)
REMARK    1  A    between atoms: C_1  and  O_2
REMARK    2  A    between atoms: O_2  and  C_3
REMARK    3  A    between atoms: N_5  and  C_6
REMARK    4  A    between atoms: C_6  and  C_7
REMARK    5  A    between atoms: C_6  and  C_15
REMARK    6  A    between atoms: C_8  and  C_9
REMARK    7  A    between atoms: C_15  and  C_16
REMARK    8  A    between atoms: C_15  and  N_17
REMARK                            x       y       z     vdW  Elec       q    Type
REMARK                         _______ _______ _______ _____ _____    ______ ____
ROOT
ATOM      1  C   UNL     1       5.758   5.598  16.191  0.00  0.00    +0.000 C 
ENDROOT
BRANCH   1   4
ATOM      2  C   UNL     1       6.865   4.650  14.179  0.00  0.00    +0.000 C 
ATOM      3  O   UNL     1       7.631   5.590  14.012  0.00  0.00    +0.000 OA
ATOM      4  N   UNL     1       5.943   4.563  15.177  0.00  0.00    +0.000 N 
ATOM      5  H   UNL     1       5.291   3.794  15.088  0.00  0.00    +0.000 HD
BRANCH   2   7
ATOM      6  C   UNL     1       5.695   3.516  12.499  0.00  0.00    +0.000 C 
ATOM      7  O   UNL     1       6.801   3.542  13.406  0.00  0.00    +0.000 OA
ENDBRANCH   2   7
ENDBRANCH   1   4
BRANCH   1   8
ATOM      8  C   UNL     1       4.806   5.000  17.205  0.00  0.00    +0.000 C 
ATOM      9  C   UNL     1       3.600   5.521  17.488  0.00  0.00    +0.000 C 
BRANCH   9  10
ATOM     10  C   UNL     1       2.753   4.965  18.544  0.00  0.00    +0.000 A 
ATOM     11  C   UNL     1       2.914   5.397  19.866  0.00  0.00    +0.000 A 
ATOM     12  C   UNL     1       2.135   4.846  20.886  0.00  0.00    +0.000 A 
ATOM     13  C   UNL     1       1.193   3.862  20.590  0.00  0.00    +0.000 A 
ATOM     14  C   UNL     1       1.021   3.435  19.273  0.00  0.00    +0.000 A 
ATOM     15  C   UNL     1       1.799   3.985  18.251  0.00  0.00    +0.000 A 
ENDBRANCH   9  10
ENDBRANCH   1   8
BRANCH   1  16
ATOM     16  C   UNL     1       7.091   6.042  16.832  0.00  0.00    +0.000 C 
ATOM     17  C   UNL     1       7.023   7.341  17.631  0.00  0.00    +0.000 C 
BRANCH  16  18
ATOM     18  N   UNL     1       7.564   4.963  17.782  0.00  0.00    +0.000 N 
ATOM     19  O   UNL     1       8.217   4.020  17.312  0.00  0.00    +0.000 OA
ATOM     20  O   UNL     1       7.241   5.086  18.969  0.00  0.00    +0.000 OA
ENDBRANCH  16  18
ENDBRANCH   1  16
TORSDOF 6
ENDMDL
