MODEL 1
REMARK VINA RESULT:      -8.5      0.000      0.000
REMARK  Name = 
REMARK  6 active torsions:
REMARK  status: ('A' for Active; 'I' for Inactive)
REMARK    1  A    between atoms: C_2  and  C_22
REMARK    2  A    between atoms: N_3  and  C_4
REMARK    3  A    between atoms: C_9  and  N_10
REMARK    4  A    between atoms: C_11  and  C_13
REMARK    5  A    between atoms: C_16  and  N_17
REMARK    6  A    between atoms: C_25  and  N_26
REMARK                            x       y       z     vdW  Elec       q    Type
REMARK                         _______ _______ _______ _____ _____    ______ ____
ROOT
ATOM      1  C   UNL     1       2.763   3.873  18.881  0.00  0.00    +0.000 A 
ATOM      2  C   UNL     1       2.684   2.507  19.206  0.00  0.00    +0.000 A 
ATOM      3  C   UNL     1       1.902   2.075  20.277  0.00  0.00    +0.000 A 
ATOM      4  C   UNL     1       1.163   3.000  21.005  0.00  0.00    +0.000 A 
ATOM      5  C   UNL     1       1.192   4.339  20.649  0.00  0.00    +0.000 A 
ATOM      6  C   UNL     1       1.966   4.805  19.589  0.00  0.00    +0.000 A 
ENDROOT
BRANCH   1   9
ATOM      7  O   UNL     1       5.597   4.030  18.958  0.00  0.00    +0.000 OA
ATOM      8  C   UNL     1       4.986   4.207  17.920  0.00  0.00    +0.000 C 
ATOM      9  N   UNL     1       3.605   4.221  17.796  0.00  0.00    +0.000 N 
ATOM     10  H   UNL     1       3.204   4.116  16.876  0.00  0.00    +0.000 HD
BRANCH   8  11
ATOM     11  C   UNL     1       5.751   4.488  16.666  0.00  0.00    +0.000 A 
ATOM     12  C   UNL     1       7.003   5.119  16.645  0.00  0.00    +0.000 A 
ATOM     13  C   UNL     1       7.676   5.309  15.431  0.00  0.00    +0.000 A 
ATOM     14  C   UNL     1       7.088   4.877  14.234  0.00  0.00    +0.000 A 
ATOM     15  C   UNL     1       5.842   4.238  14.246  0.00  0.00    +0.000 A 
ATOM     16  C   UNL     1       5.175   4.054  15.461  0.00  0.00    +0.000 A 
BRANCH  14  17
ATOM     17  N   UNL     1       7.782   5.092  12.956  0.00  0.00    +0.000 N 
ATOM     18  O   UNL     1       7.364   4.477  11.964  0.00  0.00    +0.000 OA
ATOM     19  O   UNL     1       8.742   5.874  12.949  0.00  0.00    +0.000 OA
ENDBRANCH  14  17
ENDBRANCH   8  11
ENDBRANCH   1   9
BRANCH   6  20
ATOM     20  N   UNL     1       1.893   6.181  19.224  0.00  0.00    +0.000 N 
ATOM     21  C   UNL     1       1.676   7.216  20.139  0.00  0.00    +0.000 C 
ATOM     22  O   UNL     1       1.514   7.104  21.344  0.00  0.00    +0.000 OA
ATOM     23  H   UNL     1       1.953   6.372  18.235  0.00  0.00    +0.000 HD
BRANCH  21  24
ATOM     24  C   UNL     1       1.549   8.599  19.598  0.00  0.00    +0.000 A 
ATOM     25  C   UNL     1       0.927   9.548  20.428  0.00  0.00    +0.000 A 
ATOM     26  C   UNL     1       0.808  10.879  20.031  0.00  0.00    +0.000 A 
ATOM     27  C   UNL     1       1.344  11.272  18.802  0.00  0.00    +0.000 A 
ATOM     28  C   UNL     1       1.945  10.328  17.952  0.00  0.00    +0.000 A 
ATOM     29  C   UNL     1       2.041   8.987  18.349  0.00  0.00    +0.000 A 
BRANCH  27  30
ATOM     30  N   UNL     1       1.301  12.688  18.415  0.00  0.00    +0.000 N 
ATOM     31  O   UNL     1       0.190  13.231  18.333  0.00  0.00    +0.000 OA
ATOM     32  O   UNL     1       2.381  13.257  18.198  0.00  0.00    +0.000 OA
ENDBRANCH  27  30
ENDBRANCH  21  24
ENDBRANCH   6  20
TORSDOF 6
ENDMDL
MODEL 2
REMARK VINA RESULT:      -8.5      4.307      5.888
REMARK  Name = 
REMARK  6 active torsions:
REMARK  status: ('A' for Active; 'I' for Inactive)
REMARK    1  A    between atoms: C_2  and  C_22
REMARK    2  A    between atoms: N_3  and  C_4
REMARK    3  A    between atoms: C_9  and  N_10
REMARK    4  A    between atoms: C_11  and  C_13
REMARK    5  A    between atoms: C_16  and  N_17
REMARK    6  A    between atoms: C_25  and  N_26
REMARK                            x       y       z     vdW  Elec       q    Type
REMARK                         _______ _______ _______ _____ _____    ______ ____
ROOT
ATOM      1  C   UNL     1       6.379   6.538  16.726  0.00  0.00    +0.000 A 
ATOM      2  C   UNL     1       7.276   5.632  16.133  0.00  0.00    +0.000 A 
ATOM      3  C   UNL     1       6.864   4.344  15.791  0.00  0.00    +0.000 A 
ATOM      4  C   UNL     1       5.544   3.966  16.002  0.00  0.00    +0.000 A 
ATOM      5  C   UNL     1       4.643   4.876  16.532  0.00  0.00    +0.000 A 
ATOM      6  C   UNL     1       5.021   6.169  16.889  0.00  0.00    +0.000 A 
ENDROOT
BRANCH   1   9
ATOM      7  O   UNL     1       8.278   7.075  18.768  0.00  0.00    +0.000 OA
ATOM      8  C   UNL     1       7.869   7.962  18.041  0.00  0.00    +0.000 C 
ATOM      9  N   UNL     1       6.894   7.813  17.066  0.00  0.00    +0.000 N 
ATOM     10  H   UNL     1       6.812   8.525  16.356  0.00  0.00    +0.000 HD
BRANCH   8  11
ATOM     11  C   UNL     1       8.399   9.349  18.219  0.00  0.00    +0.000 A 
ATOM     12  C   UNL     1       8.014  10.436  17.421  0.00  0.00    +0.000 A 
ATOM     13  C   UNL     1       8.525  11.715  17.677  0.00  0.00    +0.000 A 
ATOM     14  C   UNL     1       9.434  11.903  18.729  0.00  0.00    +0.000 A 
ATOM     15  C   UNL     1       9.817  10.826  19.536  0.00  0.00    +0.000 A 
ATOM     16  C   UNL     1       9.305   9.551  19.272  0.00  0.00    +0.000 A 
BRANCH  14  17
ATOM     17  N   UNL     1       9.988  13.240  18.989  0.00  0.00    +0.000 N 
ATOM     18  O   UNL     1       9.678  14.152  18.210  0.00  0.00    +0.000 OA
ATOM     19  O   UNL     1      10.731  13.371  19.970  0.00  0.00    +0.000 OA
ENDBRANCH  14  17
ENDBRANCH   8  11
ENDBRANCH   1   9
BRANCH   6  20
ATOM     20  N   UNL     1       4.032   7.081  17.355  0.00  0.00    +0.000 N 
ATOM     21  C   UNL     1       3.303   6.901  18.535  0.00  0.00    +0.000 C 
ATOM     22  O   UNL     1       3.395   5.964  19.314  0.00  0.00    +0.000 OA
ATOM     23  H   UNL     1       3.837   7.861  16.745  0.00  0.00    +0.000 HD
BRANCH  21  24
ATOM     24  C   UNL     1       2.247   7.903  18.854  0.00  0.00    +0.000 A 
ATOM     25  C   UNL     1       1.802   7.951  20.186  0.00  0.00    +0.000 A 
ATOM     26  C   UNL     1       0.854   8.889  20.592  0.00  0.00    +0.000 A 
ATOM     27  C   UNL     1       0.369   9.810  19.662  0.00  0.00    +0.000 A 
ATOM     28  C   UNL     1       0.785   9.756  18.321  0.00  0.00    +0.000 A 
ATOM     29  C   UNL     1       1.722   8.796  17.915  0.00  0.00    +0.000 A 
BRANCH  27  30
ATOM     30  N   UNL     1      -0.563  10.857  20.100  0.00  0.00    +0.000 N 
ATOM     31  O   UNL     1      -0.456  11.276  21.261  0.00  0.00    +0.000 OA
ATOM     32  O   UNL     1      -1.400  11.262  19.280  0.00  0.00    +0.000 OA
ENDBRANCH  27  30
ENDBRANCH  21  24
ENDBRANCH   6  20
TORSDOF 6
ENDMDL
MODEL 3
REMARK VINA RESULT:      -8.4      0.183      1.059
REMARK  Name = 
REMARK  6 active torsions:
REMARK  status: ('A' for Active; 'I' for Inactive)
REMARK    1  A    between atoms: C_2  and  C_22
REMARK    2  A    between atoms: N_3  and  C_4
REMARK    3  A    between atoms: C_9  and  N_10
REMARK    4  A    between atoms: C_11  and  C_13
REMARK    5  A    between atoms: C_16  and  N_17
REMARK    6  A    between atoms: C_25  and  N_26
REMARK                            x       y       z     vdW  Elec       q    Type
REMARK                         _______ _______ _______ _____ _____    ______ ____
ROOT
ATOM      1  C   UNL     1       2.816   3.840  18.970  0.00  0.00    +0.000 A 
ATOM      2  C   UNL     1       2.710   2.484  19.327  0.00  0.00    +0.000 A 
ATOM      3  C   UNL     1       1.969   2.099  20.445  0.00  0.00    +0.000 A 
ATOM      4  C   UNL     1       1.297   3.062  21.188  0.00  0.00    +0.000 A 
ATOM      5  C   UNL     1       1.352   4.392  20.804  0.00  0.00    +0.000 A 
ATOM      6  C   UNL     1       2.086   4.812  19.697  0.00  0.00    +0.000 A 
ENDROOT
BRANCH   1   9
ATOM      7  O   UNL     1       5.649   4.025  18.932  0.00  0.00    +0.000 OA
ATOM      8  C   UNL     1       4.998   4.143  17.910  0.00  0.00    +0.000 C 
ATOM      9  N   UNL     1       3.613   4.139  17.838  0.00  0.00    +0.000 N 
ATOM     10  H   UNL     1       3.180   3.983  16.940  0.00  0.00    +0.000 HD
BRANCH   8  11
ATOM     11  C   UNL     1       5.713   4.366  16.615  0.00  0.00    +0.000 A 
ATOM     12  C   UNL     1       5.312   3.794  15.399  0.00  0.00    +0.000 A 
ATOM     13  C   UNL     1       6.011   4.085  14.220  0.00  0.00    +0.000 A 
ATOM     14  C   UNL     1       7.120   4.942  14.261  0.00  0.00    +0.000 A 
ATOM     15  C   UNL     1       7.522   5.524  15.469  0.00  0.00    +0.000 A 
ATOM     16  C   UNL     1       6.822   5.227  16.643  0.00  0.00    +0.000 A 
BRANCH  14  17
ATOM     17  N   UNL     1       7.868   5.234  13.029  0.00  0.00    +0.000 N 
ATOM     18  O   UNL     1       7.489   4.687  11.984  0.00  0.00    +0.000 OA
ATOM     19  O   UNL     1       8.830   6.008  13.113  0.00  0.00    +0.000 OA
ENDBRANCH  14  17
ENDBRANCH   8  11
ENDBRANCH   1   9
BRANCH   6  20
ATOM     20  N   UNL     1       2.039   6.182  19.308  0.00  0.00    +0.000 N 
ATOM     21  C   UNL     1       1.626   7.216  20.153  0.00  0.00    +0.000 C 
ATOM     22  O   UNL     1       1.249   7.107  21.311  0.00  0.00    +0.000 OA
ATOM     23  H   UNL     1       2.274   6.368  18.344  0.00  0.00    +0.000 HD
BRANCH  21  24
ATOM     24  C   UNL     1       1.558   8.590  19.581  0.00  0.00    +0.000 A 
ATOM     25  C   UNL     1       0.974   9.583  20.387  0.00  0.00    +0.000 A 
ATOM     26  C   UNL     1       0.912  10.908  19.959  0.00  0.00    +0.000 A 
ATOM     27  C   UNL     1       1.467  11.250  18.724  0.00  0.00    +0.000 A 
ATOM     28  C   UNL     1       2.029  10.263  17.898  0.00  0.00    +0.000 A 
ATOM     29  C   UNL     1       2.069   8.929  18.325  0.00  0.00    +0.000 A 
BRANCH  27  30
ATOM     30  N   UNL     1       1.484  12.657  18.305  0.00  0.00    +0.000 N 
ATOM     31  O   UNL     1       2.570  13.144  17.959  0.00  0.00    +0.000 OA
ATOM     32  O   UNL     1       0.408  13.273  18.318  0.00  0.00    +0.000 OA
ENDBRANCH  27  30
ENDBRANCH  21  24
ENDBRANCH   6  20
TORSDOF 6
ENDMDL
MODEL 4
REMARK VINA RESULT:      -8.3      4.286      5.852
REMARK  Name = 
REMARK  6 active torsions:
REMARK  status: ('A' for Active; 'I' for Inactive)
REMARK    1  A    between atoms: C_2  and  C_22
REMARK    2  A    between atoms: N_3  and  C_4
REMARK    3  A    between atoms: C_9  and  N_10
REMARK    4  A    between atoms: C_11  and  C_13
REMARK    5  A    between atoms: C_16  and  N_17
REMARK    6  A    between atoms: C_25  and  N_26
REMARK                            x       y       z     vdW  Elec       q    Type
REMARK                         _______ _______ _______ _____ _____    ______ ____
ROOT
ATOM      1  C   UNL     1       6.368   6.573  16.735  0.00  0.00    +0.000 A 
ATOM      2  C   UNL     1       7.252   5.676  16.109  0.00  0.00    +0.000 A 
ATOM      3  C   UNL     1       6.825   4.399  15.741  0.00  0.00    +0.000 A 
ATOM      4  C   UNL     1       5.505   4.026  15.959  0.00  0.00    +0.000 A 
ATOM      5  C   UNL     1       4.618   4.930  16.522  0.00  0.00    +0.000 A 
ATOM      6  C   UNL     1       5.010   6.210  16.906  0.00  0.00    +0.000 A 
ENDROOT
BRANCH   1   9
ATOM      7  O   UNL     1       8.282   7.048  18.779  0.00  0.00    +0.000 OA
ATOM      8  C   UNL     1       7.878   7.955  18.073  0.00  0.00    +0.000 C 
ATOM      9  N   UNL     1       6.897   7.836  17.100  0.00  0.00    +0.000 N 
ATOM     10  H   UNL     1       6.819   8.563  16.405  0.00  0.00    +0.000 HD
BRANCH   8  11
ATOM     11  C   UNL     1       8.422   9.333  18.278  0.00  0.00    +0.000 A 
ATOM     12  C   UNL     1       9.406   9.646  19.227  0.00  0.00    +0.000 A 
ATOM     13  C   UNL     1       9.895  10.955  19.330  0.00  0.00    +0.000 A 
ATOM     14  C   UNL     1       9.388  11.955  18.486  0.00  0.00    +0.000 A 
ATOM     15  C   UNL     1       8.413  11.649  17.530  0.00  0.00    +0.000 A 
ATOM     16  C   UNL     1       7.927  10.341  17.435  0.00  0.00    +0.000 A 
BRANCH  14  17
ATOM     17  N   UNL     1       9.885  13.334  18.604  0.00  0.00    +0.000 N 
ATOM     18  O   UNL     1       9.049  14.233  18.770  0.00  0.00    +0.000 OA
ATOM     19  O   UNL     1      11.107  13.511  18.529  0.00  0.00    +0.000 OA
ENDBRANCH  14  17
ENDBRANCH   8  11
ENDBRANCH   1   9
BRANCH   6  20
ATOM     20  N   UNL     1       4.033   7.118  17.406  0.00  0.00    +0.000 N 
ATOM     21  C   UNL     1       3.317   6.914  18.590  0.00  0.00    +0.000 C 
ATOM     22  O   UNL     1       3.412   5.959  19.346  0.00  0.00    +0.000 OA
ATOM     23  H   UNL     1       3.837   7.914  16.817  0.00  0.00    +0.000 HD
BRANCH  21  24
ATOM     24  C   UNL     1       2.273   7.916  18.946  0.00  0.00    +0.000 A 
ATOM     25  C   UNL     1       1.795   8.729  17.904  0.00  0.00    +0.000 A 
ATOM     26  C   UNL     1       0.781   9.660  18.128  0.00  0.00    +0.000 A 
ATOM     27  C   UNL     1       0.218   9.757  19.402  0.00  0.00    +0.000 A 
ATOM     28  C   UNL     1       0.705   8.969  20.459  0.00  0.00    +0.000 A 
ATOM     29  C   UNL     1       1.739   8.051  20.231  0.00  0.00    +0.000 A 
BRANCH  27  30
ATOM     30  N   UNL     1      -0.908  10.672  19.626  0.00  0.00    +0.000 N 
ATOM     31  O   UNL     1      -1.709  10.841  18.695  0.00  0.00    +0.000 OA
ATOM     32  O   UNL     1      -0.994  11.217  20.736  0.00  0.00    +0.000 OA
ENDBRANCH  27  30
ENDBRANCH  21  24
ENDBRANCH   6  20
TORSDOF 6
ENDMDL
MODEL 5
REMARK VINA RESULT:      -8.2      4.365      7.910
REMARK  Name = 
REMARK  6 active torsions:
REMARK  status: ('A' for Active; 'I' for Inactive)
REMARK    1  A    between atoms: C_2  and  C_22
REMARK    2  A    between atoms: N_3  and  C_4
REMARK    3  A    between atoms: C_9  and  N_10
REMARK    4  A    between atoms: C_11  and  C_13
REMARK    5  A    between atoms: C_16  and  N_17
REMARK    6  A    between atoms: C_25  and  N_26
REMARK                            x       y       z     vdW  Elec       q    Type
REMARK                         _______ _______ _______ _____ _____    ______ ____
ROOT
ATOM      1  C   UNL     1       5.016   6.237  17.001  0.00  0.00    +0.000 A 
ATOM      2  C   UNL     1       4.535   4.932  16.792  0.00  0.00    +0.000 A 
ATOM      3  C   UNL     1       5.336   3.968  16.180  0.00  0.00    +0.000 A 
ATOM      4  C   UNL     1       6.637   4.290  15.811  0.00  0.00    +0.000 A 
ATOM      5  C   UNL     1       7.133   5.557  16.069  0.00  0.00    +0.000 A 
ATOM      6  C   UNL     1       6.359   6.545  16.674  0.00  0.00    +0.000 A 
ENDROOT
BRANCH   1   9
ATOM      7  O   UNL     1       2.583   5.578  18.309  0.00  0.00    +0.000 OA
ATOM      8  C   UNL     1       2.987   6.726  18.274  0.00  0.00    +0.000 C 
ATOM      9  N   UNL     1       4.121   7.156  17.602  0.00  0.00    +0.000 N 
ATOM     10  H   UNL     1       4.510   8.055  17.842  0.00  0.00    +0.000 HD
BRANCH   8  11
ATOM     11  C   UNL     1       2.193   7.796  18.954  0.00  0.00    +0.000 A 
ATOM     12  C   UNL     1       1.805   7.738  20.300  0.00  0.00    +0.000 A 
ATOM     13  C   UNL     1       1.098   8.801  20.876  0.00  0.00    +0.000 A 
ATOM     14  C   UNL     1       0.769   9.921  20.098  0.00  0.00    +0.000 A 
ATOM     15  C   UNL     1       1.160   9.992  18.756  0.00  0.00    +0.000 A 
ATOM     16  C   UNL     1       1.863   8.925  18.187  0.00  0.00    +0.000 A 
BRANCH  14  17
ATOM     17  N   UNL     1       0.010  11.030  20.693  0.00  0.00    +0.000 N 
ATOM     18  O   UNL     1       0.360  11.431  21.812  0.00  0.00    +0.000 OA
ATOM     19  O   UNL     1      -0.934  11.495  20.041  0.00  0.00    +0.000 OA
ENDBRANCH  14  17
ENDBRANCH   8  11
ENDBRANCH   1   9
BRANCH   6  20
ATOM     20  N   UNL     1       6.952   7.803  16.983  0.00  0.00    +0.000 N 
ATOM     21  C   UNL     1       7.903   7.987  17.992  0.00  0.00    +0.000 C 
ATOM     22  O   UNL     1       8.350   7.130  18.739  0.00  0.00    +0.000 OA
ATOM     23  H   UNL     1       6.599   8.590  16.459  0.00  0.00    +0.000 HD
BRANCH  21  24
ATOM     24  C   UNL     1       8.376   9.377  18.249  0.00  0.00    +0.000 A 
ATOM     25  C   UNL     1       9.225   9.561  19.354  0.00  0.00    +0.000 A 
ATOM     26  C   UNL     1       9.761  10.815  19.646  0.00  0.00    +0.000 A 
ATOM     27  C   UNL     1       9.468  11.890  18.804  0.00  0.00    +0.000 A 
ATOM     28  C   UNL     1       8.600  11.725  17.712  0.00  0.00    +0.000 A 
ATOM     29  C   UNL     1       8.048  10.466  17.438  0.00  0.00    +0.000 A 
BRANCH  27  30
ATOM     30  N   UNL     1      10.097  13.193  19.052  0.00  0.00    +0.000 N 
ATOM     31  O   UNL     1      10.890  13.281  20.001  0.00  0.00    +0.000 OA
ATOM     32  O   UNL     1       9.801  14.129  18.294  0.00  0.00    +0.000 OA
ENDBRANCH  27  30
ENDBRANCH  21  24
ENDBRANCH   6  20
TORSDOF 6
ENDMDL
MODEL 6
REMARK VINA RESULT:      -8.2      4.309      7.869
REMARK  Name = 
REMARK  6 active torsions:
REMARK  status: ('A' for Active; 'I' for Inactive)
REMARK    1  A    between atoms: C_2  and  C_22
REMARK    2  A    between atoms: N_3  and  C_4
REMARK    3  A    between atoms: C_9  and  N_10
REMARK    4  A    between atoms: C_11  and  C_13
REMARK    5  A    between atoms: C_16  and  N_17
REMARK    6  A    between atoms: C_25  and  N_26
REMARK                            x       y       z     vdW  Elec       q    Type
REMARK                         _______ _______ _______ _____ _____    ______ ____
ROOT
ATOM      1  C   UNL     1       4.939   6.139  16.914  0.00  0.00    +0.000 A 
ATOM      2  C   UNL     1       4.456   4.834  16.718  0.00  0.00    +0.000 A 
ATOM      3  C   UNL     1       5.270   3.853  16.149  0.00  0.00    +0.000 A 
ATOM      4  C   UNL     1       6.582   4.160  15.812  0.00  0.00    +0.000 A 
ATOM      5  C   UNL     1       7.079   5.429  16.059  0.00  0.00    +0.000 A 
ATOM      6  C   UNL     1       6.293   6.434  16.620  0.00  0.00    +0.000 A 
ENDROOT
BRANCH   1   9
ATOM      7  O   UNL     1       2.874   5.554  18.773  0.00  0.00    +0.000 OA
ATOM      8  C   UNL     1       3.098   6.698  18.422  0.00  0.00    +0.000 C 
ATOM      9  N   UNL     1       4.033   7.076  17.470  0.00  0.00    +0.000 N 
ATOM     10  H   UNL     1       4.323   8.042  17.439  0.00  0.00    +0.000 HD
BRANCH   8  11
ATOM     11  C   UNL     1       2.281   7.809  19.003  0.00  0.00    +0.000 A 
ATOM     12  C   UNL     1       1.842   8.917  18.265  0.00  0.00    +0.000 A 
ATOM     13  C   UNL     1       1.045   9.897  18.872  0.00  0.00    +0.000 A 
ATOM     14  C   UNL     1       0.698   9.771  20.225  0.00  0.00    +0.000 A 
ATOM     15  C   UNL     1       1.124   8.664  20.967  0.00  0.00    +0.000 A 
ATOM     16  C   UNL     1       1.922   7.692  20.355  0.00  0.00    +0.000 A 
BRANCH  14  17
ATOM     17  N   UNL     1      -0.122  10.807  20.871  0.00  0.00    +0.000 N 
ATOM     18  O   UNL     1      -0.943  11.412  20.167  0.00  0.00    +0.000 OA
ATOM     19  O   UNL     1       0.059  11.012  22.078  0.00  0.00    +0.000 OA
ENDBRANCH  14  17
ENDBRANCH   8  11
ENDBRANCH   1   9
BRANCH   6  20
ATOM     20  N   UNL     1       6.884   7.695  16.922  0.00  0.00    +0.000 N 
ATOM     21  C   UNL     1       7.822   7.890  17.940  0.00  0.00    +0.000 C 
ATOM     22  O   UNL     1       8.258   7.042  18.704  0.00  0.00    +0.000 OA
ATOM     23  H   UNL     1       6.540   8.476  16.383  0.00  0.00    +0.000 HD
BRANCH  21  24
ATOM     24  C   UNL     1       8.295   9.282  18.186  0.00  0.00    +0.000 A 
ATOM     25  C   UNL     1       9.216   9.461  19.233  0.00  0.00    +0.000 A 
ATOM     26  C   UNL     1       9.754  10.718  19.506  0.00  0.00    +0.000 A 
ATOM     27  C   UNL     1       9.391  11.801  18.703  0.00  0.00    +0.000 A 
ATOM     28  C   UNL     1       8.452  11.641  17.671  0.00  0.00    +0.000 A 
ATOM     29  C   UNL     1       7.898  10.379  17.416  0.00  0.00    +0.000 A 
BRANCH  27  30
ATOM     30  N   UNL     1      10.020  13.109  18.928  0.00  0.00    +0.000 N 
ATOM     31  O   UNL     1       9.320  14.121  18.777  0.00  0.00    +0.000 OA
ATOM     32  O   UNL     1      11.214  13.123  19.262  0.00  0.00    +0.000 OA
ENDBRANCH  27  30
ENDBRANCH  21  24
ENDBRANCH   6  20
TORSDOF 6
ENDMDL
MODEL 7
REMARK VINA RESULT:      -8.2      0.221      1.070
REMARK  Name = 
REMARK  6 active torsions:
REMARK  status: ('A' for Active; 'I' for Inactive)
REMARK    1  A    between atoms: C_2  and  C_22
REMARK    2  A    between atoms: N_3  and  C_4
REMARK    3  A    between atoms: C_9  and  N_10
REMARK    4  A    between atoms: C_11  and  C_13
REMARK    5  A    between atoms: C_16  and  N_17
REMARK    6  A    between atoms: C_25  and  N_26
REMARK                            x       y       z     vdW  Elec       q    Type
REMARK                         _______ _______ _______ _____ _____    ______ ____
ROOT
ATOM      1  C   UNL     1       2.744   3.840  18.968  0.00  0.00    +0.000 A 
ATOM      2  C   UNL     1       2.597   2.464  19.216  0.00  0.00    +0.000 A 
ATOM      3  C   UNL     1       1.808   2.013  20.275  0.00  0.00    +0.000 A 
ATOM      4  C   UNL     1       1.130   2.932  21.066  0.00  0.00    +0.000 A 
ATOM      5  C   UNL     1       1.226   4.285  20.788  0.00  0.00    +0.000 A 
ATOM      6  C   UNL     1       2.009   4.771  19.742  0.00  0.00    +0.000 A 
ENDROOT
BRANCH   1   9
ATOM      7  O   UNL     1       5.582   3.929  19.033  0.00  0.00    +0.000 OA
ATOM      8  C   UNL     1       4.969   4.156  18.005  0.00  0.00    +0.000 C 
ATOM      9  N   UNL     1       3.588   4.206  17.891  0.00  0.00    +0.000 N 
ATOM     10  H   UNL     1       3.180   4.141  16.970  0.00  0.00    +0.000 HD
BRANCH   8  11
ATOM     11  C   UNL     1       5.734   4.462  16.756  0.00  0.00    +0.000 A 
ATOM     12  C   UNL     1       7.007   5.049  16.750  0.00  0.00    +0.000 A 
ATOM     13  C   UNL     1       7.676   5.266  15.539  0.00  0.00    +0.000 A 
ATOM     14  C   UNL     1       7.063   4.904  14.330  0.00  0.00    +0.000 A 
ATOM     15  C   UNL     1       5.796   4.309  14.328  0.00  0.00    +0.000 A 
ATOM     16  C   UNL     1       5.133   4.098  15.540  0.00  0.00    +0.000 A 
BRANCH  14  17
ATOM     17  N   UNL     1       7.754   5.148  13.056  0.00  0.00    +0.000 N 
ATOM     18  O   UNL     1       7.363   4.522  12.061  0.00  0.00    +0.000 OA
ATOM     19  O   UNL     1       8.685   5.964  13.055  0.00  0.00    +0.000 OA
ENDBRANCH  14  17
ENDBRANCH   8  11
ENDBRANCH   1   9
BRANCH   6  20
ATOM     20  N   UNL     1       2.005   6.167  19.458  0.00  0.00    +0.000 N 
ATOM     21  C   UNL     1       1.556   7.141  20.356  0.00  0.00    +0.000 C 
ATOM     22  O   UNL     1       1.109   6.951  21.477  0.00  0.00    +0.000 OA
ATOM     23  H   UNL     1       2.300   6.422  18.528  0.00  0.00    +0.000 HD
BRANCH  21  24
ATOM     24  C   UNL     1       1.542   8.556  19.888  0.00  0.00    +0.000 A 
ATOM     25  C   UNL     1       1.948   8.788  18.563  0.00  0.00    +0.000 A 
ATOM     26  C   UNL     1       1.920  10.071  18.019  0.00  0.00    +0.000 A 
ATOM     27  C   UNL     1       1.451  11.130  18.800  0.00  0.00    +0.000 A 
ATOM     28  C   UNL     1       1.067  10.916  20.134  0.00  0.00    +0.000 A 
ATOM     29  C   UNL     1       1.119   9.627  20.681  0.00  0.00    +0.000 A 
BRANCH  27  30
ATOM     30  N   UNL     1       1.335  12.469  18.207  0.00  0.00    +0.000 N 
ATOM     31  O   UNL     1       2.374  13.019  17.815  0.00  0.00    +0.000 OA
ATOM     32  O   UNL     1       0.203  12.967  18.131  0.00  0.00    +0.000 OA
ENDBRANCH  27  30
ENDBRANCH  21  24
ENDBRANCH   6  20
TORSDOF 6
ENDMDL
MODEL 8
REMARK VINA RESULT:      -8.1      4.094      7.711
REMARK  Name = 
REMARK  6 active torsions:
REMARK  status: ('A' for Active; 'I' for Inactive)
REMARK    1  A    between atoms: C_2  and  C_22
REMARK    2  A    between atoms: N_3  and  C_4
REMARK    3  A    between atoms: C_9  and  N_10
REMARK    4  A    between atoms: C_11  and  C_13
REMARK    5  A    between atoms: C_16  and  N_17
REMARK    6  A    between atoms: C_25  and  N_26
REMARK                            x       y       z     vdW  Elec       q    Type
REMARK                         _______ _______ _______ _____ _____    ______ ____
ROOT
ATOM      1  C   UNL     1       4.955   6.069  16.889  0.00  0.00    +0.000 A 
ATOM      2  C   UNL     1       4.452   4.774  16.673  0.00  0.00    +0.000 A 
ATOM      3  C   UNL     1       5.250   3.790  16.090  0.00  0.00    +0.000 A 
ATOM      4  C   UNL     1       6.567   4.081  15.756  0.00  0.00    +0.000 A 
ATOM      5  C   UNL     1       7.083   5.338  16.022  0.00  0.00    +0.000 A 
ATOM      6  C   UNL     1       6.314   6.347  16.599  0.00  0.00    +0.000 A 
ENDROOT
BRANCH   1   9
ATOM      7  O   UNL     1       2.809   5.474  18.650  0.00  0.00    +0.000 OA
ATOM      8  C   UNL     1       3.085   6.625  18.361  0.00  0.00    +0.000 C 
ATOM      9  N   UNL     1       4.065   7.011  17.459  0.00  0.00    +0.000 N 
ATOM     10  H   UNL     1       4.389   7.966  17.483  0.00  0.00    +0.000 HD
BRANCH   8  11
ATOM     11  C   UNL     1       2.289   7.737  18.968  0.00  0.00    +0.000 A 
ATOM     12  C   UNL     1       1.852   7.742  20.300  0.00  0.00    +0.000 A 
ATOM     13  C   UNL     1       1.146   8.841  20.806  0.00  0.00    +0.000 A 
ATOM     14  C   UNL     1       0.867   9.933  19.971  0.00  0.00    +0.000 A 
ATOM     15  C   UNL     1       1.307   9.941  18.643  0.00  0.00    +0.000 A 
ATOM     16  C   UNL     1       2.009   8.839  18.143  0.00  0.00    +0.000 A 
BRANCH  14  17
ATOM     17  N   UNL     1       0.109  11.080  20.493  0.00  0.00    +0.000 N 
ATOM     18  O   UNL     1      -0.759  11.576  19.761  0.00  0.00    +0.000 OA
ATOM     19  O   UNL     1       0.386  11.480  21.631  0.00  0.00    +0.000 OA
ENDBRANCH  14  17
ENDBRANCH   8  11
ENDBRANCH   1   9
BRANCH   6  20
ATOM     20  N   UNL     1       6.925   7.593  16.919  0.00  0.00    +0.000 N 
ATOM     21  C   UNL     1       7.842   7.764  17.961  0.00  0.00    +0.000 C 
ATOM     22  O   UNL     1       8.240   6.905  18.732  0.00  0.00    +0.000 OA
ATOM     23  H   UNL     1       6.611   8.383  16.374  0.00  0.00    +0.000 HD
BRANCH  21  24
ATOM     24  C   UNL     1       8.339   9.145  18.223  0.00  0.00    +0.000 A 
ATOM     25  C   UNL     1       7.851  10.162  17.384  0.00  0.00    +0.000 A 
ATOM     26  C   UNL     1       8.218  11.492  17.583  0.00  0.00    +0.000 A 
ATOM     27  C   UNL     1       9.057  11.813  18.652  0.00  0.00    +0.000 A 
ATOM     28  C   UNL     1       9.572  10.802  19.481  0.00  0.00    +0.000 A 
ATOM     29  C   UNL     1       9.217   9.465  19.262  0.00  0.00    +0.000 A 
BRANCH  27  30
ATOM     30  N   UNL     1       9.378  13.220  18.922  0.00  0.00    +0.000 N 
ATOM     31  O   UNL     1       9.857  13.891  17.997  0.00  0.00    +0.000 OA
ATOM     32  O   UNL     1       9.146  13.654  20.060  0.00  0.00    +0.000 OA
ENDBRANCH  27  30
ENDBRANCH  21  24
ENDBRANCH   6  20
TORSDOF 6
ENDMDL
MODEL 9
REMARK VINA RESULT:      -8.0      1.282      7.607
REMARK  Name = 
REMARK  6 active torsions:
REMARK  status: ('A' for Active; 'I' for Inactive)
REMARK    1  A    between atoms: C_2  and  C_22
REMARK    2  A    between atoms: N_3  and  C_4
REMARK    3  A    between atoms: C_9  and  N_10
REMARK    4  A    between atoms: C_11  and  C_13
REMARK    5  A    between atoms: C_16  and  N_17
REMARK    6  A    between atoms: C_25  and  N_26
REMARK                            x       y       z     vdW  Elec       q    Type
REMARK                         _______ _______ _______ _____ _____    ______ ____
ROOT
ATOM      1  C   UNL     1       2.930   4.579  20.412  0.00  0.00    +0.000 A 
ATOM      2  C   UNL     1       2.222   4.138  21.543  0.00  0.00    +0.000 A 
ATOM      3  C   UNL     1       2.237   2.793  21.911  0.00  0.00    +0.000 A 
ATOM      4  C   UNL     1       2.992   1.887  21.176  0.00  0.00    +0.000 A 
ATOM      5  C   UNL     1       3.738   2.330  20.096  0.00  0.00    +0.000 A 
ATOM      6  C   UNL     1       3.743   3.665  19.697  0.00  0.00    +0.000 A 
ENDROOT
BRANCH   1   9
ATOM      7  O   UNL     1       1.723   5.673  18.086  0.00  0.00    +0.000 OA
ATOM      8  C   UNL     1       2.165   6.394  18.963  0.00  0.00    +0.000 C 
ATOM      9  N   UNL     1       2.833   5.957  20.098  0.00  0.00    +0.000 N 
ATOM     10  H   UNL     1       2.927   6.594  20.874  0.00  0.00    +0.000 HD
BRANCH   8  11
ATOM     11  C   UNL     1       2.045   7.877  18.814  0.00  0.00    +0.000 A 
ATOM     12  C   UNL     1       2.527   8.588  17.706  0.00  0.00    +0.000 A 
ATOM     13  C   UNL     1       2.338   9.974  17.621  0.00  0.00    +0.000 A 
ATOM     14  C   UNL     1       1.675  10.650  18.655  0.00  0.00    +0.000 A 
ATOM     15  C   UNL     1       1.182   9.948  19.761  0.00  0.00    +0.000 A 
ATOM     16  C   UNL     1       1.377   8.565  19.840  0.00  0.00    +0.000 A 
BRANCH  14  17
ATOM     17  N   UNL     1       1.492  12.107  18.579  0.00  0.00    +0.000 N 
ATOM     18  O   UNL     1       2.355  12.764  17.980  0.00  0.00    +0.000 OA
ATOM     19  O   UNL     1       0.488  12.588  19.119  0.00  0.00    +0.000 OA
ENDBRANCH  14  17
ENDBRANCH   8  11
ENDBRANCH   1   9
BRANCH   6  20
ATOM     20  N   UNL     1       4.591   4.071  18.627  0.00  0.00    +0.000 N 
ATOM     21  C   UNL     1       4.359   3.748  17.287  0.00  0.00    +0.000 C 
ATOM     22  O   UNL     1       3.431   3.088  16.844  0.00  0.00    +0.000 OA
ATOM     23  H   UNL     1       5.424   4.572  18.899  0.00  0.00    +0.000 HD
BRANCH  21  24
ATOM     24  C   UNL     1       5.377   4.179  16.287  0.00  0.00    +0.000 A 
ATOM     25  C   UNL     1       5.330   3.556  15.028  0.00  0.00    +0.000 A 
ATOM     26  C   UNL     1       6.207   3.929  14.010  0.00  0.00    +0.000 A 
ATOM     27  C   UNL     1       7.121   4.959  14.245  0.00  0.00    +0.000 A 
ATOM     28  C   UNL     1       7.195   5.572  15.507  0.00  0.00    +0.000 A 
ATOM     29  C   UNL     1       6.325   5.176  16.532  0.00  0.00    +0.000 A 
BRANCH  27  30
ATOM     30  N   UNL     1       7.989   5.417  13.153  0.00  0.00    +0.000 N 
ATOM     31  O   UNL     1       8.991   6.082  13.451  0.00  0.00    +0.000 OA
ATOM     32  O   UNL     1       7.668   5.107  11.996  0.00  0.00    +0.000 OA
ENDBRANCH  27  30
ENDBRANCH  21  24
ENDBRANCH   6  20
TORSDOF 6
ENDMDL
