MODEL 1
REMARK VINA RESULT:      -9.1      0.000      0.000
REMARK  Name = 
REMARK  5 active torsions:
REMARK  status: ('A' for Active; 'I' for Inactive)
REMARK    1  A    between atoms: C_1  and  C_2
REMARK    2  A    between atoms: C_8  and  N_9
REMARK    3  A    between atoms: C_10  and  C_12
REMARK    4  A    between atoms: N_16  and  S_17
REMARK    5  A    between atoms: S_17  and  C_20
REMARK                            x       y       z     vdW  Elec       q    Type
REMARK                         _______ _______ _______ _____ _____    ______ ____
ROOT
ATOM      1  C   UNL     1       1.000   9.457  22.010  0.00  0.00    +0.000 C 
ATOM      2  C   UNL     1       0.205   9.651  23.312  0.00  0.00    +0.000 C 
ATOM      3  C   UNL     1      -1.123  10.406  23.197  0.00  0.00    +0.000 C 
ATOM      4  C   UNL     1      -1.110  11.548  22.183  0.00  0.00    +0.000 C 
ATOM      5  N   UNL     1      -0.481  11.096  20.909  0.00  0.00    +0.000 NA
ATOM      6  C   UNL     1       0.928  10.685  21.117  0.00  0.00    +0.000 C 
ENDROOT
BRANCH   1   8
ATOM      7  N   UNL     1       2.073   7.650  20.603  0.00  0.00    +0.000 N 
ATOM      8  C   UNL     1       0.918   8.134  21.205  0.00  0.00    +0.000 C 
ATOM      9  O   UNL     1      -0.162   7.542  21.136  0.00  0.00    +0.000 OA
ATOM     10  H   UNL     1       2.736   8.357  20.286  0.00  0.00    +0.000 HD
BRANCH   7  18
ATOM     11  C   UNL     1       2.923   7.245  17.705  0.00  0.00    +0.000 C 
ATOM     12  C   UNL     1       2.533   6.141  18.650  0.00  0.00    +0.000 A 
ATOM     13  C   UNL     1       2.515   4.831  18.123  0.00  0.00    +0.000 A 
ATOM     14  C   UNL     1       2.132   3.737  18.896  0.00  0.00    +0.000 A 
ATOM     15  C   UNL     1       1.757   3.956  20.220  0.00  0.00    +0.000 A 
ATOM     16 CL   UNL     1       1.318   2.613  21.205  0.00  0.00    +0.000 Cl
ATOM     17  C   UNL     1       1.748   5.248  20.757  0.00  0.00    +0.000 A 
ATOM     18  C   UNL     1       2.154   6.355  20.006  0.00  0.00    +0.000 A 
ENDBRANCH   7  18
ENDBRANCH   1   8
BRANCH   5  19
ATOM     19  S   UNL     1      -0.692  12.157  19.583  0.00  0.00    +0.000 S 
ATOM     20  O   UNL     1      -1.149  13.424  20.119  0.00  0.00    +0.000 OA
ATOM     21  O   UNL     1       0.513  12.098  18.776  0.00  0.00    +0.000 OA
BRANCH  19  22
ATOM     22  C   UNL     1      -1.972  11.557  18.518  0.00  0.00    +0.000 A 
ATOM     23  C   UNL     1      -1.512  10.770  17.439  0.00  0.00    +0.000 A 
ATOM     24  C   UNL     1      -2.409  10.207  16.546  0.00  0.00    +0.000 A 
ATOM     25  C   UNL     1      -3.768  10.419  16.739  0.00  0.00    +0.000 A 
ATOM     26  C   UNL     1      -4.226  11.169  17.835  0.00  0.00    +0.000 A 
ATOM     27  C   UNL     1      -5.604  11.320  18.035  0.00  0.00    +0.000 A 
ATOM     28  C   UNL     1      -6.079  12.041  19.120  0.00  0.00    +0.000 A 
ATOM     29  C   UNL     1      -5.153  12.603  19.965  0.00  0.00    +0.000 A 
ATOM     30  N   UNL     1      -3.817  12.466  19.813  0.00  0.00    +0.000 NA
ATOM     31  C   UNL     1      -3.330  11.764  18.761  0.00  0.00    +0.000 A 
ENDBRANCH  19  22
ENDBRANCH   5  19
TORSDOF 4
ENDMDL
MODEL 2
REMARK VINA RESULT:      -8.6      0.858      1.936
REMARK  Name = 
REMARK  5 active torsions:
REMARK  status: ('A' for Active; 'I' for Inactive)
REMARK    1  A    between atoms: C_1  and  C_2
REMARK    2  A    between atoms: C_8  and  N_9
REMARK    3  A    between atoms: C_10  and  C_12
REMARK    4  A    between atoms: N_16  and  S_17
REMARK    5  A    between atoms: S_17  and  C_20
REMARK                            x       y       z     vdW  Elec       q    Type
REMARK                         _______ _______ _______ _____ _____    ______ ____
ROOT
ATOM      1  C   UNL     1       1.018   9.478  22.044  0.00  0.00    +0.000 C 
ATOM      2  C   UNL     1       0.288   9.548  23.395  0.00  0.00    +0.000 C 
ATOM      3  C   UNL     1      -1.061  10.274  23.408  0.00  0.00    +0.000 C 
ATOM      4  C   UNL     1      -1.127  11.491  22.488  0.00  0.00    +0.000 C 
ATOM      5  N   UNL     1      -0.555  11.158  21.152  0.00  0.00    +0.000 NA
ATOM      6  C   UNL     1       0.872  10.769  21.256  0.00  0.00    +0.000 C 
ENDROOT
BRANCH   1   8
ATOM      7  N   UNL     1       2.100   7.663  20.655  0.00  0.00    +0.000 N 
ATOM      8  C   UNL     1       0.924   8.220  21.141  0.00  0.00    +0.000 C 
ATOM      9  O   UNL     1      -0.186   7.741  20.897  0.00  0.00    +0.000 OA
ATOM     10  H   UNL     1       2.859   8.319  20.474  0.00  0.00    +0.000 HD
BRANCH   7  18
ATOM     11  C   UNL     1       2.855   7.418  17.712  0.00  0.00    +0.000 C 
ATOM     12  C   UNL     1       2.477   6.266  18.603  0.00  0.00    +0.000 A 
ATOM     13  C   UNL     1       2.422   4.989  18.001  0.00  0.00    +0.000 A 
ATOM     14  C   UNL     1       2.046   3.857  18.720  0.00  0.00    +0.000 A 
ATOM     15  C   UNL     1       1.715   4.003  20.066  0.00  0.00    +0.000 A 
ATOM     16 CL   UNL     1       1.286   2.610  20.984  0.00  0.00    +0.000 Cl
ATOM     17  C   UNL     1       1.743   5.261  20.678  0.00  0.00    +0.000 A 
ATOM     18  C   UNL     1       2.143   6.405  19.980  0.00  0.00    +0.000 A 
ENDBRANCH   7  18
ENDBRANCH   1   8
BRANCH   5  19
ATOM     19  S   UNL     1      -0.859  12.312  19.926  0.00  0.00    +0.000 S 
ATOM     20  O   UNL     1      -0.716  13.623  20.530  0.00  0.00    +0.000 OA
ATOM     21  O   UNL     1      -0.059  11.950  18.771  0.00  0.00    +0.000 OA
BRANCH  19  22
ATOM     22  C   UNL     1      -2.533  12.185  19.368  0.00  0.00    +0.000 A 
ATOM     23  C   UNL     1      -3.482  12.771  20.233  0.00  0.00    +0.000 A 
ATOM     24  C   UNL     1      -4.828  12.776  19.904  0.00  0.00    +0.000 A 
ATOM     25  C   UNL     1      -5.225  12.204  18.702  0.00  0.00    +0.000 A 
ATOM     26  C   UNL     1      -4.275  11.657  17.823  0.00  0.00    +0.000 A 
ATOM     27  C   UNL     1      -4.697  11.138  16.592  0.00  0.00    +0.000 A 
ATOM     28  C   UNL     1      -3.776  10.609  15.702  0.00  0.00    +0.000 A 
ATOM     29  C   UNL     1      -2.455  10.603  16.082  0.00  0.00    +0.000 A 
ATOM     30  N   UNL     1      -2.009  11.108  17.253  0.00  0.00    +0.000 NA
ATOM     31  C   UNL     1      -2.891  11.633  18.138  0.00  0.00    +0.000 A 
ENDBRANCH  19  22
ENDBRANCH   5  19
TORSDOF 4
ENDMDL
MODEL 3
REMARK VINA RESULT:      -8.1      1.601      2.029
REMARK  Name = 
REMARK  5 active torsions:
REMARK  status: ('A' for Active; 'I' for Inactive)
REMARK    1  A    between atoms: C_1  and  C_2
REMARK    2  A    between atoms: C_8  and  N_9
REMARK    3  A    between atoms: C_10  and  C_12
REMARK    4  A    between atoms: N_16  and  S_17
REMARK    5  A    between atoms: S_17  and  C_20
REMARK                            x       y       z     vdW  Elec       q    Type
REMARK                         _______ _______ _______ _____ _____    ______ ____
ROOT
ATOM      1  C   UNL     1       1.681   9.117  21.037  0.00  0.00    +0.000 C 
ATOM      2  C   UNL     1       0.916   8.701  22.303  0.00  0.00    +0.000 C 
ATOM      3  C   UNL     1      -0.570   9.073  22.360  0.00  0.00    +0.000 C 
ATOM      4  C   UNL     1      -0.903  10.422  21.726  0.00  0.00    +0.000 C 
ATOM      5  N   UNL     1      -0.228  10.549  20.403  0.00  0.00    +0.000 NA
ATOM      6  C   UNL     1       1.247  10.487  20.540  0.00  0.00    +0.000 C 
ENDROOT
BRANCH   1   8
ATOM      7  N   UNL     1       2.599   6.934  20.150  0.00  0.00    +0.000 N 
ATOM      8  C   UNL     1       1.923   8.117  19.877  0.00  0.00    +0.000 C 
ATOM      9  O   UNL     1       1.495   8.390  18.752  0.00  0.00    +0.000 OA
ATOM     10  H   UNL     1       3.304   6.987  20.883  0.00  0.00    +0.000 HD
BRANCH   7  18
ATOM     11  C   UNL     1       0.901   4.411  20.349  0.00  0.00    +0.000 C 
ATOM     12  C   UNL     1       1.936   4.670  19.289  0.00  0.00    +0.000 A 
ATOM     13  C   UNL     1       2.162   3.634  18.355  0.00  0.00    +0.000 A 
ATOM     14  C   UNL     1       3.123   3.750  17.353  0.00  0.00    +0.000 A 
ATOM     15  C   UNL     1       3.877   4.920  17.285  0.00  0.00    +0.000 A 
ATOM     16 CL   UNL     1       5.043   5.099  16.031  0.00  0.00    +0.000 Cl
ATOM     17  C   UNL     1       3.684   5.950  18.212  0.00  0.00    +0.000 A 
ATOM     18  C   UNL     1       2.706   5.865  19.208  0.00  0.00    +0.000 A 
ENDBRANCH   7  18
ENDBRANCH   1   8
BRANCH   5  19
ATOM     19  S   UNL     1      -0.767  11.855  19.438  0.00  0.00    +0.000 S 
ATOM     20  O   UNL     1      -1.350  12.834  20.333  0.00  0.00    +0.000 OA
ATOM     21  O   UNL     1       0.322  12.229  18.555  0.00  0.00    +0.000 OA
BRANCH  19  22
ATOM     22  C   UNL     1      -2.058  11.320  18.352  0.00  0.00    +0.000 A 
ATOM     23  C   UNL     1      -1.627  10.477  17.304  0.00  0.00    +0.000 A 
ATOM     24  C   UNL     1      -2.538   9.955  16.400  0.00  0.00    +0.000 A 
ATOM     25  C   UNL     1      -3.883  10.266  16.550  0.00  0.00    +0.000 A 
ATOM     26  C   UNL     1      -4.315  11.072  17.616  0.00  0.00    +0.000 A 
ATOM     27  C   UNL     1      -5.685  11.323  17.776  0.00  0.00    +0.000 A 
ATOM     28  C   UNL     1      -6.136  12.101  18.830  0.00  0.00    +0.000 A 
ATOM     29  C   UNL     1      -5.194  12.619  19.687  0.00  0.00    +0.000 A 
ATOM     30  N   UNL     1      -3.868  12.386  19.575  0.00  0.00    +0.000 NA
ATOM     31  C   UNL     1      -3.404  11.626  18.553  0.00  0.00    +0.000 A 
ENDBRANCH  19  22
ENDBRANCH   5  19
TORSDOF 4
ENDMDL
MODEL 4
REMARK VINA RESULT:      -7.9      1.758      2.735
REMARK  Name = 
REMARK  5 active torsions:
REMARK  status: ('A' for Active; 'I' for Inactive)
REMARK    1  A    between atoms: C_1  and  C_2
REMARK    2  A    between atoms: C_8  and  N_9
REMARK    3  A    between atoms: C_10  and  C_12
REMARK    4  A    between atoms: N_16  and  S_17
REMARK    5  A    between atoms: S_17  and  C_20
REMARK                            x       y       z     vdW  Elec       q    Type
REMARK                         _______ _______ _______ _____ _____    ______ ____
ROOT
ATOM      1  C   UNL     1       1.530   9.343  21.448  0.00  0.00    +0.000 C 
ATOM      2  C   UNL     1       0.711   8.881  22.664  0.00  0.00    +0.000 C 
ATOM      3  C   UNL     1      -0.756   9.323  22.711  0.00  0.00    +0.000 C 
ATOM      4  C   UNL     1      -1.005  10.727  22.165  0.00  0.00    +0.000 C 
ATOM      5  N   UNL     1      -0.288  10.910  20.871  0.00  0.00    +0.000 NA
ATOM      6  C   UNL     1       1.178  10.764  21.038  0.00  0.00    +0.000 C 
ENDROOT
BRANCH   1   8
ATOM      7  N   UNL     1       2.562   7.293  20.385  0.00  0.00    +0.000 N 
ATOM      8  C   UNL     1       1.755   8.414  20.228  0.00  0.00    +0.000 C 
ATOM      9  O   UNL     1       1.198   8.684  19.160  0.00  0.00    +0.000 OA
ATOM     10  H   UNL     1       3.325   7.389  21.053  0.00  0.00    +0.000 HD
BRANCH   7  18
ATOM     11  C   UNL     1       0.984   4.690  20.525  0.00  0.00    +0.000 C 
ATOM     12  C   UNL     1       1.966   5.044  19.442  0.00  0.00    +0.000 A 
ATOM     13  C   UNL     1       2.201   4.063  18.452  0.00  0.00    +0.000 A 
ATOM     14  C   UNL     1       3.118   4.267  17.424  0.00  0.00    +0.000 A 
ATOM     15  C   UNL     1       3.817   5.472  17.385  0.00  0.00    +0.000 A 
ATOM     16 CL   UNL     1       4.927   5.761  16.099  0.00  0.00    +0.000 Cl
ATOM     17  C   UNL     1       3.615   6.450  18.366  0.00  0.00    +0.000 A 
ATOM     18  C   UNL     1       2.680   6.275  19.390  0.00  0.00    +0.000 A 
ENDBRANCH   7  18
ENDBRANCH   1   8
BRANCH   5  19
ATOM     19  S   UNL     1      -0.735  12.305  19.986  0.00  0.00    +0.000 S 
ATOM     20  O   UNL     1      -0.667  13.429  20.900  0.00  0.00    +0.000 OA
ATOM     21  O   UNL     1       0.037  12.315  18.758  0.00  0.00    +0.000 OA
BRANCH  19  22
ATOM     22  C   UNL     1      -2.418  12.177  19.454  0.00  0.00    +0.000 A 
ATOM     23  C   UNL     1      -3.349  12.804  20.311  0.00  0.00    +0.000 A 
ATOM     24  C   UNL     1      -4.699  12.812  19.999  0.00  0.00    +0.000 A 
ATOM     25  C   UNL     1      -5.118  12.204  18.823  0.00  0.00    +0.000 A 
ATOM     26  C   UNL     1      -4.186  11.615  17.953  0.00  0.00    +0.000 A 
ATOM     27  C   UNL     1      -4.631  11.058  16.746  0.00  0.00    +0.000 A 
ATOM     28  C   UNL     1      -3.727  10.488  15.863  0.00  0.00    +0.000 A 
ATOM     29  C   UNL     1      -2.402  10.480  16.226  0.00  0.00    +0.000 A 
ATOM     30  N   UNL     1      -1.934  11.021  17.372  0.00  0.00    +0.000 NA
ATOM     31  C   UNL     1      -2.799  11.586  18.249  0.00  0.00    +0.000 A 
ENDBRANCH  19  22
ENDBRANCH   5  19
TORSDOF 4
ENDMDL
MODEL 5
REMARK VINA RESULT:      -7.9      4.329      7.862
REMARK  Name = 
REMARK  5 active torsions:
REMARK  status: ('A' for Active; 'I' for Inactive)
REMARK    1  A    between atoms: C_1  and  C_2
REMARK    2  A    between atoms: C_8  and  N_9
REMARK    3  A    between atoms: C_10  and  C_12
REMARK    4  A    between atoms: N_16  and  S_17
REMARK    5  A    between atoms: S_17  and  C_20
REMARK                            x       y       z     vdW  Elec       q    Type
REMARK                         _______ _______ _______ _____ _____    ______ ____
ROOT
ATOM      1  C   UNL     1      -1.848  12.617  20.407  0.00  0.00    +0.000 C 
ATOM      2  C   UNL     1      -2.373  13.235  21.712  0.00  0.00    +0.000 C 
ATOM      3  C   UNL     1      -1.658  12.822  23.003  0.00  0.00    +0.000 C 
ATOM      4  C   UNL     1      -1.201  11.365  23.028  0.00  0.00    +0.000 C 
ATOM      5  N   UNL     1      -0.528  11.016  21.744  0.00  0.00    +0.000 NA
ATOM      6  C   UNL     1      -1.450  11.161  20.592  0.00  0.00    +0.000 C 
ENDROOT
BRANCH   1   8
ATOM      7  N   UNL     1      -0.191  14.486  20.009  0.00  0.00    +0.000 N 
ATOM      8  C   UNL     1      -0.863  13.386  19.489  0.00  0.00    +0.000 C 
ATOM      9  O   UNL     1      -0.690  12.991  18.333  0.00  0.00    +0.000 OA
ATOM     10  H   UNL     1      -0.698  15.021  20.713  0.00  0.00    +0.000 HD
BRANCH   7  18
ATOM     11  C   UNL     1       2.709  13.578  20.242  0.00  0.00    +0.000 C 
ATOM     12  C   UNL     1       2.237  14.750  19.425  0.00  0.00    +0.000 A 
ATOM     13  C   UNL     1       3.231  15.506  18.765  0.00  0.00    +0.000 A 
ATOM     14  C   UNL     1       2.912  16.633  18.012  0.00  0.00    +0.000 A 
ATOM     15  C   UNL     1       1.576  17.016  17.919  0.00  0.00    +0.000 A 
ATOM     16 CL   UNL     1       1.156  18.385  16.961  0.00  0.00    +0.000 Cl
ATOM     17  C   UNL     1       0.576  16.295  18.581  0.00  0.00    +0.000 A 
ATOM     18  C   UNL     1       0.872  15.144  19.320  0.00  0.00    +0.000 A 
ENDBRANCH   7  18
ENDBRANCH   1   8
BRANCH   5  19
ATOM     19  S   UNL     1       0.321   9.530  21.753  0.00  0.00    +0.000 S 
ATOM     20  O   UNL     1       1.398   9.660  22.714  0.00  0.00    +0.000 OA
ATOM     21  O   UNL     1      -0.655   8.465  21.892  0.00  0.00    +0.000 OA
BRANCH  19  22
ATOM     22  C   UNL     1       1.071   9.245  20.176  0.00  0.00    +0.000 A 
ATOM     23  C   UNL     1       1.108  10.379  19.335  0.00  0.00    +0.000 A 
ATOM     24  C   UNL     1       1.699  10.309  18.083  0.00  0.00    +0.000 A 
ATOM     25  C   UNL     1       2.265   9.108  17.677  0.00  0.00    +0.000 A 
ATOM     26  C   UNL     1       2.262   7.992  18.530  0.00  0.00    +0.000 A 
ATOM     27  C   UNL     1       2.890   6.810  18.115  0.00  0.00    +0.000 A 
ATOM     28  C   UNL     1       2.916   5.702  18.948  0.00  0.00    +0.000 A 
ATOM     29  C   UNL     1       2.295   5.809  20.169  0.00  0.00    +0.000 A 
ATOM     30  N   UNL     1       1.694   6.936  20.609  0.00  0.00    +0.000 NA
ATOM     31  C   UNL     1       1.659   8.033  19.814  0.00  0.00    +0.000 A 
ENDBRANCH  19  22
ENDBRANCH   5  19
TORSDOF 4
ENDMDL
MODEL 6
REMARK VINA RESULT:      -7.9      2.948      4.268
REMARK  Name = 
REMARK  5 active torsions:
REMARK  status: ('A' for Active; 'I' for Inactive)
REMARK    1  A    between atoms: C_1  and  C_2
REMARK    2  A    between atoms: C_8  and  N_9
REMARK    3  A    between atoms: C_10  and  C_12
REMARK    4  A    between atoms: N_16  and  S_17
REMARK    5  A    between atoms: S_17  and  C_20
REMARK                            x       y       z     vdW  Elec       q    Type
REMARK                         _______ _______ _______ _____ _____    ______ ____
ROOT
ATOM      1  C   UNL     1       0.982   9.475  22.101  0.00  0.00    +0.000 C 
ATOM      2  C   UNL     1       0.119   9.648  23.361  0.00  0.00    +0.000 C 
ATOM      3  C   UNL     1      -1.167  10.466  23.204  0.00  0.00    +0.000 C 
ATOM      4  C   UNL     1      -1.045  11.649  22.246  0.00  0.00    +0.000 C 
ATOM      5  N   UNL     1      -0.359  11.226  20.992  0.00  0.00    +0.000 NA
ATOM      6  C   UNL     1       1.016  10.743  21.263  0.00  0.00    +0.000 C 
ENDROOT
BRANCH   1   8
ATOM      7  N   UNL     1       2.063   7.679  20.686  0.00  0.00    +0.000 N 
ATOM      8  C   UNL     1       0.893   8.194  21.232  0.00  0.00    +0.000 C 
ATOM      9  O   UNL     1      -0.206   7.660  21.064  0.00  0.00    +0.000 OA
ATOM     10  H   UNL     1       2.778   8.364  20.447  0.00  0.00    +0.000 HD
BRANCH   7  18
ATOM     11  C   UNL     1       2.881   7.382  17.766  0.00  0.00    +0.000 C 
ATOM     12  C   UNL     1       2.487   6.245  18.669  0.00  0.00    +0.000 A 
ATOM     13  C   UNL     1       2.449   4.957  18.090  0.00  0.00    +0.000 A 
ATOM     14  C   UNL     1       2.062   3.837  18.823  0.00  0.00    +0.000 A 
ATOM     15  C   UNL     1       1.701   4.007  20.158  0.00  0.00    +0.000 A 
ATOM     16 CL   UNL     1       1.257   2.630  21.093  0.00  0.00    +0.000 Cl
ATOM     17  C   UNL     1       1.712   5.276  20.747  0.00  0.00    +0.000 A 
ATOM     18  C   UNL     1       2.124   6.409  20.037  0.00  0.00    +0.000 A 
ENDBRANCH   7  18
ENDBRANCH   1   8
BRANCH   5  19
ATOM     19  S   UNL     1      -0.444  12.352  19.706  0.00  0.00    +0.000 S 
ATOM     20  O   UNL     1      -0.539  11.588  18.477  0.00  0.00    +0.000 OA
ATOM     21  O   UNL     1      -1.465  13.327  20.040  0.00  0.00    +0.000 OA
BRANCH  19  22
ATOM     22  C   UNL     1       1.055  13.288  19.613  0.00  0.00    +0.000 A 
ATOM     23  C   UNL     1       1.857  12.994  18.489  0.00  0.00    +0.000 A 
ATOM     24  C   UNL     1       3.043  13.677  18.272  0.00  0.00    +0.000 A 
ATOM     25  C   UNL     1       3.421  14.664  19.172  0.00  0.00    +0.000 A 
ATOM     26  C   UNL     1       2.602  14.983  20.268  0.00  0.00    +0.000 A 
ATOM     27  C   UNL     1       2.981  16.023  21.129  0.00  0.00    +0.000 A 
ATOM     28  C   UNL     1       2.180  16.367  22.206  0.00  0.00    +0.000 A 
ATOM     29  C   UNL     1       1.026  15.645  22.397  0.00  0.00    +0.000 A 
ATOM     30  N   UNL     1       0.620  14.648  21.580  0.00  0.00    +0.000 NA
ATOM     31  C   UNL     1       1.386  14.296  20.519  0.00  0.00    +0.000 A 
ENDBRANCH  19  22
ENDBRANCH   5  19
TORSDOF 4
ENDMDL
MODEL 7
REMARK VINA RESULT:      -7.8      2.678      4.138
REMARK  Name = 
REMARK  5 active torsions:
REMARK  status: ('A' for Active; 'I' for Inactive)
REMARK    1  A    between atoms: C_1  and  C_2
REMARK    2  A    between atoms: C_8  and  N_9
REMARK    3  A    between atoms: C_10  and  C_12
REMARK    4  A    between atoms: N_16  and  S_17
REMARK    5  A    between atoms: S_17  and  C_20
REMARK                            x       y       z     vdW  Elec       q    Type
REMARK                         _______ _______ _______ _____ _____    ______ ____
ROOT
ATOM      1  C   UNL     1       0.969   9.534  21.844  0.00  0.00    +0.000 C 
ATOM      2  C   UNL     1       0.321   9.739  23.222  0.00  0.00    +0.000 C 
ATOM      3  C   UNL     1      -1.070  10.384  23.237  0.00  0.00    +0.000 C 
ATOM      4  C   UNL     1      -1.270  11.465  22.177  0.00  0.00    +0.000 C 
ATOM      5  N   UNL     1      -0.761  10.993  20.858  0.00  0.00    +0.000 NA
ATOM      6  C   UNL     1       0.692  10.702  20.911  0.00  0.00    +0.000 C 
ENDROOT
BRANCH   1   8
ATOM      7  N   UNL     1       2.071   7.640  20.583  0.00  0.00    +0.000 N 
ATOM      8  C   UNL     1       0.901   8.167  21.116  0.00  0.00    +0.000 C 
ATOM      9  O   UNL     1      -0.181   7.579  21.048  0.00  0.00    +0.000 OA
ATOM     10  H   UNL     1       2.750   8.321  20.246  0.00  0.00    +0.000 HD
BRANCH   7  18
ATOM     11  C   UNL     1       2.947   7.061  17.722  0.00  0.00    +0.000 C 
ATOM     12  C   UNL     1       2.551   6.015  18.729  0.00  0.00    +0.000 A 
ATOM     13  C   UNL     1       2.540   4.675  18.283  0.00  0.00    +0.000 A 
ATOM     14  C   UNL     1       2.153   3.630  19.118  0.00  0.00    +0.000 A 
ATOM     15  C   UNL     1       1.766   3.928  20.423  0.00  0.00    +0.000 A 
ATOM     16 CL   UNL     1       1.322   2.647  21.485  0.00  0.00    +0.000 Cl
ATOM     17  C   UNL     1       1.750   5.251  20.881  0.00  0.00    +0.000 A 
ATOM     18  C   UNL     1       2.160   6.311  20.066  0.00  0.00    +0.000 A 
ENDBRANCH   7  18
ENDBRANCH   1   8
BRANCH   5  19
ATOM     19  S   UNL     1      -1.213  11.959  19.520  0.00  0.00    +0.000 S 
ATOM     20  O   UNL     1      -0.692  11.311  18.332  0.00  0.00    +0.000 OA
ATOM     21  O   UNL     1      -2.632  12.238  19.636  0.00  0.00    +0.000 OA
BRANCH  19  22
ATOM     22  C   UNL     1      -0.436  13.546  19.621  0.00  0.00    +0.000 A 
ATOM     23  C   UNL     1      -1.192  14.523  20.305  0.00  0.00    +0.000 A 
ATOM     24  C   UNL     1      -0.690  15.801  20.490  0.00  0.00    +0.000 A 
ATOM     25  C   UNL     1       0.575  16.100  20.001  0.00  0.00    +0.000 A 
ATOM     26  C   UNL     1       1.342  15.116  19.356  0.00  0.00    +0.000 A 
ATOM     27  C   UNL     1       2.638  15.430  18.923  0.00  0.00    +0.000 A 
ATOM     28  C   UNL     1       3.420  14.470  18.300  0.00  0.00    +0.000 A 
ATOM     29  C   UNL     1       2.871  13.224  18.116  0.00  0.00    +0.000 A 
ATOM     30  N   UNL     1       1.633  12.880  18.533  0.00  0.00    +0.000 NA
ATOM     31  C   UNL     1       0.851  13.801  19.147  0.00  0.00    +0.000 A 
ENDBRANCH  19  22
ENDBRANCH   5  19
TORSDOF 4
ENDMDL
MODEL 8
REMARK VINA RESULT:      -7.7      4.666      7.208
REMARK  Name = 
REMARK  5 active torsions:
REMARK  status: ('A' for Active; 'I' for Inactive)
REMARK    1  A    between atoms: C_1  and  C_2
REMARK    2  A    between atoms: C_8  and  N_9
REMARK    3  A    between atoms: C_10  and  C_12
REMARK    4  A    between atoms: N_16  and  S_17
REMARK    5  A    between atoms: S_17  and  C_20
REMARK                            x       y       z     vdW  Elec       q    Type
REMARK                         _______ _______ _______ _____ _____    ______ ____
ROOT
ATOM      1  C   UNL     1      -6.800  12.468  18.224  0.00  0.00    +0.000 C 
ATOM      2  C   UNL     1      -7.309  13.138  16.938  0.00  0.00    +0.000 C 
ATOM      3  C   UNL     1      -6.931  14.609  16.735  0.00  0.00    +0.000 C 
ATOM      4  C   UNL     1      -6.914  15.435  18.020  0.00  0.00    +0.000 C 
ATOM      5  N   UNL     1      -6.192  14.696  19.095  0.00  0.00    +0.000 NA
ATOM      6  C   UNL     1      -6.861  13.412  19.414  0.00  0.00    +0.000 C 
ENDROOT
BRANCH   1   8
ATOM      7  N   UNL     1      -4.301  12.205  17.946  0.00  0.00    +0.000 N 
ATOM      8  C   UNL     1      -5.518  11.597  18.227  0.00  0.00    +0.000 C 
ATOM      9  O   UNL     1      -5.612  10.396  18.496  0.00  0.00    +0.000 OA
ATOM     10  H   UNL     1      -4.338  12.989  17.296  0.00  0.00    +0.000 HD
BRANCH   7  18
ATOM     11  C   UNL     1      -3.203  10.261  15.871  0.00  0.00    +0.000 C 
ATOM     12  C   UNL     1      -2.518  10.619  17.162  0.00  0.00    +0.000 A 
ATOM     13  C   UNL     1      -1.303   9.956  17.441  0.00  0.00    +0.000 A 
ATOM     14  C   UNL     1      -0.602  10.181  18.624  0.00  0.00    +0.000 A 
ATOM     15  C   UNL     1      -1.128  11.082  19.548  0.00  0.00    +0.000 A 
ATOM     16 CL   UNL     1      -0.258  11.404  20.999  0.00  0.00    +0.000 Cl
ATOM     17  C   UNL     1      -2.341  11.735  19.302  0.00  0.00    +0.000 A 
ATOM     18  C   UNL     1      -3.045  11.543  18.109  0.00  0.00    +0.000 A 
ENDBRANCH   7  18
ENDBRANCH   1   8
BRANCH   5  19
ATOM     19  S   UNL     1      -5.809  15.626  20.480  0.00  0.00    +0.000 S 
ATOM     20  O   UNL     1      -5.269  16.887  20.011  0.00  0.00    +0.000 OA
ATOM     21  O   UNL     1      -6.966  15.609  21.356  0.00  0.00    +0.000 OA
BRANCH  19  22
ATOM     22  C   UNL     1      -4.530  14.835  21.413  0.00  0.00    +0.000 A 
ATOM     23  C   UNL     1      -3.220  15.205  21.035  0.00  0.00    +0.000 A 
ATOM     24  C   UNL     1      -2.122  14.689  21.705  0.00  0.00    +0.000 A 
ATOM     25  C   UNL     1      -2.334  13.812  22.761  0.00  0.00    +0.000 A 
ATOM     26  C   UNL     1      -3.638  13.476  23.160  0.00  0.00    +0.000 A 
ATOM     27  C   UNL     1      -3.822  12.633  24.265  0.00  0.00    +0.000 A 
ATOM     28  C   UNL     1      -5.099  12.303  24.688  0.00  0.00    +0.000 A 
ATOM     29  C   UNL     1      -6.157  12.817  23.978  0.00  0.00    +0.000 A 
ATOM     30  N   UNL     1      -6.020  13.645  22.920  0.00  0.00    +0.000 NA
ATOM     31  C   UNL     1      -4.781  13.984  22.489  0.00  0.00    +0.000 A 
ENDBRANCH  19  22
ENDBRANCH   5  19
TORSDOF 4
ENDMDL
MODEL 9
REMARK VINA RESULT:      -7.7      3.838      6.914
REMARK  Name = 
REMARK  5 active torsions:
REMARK  status: ('A' for Active; 'I' for Inactive)
REMARK    1  A    between atoms: C_1  and  C_2
REMARK    2  A    between atoms: C_8  and  N_9
REMARK    3  A    between atoms: C_10  and  C_12
REMARK    4  A    between atoms: N_16  and  S_17
REMARK    5  A    between atoms: S_17  and  C_20
REMARK                            x       y       z     vdW  Elec       q    Type
REMARK                         _______ _______ _______ _____ _____    ______ ____
ROOT
ATOM      1  C   UNL     1      -4.818  13.911  22.152  0.00  0.00    +0.000 C 
ATOM      2  C   UNL     1      -5.438  15.309  22.001  0.00  0.00    +0.000 C 
ATOM      3  C   UNL     1      -4.472  16.457  21.692  0.00  0.00    +0.000 C 
ATOM      4  C   UNL     1      -3.117  16.341  22.387  0.00  0.00    +0.000 C 
ATOM      5  N   UNL     1      -2.584  14.956  22.244  0.00  0.00    +0.000 NA
ATOM      6  C   UNL     1      -3.482  13.962  22.877  0.00  0.00    +0.000 C 
ENDROOT
BRANCH   1   8
ATOM      7  N   UNL     1      -4.036  13.178  19.862  0.00  0.00    +0.000 N 
ATOM      8  C   UNL     1      -4.815  12.898  20.978  0.00  0.00    +0.000 C 
ATOM      9  O   UNL     1      -5.487  11.868  21.075  0.00  0.00    +0.000 OA
ATOM     10  H   UNL     1      -3.927  14.165  19.634  0.00  0.00    +0.000 HD
BRANCH   7  18
ATOM     11  C   UNL     1      -6.170  12.494  17.797  0.00  0.00    +0.000 C 
ATOM     12  C   UNL     1      -4.796  11.883  17.848  0.00  0.00    +0.000 A 
ATOM     13  C   UNL     1      -4.508  10.883  16.893  0.00  0.00    +0.000 A 
ATOM     14  C   UNL     1      -3.282  10.223  16.872  0.00  0.00    +0.000 A 
ATOM     15  C   UNL     1      -2.325  10.566  17.825  0.00  0.00    +0.000 A 
ATOM     16 CL   UNL     1      -0.787   9.791  17.792  0.00  0.00    +0.000 Cl
ATOM     17  C   UNL     1      -2.595  11.539  18.794  0.00  0.00    +0.000 A 
ATOM     18  C   UNL     1      -3.810  12.232  18.815  0.00  0.00    +0.000 A 
ENDBRANCH   7  18
ENDBRANCH   1   8
BRANCH   5  19
ATOM     19  S   UNL     1      -0.941  14.765  22.683  0.00  0.00    +0.000 S 
ATOM     20  O   UNL     1      -0.275  16.022  22.402  0.00  0.00    +0.000 OA
ATOM     21  O   UNL     1      -0.904  14.203  24.019  0.00  0.00    +0.000 OA
BRANCH  19  22
ATOM     22  C   UNL     1      -0.174  13.539  21.661  0.00  0.00    +0.000 A 
ATOM     23  C   UNL     1       0.559  14.063  20.574  0.00  0.00    +0.000 A 
ATOM     24  C   UNL     1       1.240  13.218  19.712  0.00  0.00    +0.000 A 
ATOM     25  C   UNL     1       1.198  11.850  19.944  0.00  0.00    +0.000 A 
ATOM     26  C   UNL     1       0.501  11.334  21.048  0.00  0.00    +0.000 A 
ATOM     27  C   UNL     1       0.522   9.953  21.290  0.00  0.00    +0.000 A 
ATOM     28  C   UNL     1      -0.143   9.424  22.384  0.00  0.00    +0.000 A 
ATOM     29  C   UNL     1      -0.826  10.296  23.197  0.00  0.00    +0.000 A 
ATOM     30  N   UNL     1      -0.856  11.633  23.005  0.00  0.00    +0.000 NA
ATOM     31  C   UNL     1      -0.211  12.174  21.944  0.00  0.00    +0.000 A 
ENDBRANCH  19  22
ENDBRANCH   5  19
TORSDOF 4
ENDMDL
