MODEL 1
REMARK VINA RESULT:      -6.9      0.000      0.000
REMARK  Name = 
REMARK  5 active torsions:
REMARK  status: ('A' for Active; 'I' for Inactive)
REMARK    1  A    between atoms: C_1  and  C_2
REMARK    2  A    between atoms: C_2  and  C_3
REMARK    3  A    between atoms: C_3  and  C_5
REMARK    4  A    between atoms: C_6  and  C_7
REMARK    5  A    between atoms: N_20  and  C_21
REMARK                            x       y       z     vdW  Elec       q    Type
REMARK                         _______ _______ _______ _____ _____    ______ ____
ROOT
ATOM      1  C   UNL     1       5.075   3.993  17.732  0.00  0.00    +0.000 C 
ATOM      2  C   UNL     1       4.017   4.900  17.072  0.00  0.00    +0.000 C 
ATOM      3  C   UNL     1       4.778   5.497  15.829  0.00  0.00    +0.000 C 
ATOM      4  C   UNL     1       6.194   6.052  16.166  0.00  0.00    +0.000 C 
ATOM      5  C   UNL     1       7.402   5.108  16.001  0.00  0.00    +0.000 C 
ATOM      6  C   UNL     1       7.522   4.337  17.323  0.00  0.00    +0.000 C 
ATOM      7  C   UNL     1       6.335   4.851  18.140  0.00  0.00    +0.000 C 
ATOM      8  N   UNL     1       6.170   6.239  17.611  0.00  0.00    +0.000 NA
ATOM      9  C   UNL     1       7.092   7.257  18.081  0.00  0.00    +0.000 C 
ENDROOT
BRANCH   2  10
ATOM     10  C   UNL     1       3.321   5.888  18.028  0.00  0.00    +0.000 A 
ATOM     11  C   UNL     1       2.913   5.554  19.338  0.00  0.00    +0.000 A 
ATOM     12  C   UNL     1       2.258   6.449  20.187  0.00  0.00    +0.000 A 
ATOM     13  C   UNL     1       1.966   7.727  19.734  0.00  0.00    +0.000 A 
ATOM     14  I   UNL     1       0.949   9.037  20.983  0.00  0.00    +0.000 I 
ATOM     15  C   UNL     1       2.351   8.095  18.447  0.00  0.00    +0.000 A 
ATOM     16  F   UNL     1       2.082   9.320  17.977  0.00  0.00    +0.000 F 
ATOM     17  C   UNL     1       3.021   7.193  17.600  0.00  0.00    +0.000 A 
ENDBRANCH   2  10
BRANCH   1  18
ATOM     18  C   UNL     1       4.492   3.020  18.760  0.00  0.00    +0.000 C 
ATOM     19  O   UNL     1       4.908   2.954  19.916  0.00  0.00    +0.000 OA
BRANCH  18  21
ATOM     20  C   UNL     1       2.169   2.053  19.156  0.00  0.00    +0.000 C 
ATOM     21  C   UNL     1       3.377   2.102  18.246  0.00  0.00    +0.000 C 
ENDBRANCH  18  21
ENDBRANCH   1  18
TORSDOF 3
ENDMDL
MODEL 2
REMARK VINA RESULT:      -6.8      1.033      1.466
REMARK  Name = 
REMARK  5 active torsions:
REMARK  status: ('A' for Active; 'I' for Inactive)
REMARK    1  A    between atoms: C_1  and  C_2
REMARK    2  A    between atoms: C_2  and  C_3
REMARK    3  A    between atoms: C_3  and  C_5
REMARK    4  A    between atoms: C_6  and  C_7
REMARK    5  A    between atoms: N_20  and  C_21
REMARK                            x       y       z     vdW  Elec       q    Type
REMARK                         _______ _______ _______ _____ _____    ______ ____
ROOT
ATOM      1  C   UNL     1       5.103   3.965  17.704  0.00  0.00    +0.000 C 
ATOM      2  C   UNL     1       4.044   4.825  16.988  0.00  0.00    +0.000 C 
ATOM      3  C   UNL     1       4.822   5.396  15.743  0.00  0.00    +0.000 C 
ATOM      4  C   UNL     1       6.218   5.992  16.095  0.00  0.00    +0.000 C 
ATOM      5  C   UNL     1       7.449   5.069  15.991  0.00  0.00    +0.000 C 
ATOM      6  C   UNL     1       7.552   4.346  17.341  0.00  0.00    +0.000 C 
ATOM      7  C   UNL     1       6.335   4.862  18.111  0.00  0.00    +0.000 C 
ATOM      8  N   UNL     1       6.155   6.228  17.531  0.00  0.00    +0.000 NA
ATOM      9  C   UNL     1       7.044   7.281  17.987  0.00  0.00    +0.000 C 
ENDROOT
BRANCH   2  10
ATOM     10  C   UNL     1       3.305   5.831  17.892  0.00  0.00    +0.000 A 
ATOM     11  C   UNL     1       3.131   7.195  17.568  0.00  0.00    +0.000 A 
ATOM     12  C   UNL     1       2.484   8.105  18.408  0.00  0.00    +0.000 A 
ATOM     13  C   UNL     1       1.999   7.673  19.633  0.00  0.00    +0.000 A 
ATOM     14  I   UNL     1       1.080   9.041  20.897  0.00  0.00    +0.000 I 
ATOM     15  C   UNL     1       2.151   6.336  19.991  0.00  0.00    +0.000 A 
ATOM     16  F   UNL     1       1.697   5.887  21.167  0.00  0.00    +0.000 F 
ATOM     17  C   UNL     1       2.794   5.421  19.136  0.00  0.00    +0.000 A 
ENDBRANCH   2  10
BRANCH   1  18
ATOM     18  C   UNL     1       4.515   3.015  18.751  0.00  0.00    +0.000 C 
ATOM     19  O   UNL     1       4.893   3.009  19.922  0.00  0.00    +0.000 OA
BRANCH  18  21
ATOM     20  C   UNL     1       2.229   1.959  19.131  0.00  0.00    +0.000 C 
ATOM     21  C   UNL     1       3.448   2.042  18.238  0.00  0.00    +0.000 C 
ENDBRANCH  18  21
ENDBRANCH   1  18
TORSDOF 3
ENDMDL
MODEL 3
REMARK VINA RESULT:      -6.7      2.016      4.128
REMARK  Name = 
REMARK  5 active torsions:
REMARK  status: ('A' for Active; 'I' for Inactive)
REMARK    1  A    between atoms: C_1  and  C_2
REMARK    2  A    between atoms: C_2  and  C_3
REMARK    3  A    between atoms: C_3  and  C_5
REMARK    4  A    between atoms: C_6  and  C_7
REMARK    5  A    between atoms: N_20  and  C_21
REMARK                            x       y       z     vdW  Elec       q    Type
REMARK                         _______ _______ _______ _____ _____    ______ ____
ROOT
ATOM      1  C   UNL     1       4.681   4.223  17.940  0.00  0.00    +0.000 C 
ATOM      2  C   UNL     1       4.388   4.976  19.253  0.00  0.00    +0.000 C 
ATOM      3  C   UNL     1       3.923   3.832  20.231  0.00  0.00    +0.000 C 
ATOM      4  C   UNL     1       2.860   2.875  19.616  0.00  0.00    +0.000 C 
ATOM      5  C   UNL     1       3.354   1.590  18.922  0.00  0.00    +0.000 C 
ATOM      6  C   UNL     1       3.662   1.983  17.470  0.00  0.00    +0.000 C 
ATOM      7  C   UNL     1       3.376   3.487  17.444  0.00  0.00    +0.000 C 
ATOM      8  N   UNL     1       2.315   3.620  18.489  0.00  0.00    +0.000 NA
ATOM      9  C   UNL     1       0.962   3.232  18.134  0.00  0.00    +0.000 C 
ENDROOT
BRANCH   2  10
ATOM     10  C   UNL     1       3.472   6.207  19.105  0.00  0.00    +0.000 A 
ATOM     11  C   UNL     1       3.471   7.050  17.972  0.00  0.00    +0.000 A 
ATOM     12  C   UNL     1       2.657   8.180  17.860  0.00  0.00    +0.000 A 
ATOM     13  C   UNL     1       1.816   8.520  18.909  0.00  0.00    +0.000 A 
ATOM     14  I   UNL     1       0.644  10.227  18.755  0.00  0.00    +0.000 I 
ATOM     15  C   UNL     1       1.789   7.714  20.045  0.00  0.00    +0.000 A 
ATOM     16  F   UNL     1       0.991   8.015  21.077  0.00  0.00    +0.000 F 
ATOM     17  C   UNL     1       2.603   6.571  20.148  0.00  0.00    +0.000 A 
ENDBRANCH   2  10
BRANCH   1  18
ATOM     18  C   UNL     1       5.483   5.045  16.927  0.00  0.00    +0.000 C 
ATOM     19  O   UNL     1       5.056   5.305  15.803  0.00  0.00    +0.000 OA
BRANCH  18  21
ATOM     20  C   UNL     1       7.065   6.995  17.356  0.00  0.00    +0.000 C 
ATOM     21  C   UNL     1       6.873   5.494  17.392  0.00  0.00    +0.000 C 
ENDBRANCH  18  21
ENDBRANCH   1  18
TORSDOF 3
ENDMDL
MODEL 4
REMARK VINA RESULT:      -6.6      2.089      3.978
REMARK  Name = 
REMARK  5 active torsions:
REMARK  status: ('A' for Active; 'I' for Inactive)
REMARK    1  A    between atoms: C_1  and  C_2
REMARK    2  A    between atoms: C_2  and  C_3
REMARK    3  A    between atoms: C_3  and  C_5
REMARK    4  A    between atoms: C_6  and  C_7
REMARK    5  A    between atoms: N_20  and  C_21
REMARK                            x       y       z     vdW  Elec       q    Type
REMARK                         _______ _______ _______ _____ _____    ______ ____
ROOT
ATOM      1  C   UNL     1       4.738   4.198  17.875  0.00  0.00    +0.000 C 
ATOM      2  C   UNL     1       4.466   4.968  19.182  0.00  0.00    +0.000 C 
ATOM      3  C   UNL     1       4.032   3.834  20.186  0.00  0.00    +0.000 C 
ATOM      4  C   UNL     1       2.964   2.858  19.608  0.00  0.00    +0.000 C 
ATOM      5  C   UNL     1       3.456   1.567  18.923  0.00  0.00    +0.000 C 
ATOM      6  C   UNL     1       3.730   1.942  17.459  0.00  0.00    +0.000 C 
ATOM      7  C   UNL     1       3.431   3.442  17.417  0.00  0.00    +0.000 C 
ATOM      8  N   UNL     1       2.390   3.582  18.481  0.00  0.00    +0.000 NA
ATOM      9  C   UNL     1       1.034   3.177  18.160  0.00  0.00    +0.000 C 
ENDROOT
BRANCH   2  10
ATOM     10  C   UNL     1       3.536   6.188  19.035  0.00  0.00    +0.000 A 
ATOM     11  C   UNL     1       3.519   7.027  17.899  0.00  0.00    +0.000 A 
ATOM     12  C   UNL     1       2.692   8.147  17.787  0.00  0.00    +0.000 A 
ATOM     13  C   UNL     1       1.854   8.482  18.840  0.00  0.00    +0.000 A 
ATOM     14  I   UNL     1       0.663  10.176  18.687  0.00  0.00    +0.000 I 
ATOM     15  C   UNL     1       1.842   7.681  19.980  0.00  0.00    +0.000 A 
ATOM     16  F   UNL     1       1.048   7.978  21.015  0.00  0.00    +0.000 F 
ATOM     17  C   UNL     1       2.669   6.547  20.082  0.00  0.00    +0.000 A 
ENDBRANCH   2  10
BRANCH   1  18
ATOM     18  C   UNL     1       5.512   5.011  16.834  0.00  0.00    +0.000 C 
ATOM     19  O   UNL     1       6.407   5.796  17.144  0.00  0.00    +0.000 OA
BRANCH  18  21
ATOM     20  C   UNL     1       6.057   4.007  14.557  0.00  0.00    +0.000 C 
ATOM     21  C   UNL     1       5.074   4.813  15.379  0.00  0.00    +0.000 C 
ENDBRANCH  18  21
ENDBRANCH   1  18
TORSDOF 3
ENDMDL
MODEL 5
REMARK VINA RESULT:      -6.1      2.024      4.190
REMARK  Name = 
REMARK  5 active torsions:
REMARK  status: ('A' for Active; 'I' for Inactive)
REMARK    1  A    between atoms: C_1  and  C_2
REMARK    2  A    between atoms: C_2  and  C_3
REMARK    3  A    between atoms: C_3  and  C_5
REMARK    4  A    between atoms: C_6  and  C_7
REMARK    5  A    between atoms: N_20  and  C_21
REMARK                            x       y       z     vdW  Elec       q    Type
REMARK                         _______ _______ _______ _____ _____    ______ ____
ROOT
ATOM      1  C   UNL     1       4.106   4.306  19.155  0.00  0.00    +0.000 C 
ATOM      2  C   UNL     1       3.228   4.961  20.241  0.00  0.00    +0.000 C 
ATOM      3  C   UNL     1       2.222   3.815  20.634  0.00  0.00    +0.000 C 
ATOM      4  C   UNL     1       1.567   3.108  19.410  0.00  0.00    +0.000 C 
ATOM      5  C   UNL     1       2.243   1.836  18.859  0.00  0.00    +0.000 C 
ATOM      6  C   UNL     1       3.304   2.318  17.859  0.00  0.00    +0.000 C 
ATOM      7  C   UNL     1       3.204   3.843  17.947  0.00  0.00    +0.000 C 
ATOM      8  N   UNL     1       1.766   4.040  18.308  0.00  0.00    +0.000 NA
ATOM      9  C   UNL     1       0.778   3.913  17.252  0.00  0.00    +0.000 C 
ENDROOT
BRANCH   2  10
ATOM     10  C   UNL     1       2.637   6.333  19.858  0.00  0.00    +0.000 A 
ATOM     11  C   UNL     1       2.909   6.988  18.637  0.00  0.00    +0.000 A 
ATOM     12  C   UNL     1       2.391   8.244  18.311  0.00  0.00    +0.000 A 
ATOM     13  C   UNL     1       1.584   8.905  19.225  0.00  0.00    +0.000 A 
ATOM     14  I   UNL     1       0.856  10.792  18.754  0.00  0.00    +0.000 I 
ATOM     15  C   UNL     1       1.293   8.292  20.441  0.00  0.00    +0.000 A 
ATOM     16  F   UNL     1       0.520   8.904  21.346  0.00  0.00    +0.000 F 
ATOM     17  C   UNL     1       1.809   7.023  20.759  0.00  0.00    +0.000 A 
ENDBRANCH   2  10
BRANCH   1  18
ATOM     18  C   UNL     1       5.388   5.085  18.851  0.00  0.00    +0.000 C 
ATOM     19  O   UNL     1       6.141   5.488  19.737  0.00  0.00    +0.000 OA
BRANCH  18  21
ATOM     20  C   UNL     1       6.477   6.616  17.130  0.00  0.00    +0.000 C 
ATOM     21  C   UNL     1       5.657   5.366  17.369  0.00  0.00    +0.000 C 
ENDBRANCH  18  21
ENDBRANCH   1  18
TORSDOF 3
ENDMDL
MODEL 6
REMARK VINA RESULT:      -6.1      1.890      3.921
REMARK  Name = 
REMARK  5 active torsions:
REMARK  status: ('A' for Active; 'I' for Inactive)
REMARK    1  A    between atoms: C_1  and  C_2
REMARK    2  A    between atoms: C_2  and  C_3
REMARK    3  A    between atoms: C_3  and  C_5
REMARK    4  A    between atoms: C_6  and  C_7
REMARK    5  A    between atoms: N_20  and  C_21
REMARK                            x       y       z     vdW  Elec       q    Type
REMARK                         _______ _______ _______ _____ _____    ______ ____
ROOT
ATOM      1  C   UNL     1       4.454   4.466  18.029  0.00  0.00    +0.000 C 
ATOM      2  C   UNL     1       4.185   5.095  19.411  0.00  0.00    +0.000 C 
ATOM      3  C   UNL     1       3.748   3.863  20.290  0.00  0.00    +0.000 C 
ATOM      4  C   UNL     1       2.678   2.956  19.613  0.00  0.00    +0.000 C 
ATOM      5  C   UNL     1       3.165   1.744  18.794  0.00  0.00    +0.000 C 
ATOM      6  C   UNL     1       3.440   2.270  17.379  0.00  0.00    +0.000 C 
ATOM      7  C   UNL     1       3.144   3.767  17.496  0.00  0.00    +0.000 C 
ATOM      8  N   UNL     1       2.105   3.797  18.569  0.00  0.00    +0.000 NA
ATOM      9  C   UNL     1       0.747   3.432  18.208  0.00  0.00    +0.000 C 
ENDROOT
BRANCH   2  10
ATOM     10  C   UNL     1       3.259   6.327  19.395  0.00  0.00    +0.000 A 
ATOM     11  C   UNL     1       2.398   6.673  20.459  0.00  0.00    +0.000 A 
ATOM     12  C   UNL     1       1.541   7.775  20.423  0.00  0.00    +0.000 A 
ATOM     13  C   UNL     1       1.504   8.571  19.288  0.00  0.00    +0.000 A 
ATOM     14  I   UNL     1       0.195  10.181  19.222  0.00  0.00    +0.000 I 
ATOM     15  C   UNL     1       2.338   8.263  18.216  0.00  0.00    +0.000 A 
ATOM     16  F   UNL     1       2.325   9.009  17.104  0.00  0.00    +0.000 F 
ATOM     17  C   UNL     1       3.207   7.157  18.262  0.00  0.00    +0.000 A 
ENDBRANCH   2  10
BRANCH   1  18
ATOM     18  C   UNL     1       5.230   5.383  17.080  0.00  0.00    +0.000 C 
ATOM     19  O   UNL     1       4.842   5.631  15.939  0.00  0.00    +0.000 OA
BRANCH  18  21
ATOM     20  C   UNL     1       7.601   4.887  17.867  0.00  0.00    +0.000 C 
ATOM     21  C   UNL     1       6.545   5.945  17.629  0.00  0.00    +0.000 C 
ENDBRANCH  18  21
ENDBRANCH   1  18
TORSDOF 3
ENDMDL
MODEL 7
REMARK VINA RESULT:      -6.0      1.190      1.224
REMARK  Name = 
REMARK  5 active torsions:
REMARK  status: ('A' for Active; 'I' for Inactive)
REMARK    1  A    between atoms: C_1  and  C_2
REMARK    2  A    between atoms: C_2  and  C_3
REMARK    3  A    between atoms: C_3  and  C_5
REMARK    4  A    between atoms: C_6  and  C_7
REMARK    5  A    between atoms: N_20  and  C_21
REMARK                            x       y       z     vdW  Elec       q    Type
REMARK                         _______ _______ _______ _____ _____    ______ ____
ROOT
ATOM      1  C   UNL     1       4.380   4.350  17.093  0.00  0.00    +0.000 C 
ATOM      2  C   UNL     1       3.841   5.758  16.771  0.00  0.00    +0.000 C 
ATOM      3  C   UNL     1       5.068   6.467  16.084  0.00  0.00    +0.000 C 
ATOM      4  C   UNL     1       6.409   6.293  16.858  0.00  0.00    +0.000 C 
ATOM      5  C   UNL     1       7.326   5.116  16.467  0.00  0.00    +0.000 C 
ATOM      6  C   UNL     1       6.839   3.909  17.280  0.00  0.00    +0.000 C 
ATOM      7  C   UNL     1       5.633   4.462  18.044  0.00  0.00    +0.000 C 
ATOM      8  N   UNL     1       5.998   5.903  18.201  0.00  0.00    +0.000 NA
ATOM      9  C   UNL     1       6.964   6.249  19.228  0.00  0.00    +0.000 C 
ENDROOT
BRANCH   2  10
ATOM     10  C   UNL     1       3.167   6.481  17.954  0.00  0.00    +0.000 A 
ATOM     11  C   UNL     1       2.866   5.856  19.184  0.00  0.00    +0.000 A 
ATOM     12  C   UNL     1       2.229   6.512  20.240  0.00  0.00    +0.000 A 
ATOM     13  C   UNL     1       1.846   7.837  20.086  0.00  0.00    +0.000 A 
ATOM     14  I   UNL     1       0.858   8.792  21.642  0.00  0.00    +0.000 I 
ATOM     15  C   UNL     1       2.124   8.488  18.887  0.00  0.00    +0.000 A 
ATOM     16  F   UNL     1       1.766   9.765  18.704  0.00  0.00    +0.000 F 
ATOM     17  C   UNL     1       2.776   7.825  17.831  0.00  0.00    +0.000 A 
ENDBRANCH   2  10
BRANCH   1  18
ATOM     18  C   UNL     1       3.284   3.340  17.446  0.00  0.00    +0.000 C 
ATOM     19  O   UNL     1       2.205   3.306  16.856  0.00  0.00    +0.000 OA
BRANCH  18  21
ATOM     20  C   UNL     1       2.463   2.241  19.592  0.00  0.00    +0.000 C 
ATOM     21  C   UNL     1       3.604   2.395  18.609  0.00  0.00    +0.000 C 
ENDBRANCH  18  21
ENDBRANCH   1  18
TORSDOF 3
ENDMDL
MODEL 8
REMARK VINA RESULT:      -5.9      1.867      4.005
REMARK  Name = 
REMARK  5 active torsions:
REMARK  status: ('A' for Active; 'I' for Inactive)
REMARK    1  A    between atoms: C_1  and  C_2
REMARK    2  A    between atoms: C_2  and  C_3
REMARK    3  A    between atoms: C_3  and  C_5
REMARK    4  A    between atoms: C_6  and  C_7
REMARK    5  A    between atoms: N_20  and  C_21
REMARK                            x       y       z     vdW  Elec       q    Type
REMARK                         _______ _______ _______ _____ _____    ______ ____
ROOT
ATOM      1  C   UNL     1       4.147   4.353  19.143  0.00  0.00    +0.000 C 
ATOM      2  C   UNL     1       3.268   4.943  20.265  0.00  0.00    +0.000 C 
ATOM      3  C   UNL     1       2.279   3.766  20.606  0.00  0.00    +0.000 C 
ATOM      4  C   UNL     1       1.626   3.111  19.352  0.00  0.00    +0.000 C 
ATOM      5  C   UNL     1       2.315   1.877  18.736  0.00  0.00    +0.000 C 
ATOM      6  C   UNL     1       3.363   2.421  17.755  0.00  0.00    +0.000 C 
ATOM      7  C   UNL     1       3.244   3.938  17.919  0.00  0.00    +0.000 C 
ATOM      8  N   UNL     1       1.806   4.099  18.297  0.00  0.00    +0.000 NA
ATOM      9  C   UNL     1       0.814   4.011  17.241  0.00  0.00    +0.000 C 
ENDROOT
BRANCH   2  10
ATOM     10  C   UNL     1       2.658   6.323  19.952  0.00  0.00    +0.000 A 
ATOM     11  C   UNL     1       1.846   7.043  20.857  0.00  0.00    +0.000 A 
ATOM     12  C   UNL     1       1.274   8.280  20.554  0.00  0.00    +0.000 A 
ATOM     13  C   UNL     1       1.484   8.839  19.302  0.00  0.00    +0.000 A 
ATOM     14  I   UNL     1       0.593  10.657  18.841  0.00  0.00    +0.000 I 
ATOM     15  C   UNL     1       2.279   8.160  18.381  0.00  0.00    +0.000 A 
ATOM     16  F   UNL     1       2.500   8.670  17.163  0.00  0.00    +0.000 F 
ATOM     17  C   UNL     1       2.861   6.919  18.696  0.00  0.00    +0.000 A 
ENDBRANCH   2  10
BRANCH   1  18
ATOM     18  C   UNL     1       5.418   5.163  18.871  0.00  0.00    +0.000 C 
ATOM     19  O   UNL     1       6.158   5.551  19.773  0.00  0.00    +0.000 OA
BRANCH  18  21
ATOM     20  C   UNL     1       6.256   6.880  17.186  0.00  0.00    +0.000 C 
ATOM     21  C   UNL     1       5.691   5.492  17.399  0.00  0.00    +0.000 C 
ENDBRANCH  18  21
ENDBRANCH   1  18
TORSDOF 3
ENDMDL
MODEL 9
REMARK VINA RESULT:      -5.8      1.906      3.868
REMARK  Name = 
REMARK  5 active torsions:
REMARK  status: ('A' for Active; 'I' for Inactive)
REMARK    1  A    between atoms: C_1  and  C_2
REMARK    2  A    between atoms: C_2  and  C_3
REMARK    3  A    between atoms: C_3  and  C_5
REMARK    4  A    between atoms: C_6  and  C_7
REMARK    5  A    between atoms: N_20  and  C_21
REMARK                            x       y       z     vdW  Elec       q    Type
REMARK                         _______ _______ _______ _____ _____    ______ ____
ROOT
ATOM      1  C   UNL     1       4.434   4.499  18.307  0.00  0.00    +0.000 C 
ATOM      2  C   UNL     1       4.007   5.117  19.653  0.00  0.00    +0.000 C 
ATOM      3  C   UNL     1       3.434   3.887  20.451  0.00  0.00    +0.000 C 
ATOM      4  C   UNL     1       2.437   3.014  19.631  0.00  0.00    +0.000 C 
ATOM      5  C   UNL     1       2.997   1.800  18.863  0.00  0.00    +0.000 C 
ATOM      6  C   UNL     1       3.461   2.336  17.501  0.00  0.00    +0.000 C 
ATOM      7  C   UNL     1       3.187   3.838  17.602  0.00  0.00    +0.000 C 
ATOM      8  N   UNL     1       2.021   3.880  18.536  0.00  0.00    +0.000 NA
ATOM      9  C   UNL     1       0.712   3.553  18.001  0.00  0.00    +0.000 C 
ENDROOT
BRANCH   2  10
ATOM     10  C   UNL     1       3.118   6.372  19.537  0.00  0.00    +0.000 A 
ATOM     11  C   UNL     1       2.246   6.810  20.557  0.00  0.00    +0.000 A 
ATOM     12  C   UNL     1       1.423   7.932  20.432  0.00  0.00    +0.000 A 
ATOM     13  C   UNL     1       1.434   8.654  19.248  0.00  0.00    +0.000 A 
ATOM     14  I   UNL     1       0.176  10.294  19.050  0.00  0.00    +0.000 I 
ATOM     15  C   UNL     1       2.281   8.254  18.217  0.00  0.00    +0.000 A 
ATOM     16  F   UNL     1       2.314   8.928  17.060  0.00  0.00    +0.000 F 
ATOM     17  C   UNL     1       3.115   7.129  18.353  0.00  0.00    +0.000 A 
ENDBRANCH   2  10
BRANCH   1  18
ATOM     18  C   UNL     1       5.345   5.407  17.476  0.00  0.00    +0.000 C 
ATOM     19  O   UNL     1       6.237   6.086  17.982  0.00  0.00    +0.000 OA
BRANCH  18  21
ATOM     20  C   UNL     1       5.945   4.537  15.159  0.00  0.00    +0.000 C 
ATOM     21  C   UNL     1       5.049   5.446  15.973  0.00  0.00    +0.000 C 
ENDBRANCH  18  21
ENDBRANCH   1  18
TORSDOF 3
ENDMDL
