MODEL 1
REMARK VINA RESULT:      -8.9      0.000      0.000
REMARK  Name = 
REMARK  8 active torsions:
REMARK  status: ('A' for Active; 'I' for Inactive)
REMARK    1  A    between atoms: C_1  and  C_2
REMARK    2  A    between atoms: C_4  and  N_5
REMARK    3  A    between atoms: C_14  and  C_15
REMARK    4  A    between atoms: C_16  and  N_17
REMARK    5  A    between atoms: N_17  and  C_18
REMARK    6  A    between atoms: C_18  and  C_19
REMARK    7  A    between atoms: C_19  and  C_20
REMARK    8  A    between atoms: N_22  and  C_23
REMARK                            x       y       z     vdW  Elec       q    Type
REMARK                         _______ _______ _______ _____ _____    ______ ____
ROOT
ATOM      1  C   UNL     1       3.022   4.931  19.884  0.00  0.00    +0.000 A 
ATOM      2  C   UNL     1       4.241   4.624  19.370  0.00  0.00    +0.000 A 
ATOM      3  C   UNL     1       4.697   3.237  19.446  0.00  0.00    +0.000 A 
ATOM      4  C   UNL     1       3.951   2.285  20.009  0.00  0.00    +0.000 A 
ATOM      5  N   UNL     1       2.707   2.582  20.488  0.00  0.00    +0.000 N 
ATOM      6  C   UNL     1       2.151   3.840  20.444  0.00  0.00    +0.000 A 
ATOM      7  O   UNL     1       0.991   4.020  20.810  0.00  0.00    +0.000 OA
ATOM      8  H   UNL     1       2.123   1.861  20.889  0.00  0.00    +0.000 HD
ENDROOT
BRANCH   1  16
ATOM      9  C   UNL     1       1.870   9.845  17.534  0.00  0.00    +0.000 C 
ATOM     10  C   UNL     1       1.453   9.477  18.926  0.00  0.00    +0.000 A 
ATOM     11  C   UNL     1       0.706  10.380  19.723  0.00  0.00    +0.000 A 
ATOM     12  C   UNL     1       0.321  10.103  21.047  0.00  0.00    +0.000 A 
ATOM     13  C   UNL     1       0.709   8.870  21.603  0.00  0.00    +0.000 A 
ATOM     14  C   UNL     1       1.440   7.977  20.815  0.00  0.00    +0.000 A 
ATOM     15  N   UNL     1       1.977   6.739  21.069  0.00  0.00    +0.000 N 
ATOM     16  C   UNL     1       2.527   6.258  19.905  0.00  0.00    +0.000 A 
ATOM     17  N   UNL     1       2.466   7.172  18.955  0.00  0.00    +0.000 NA
ATOM     18  C   UNL     1       1.799   8.243  19.502  0.00  0.00    +0.000 A 
ATOM     19  H   UNL     1       1.939   6.245  21.948  0.00  0.00    +0.000 HD
BRANCH  12  20
ATOM     20  N   UNL     1      -0.353  11.024  21.831  0.00  0.00    +0.000 N 
ATOM     21  C   UNL     1      -1.008  10.658  23.100  0.00  0.00    +0.000 C 
ATOM     22  C   UNL     1      -2.233  11.568  23.319  0.00  0.00    +0.000 C 
ATOM     23  O   UNL     1      -1.913  12.968  23.216  0.00  0.00    +0.000 OA
ATOM     24  C   UNL     1      -1.330  13.252  21.931  0.00  0.00    +0.000 C 
ATOM     25  C   UNL     1      -0.031  12.458  21.739  0.00  0.00    +0.000 C 
ENDBRANCH  12  20
ENDBRANCH   1  16
BRANCH   2  26
ATOM     26  N   UNL     1       5.156   5.504  18.776  0.00  0.00    +0.000 N 
ATOM     27  H   UNL     1       5.127   5.454  17.761  0.00  0.00    +0.000 HD
BRANCH  26  28
ATOM     28  C   UNL     1       6.547   5.595  19.262  0.00  0.00    +0.000 C 
BRANCH  28  29
ATOM     29  C   UNL     1       7.521   5.912  18.120  0.00  0.00    +0.000 C 
BRANCH  29  30
ATOM     30  C   UNL     1       6.894   5.645  16.797  0.00  0.00    +0.000 A 
ATOM     31  C   UNL     1       7.025   4.533  15.995  0.00  0.00    +0.000 A 
ATOM     32  N   UNL     1       6.170   4.744  14.954  0.00  0.00    +0.000 N 
ATOM     33  C   UNL     1       5.893   3.826  13.879  0.00  0.00    +0.000 C 
ATOM     34  C   UNL     1       5.589   5.965  15.131  0.00  0.00    +0.000 A 
ATOM     35  N   UNL     1       6.014   6.540  16.235  0.00  0.00    +0.000 NA
ENDBRANCH  29  30
ENDBRANCH  28  29
ENDBRANCH  26  28
ENDBRANCH   2  26
TORSDOF 6
ENDMDL
MODEL 2
REMARK VINA RESULT:      -8.7      0.776      1.012
REMARK  Name = 
REMARK  8 active torsions:
REMARK  status: ('A' for Active; 'I' for Inactive)
REMARK    1  A    between atoms: C_1  and  C_2
REMARK    2  A    between atoms: C_4  and  N_5
REMARK    3  A    between atoms: C_14  and  C_15
REMARK    4  A    between atoms: C_16  and  N_17
REMARK    5  A    between atoms: N_17  and  C_18
REMARK    6  A    between atoms: C_18  and  C_19
REMARK    7  A    between atoms: C_19  and  C_20
REMARK    8  A    between atoms: N_22  and  C_23
REMARK                            x       y       z     vdW  Elec       q    Type
REMARK                         _______ _______ _______ _____ _____    ______ ____
ROOT
ATOM      1  C   UNL     1       2.900   4.956  19.853  0.00  0.00    +0.000 A 
ATOM      2  C   UNL     1       4.124   4.633  19.361  0.00  0.00    +0.000 A 
ATOM      3  C   UNL     1       4.548   3.235  19.417  0.00  0.00    +0.000 A 
ATOM      4  C   UNL     1       3.768   2.288  19.940  0.00  0.00    +0.000 A 
ATOM      5  N   UNL     1       2.519   2.602  20.398  0.00  0.00    +0.000 N 
ATOM      6  C   UNL     1       1.993   3.872  20.369  0.00  0.00    +0.000 A 
ATOM      7  O   UNL     1       0.829   4.071  20.712  0.00  0.00    +0.000 OA
ATOM      8  H   UNL     1       1.911   1.885  20.768  0.00  0.00    +0.000 HD
ENDROOT
BRANCH   1  16
ATOM      9  C   UNL     1       1.930   9.951  17.595  0.00  0.00    +0.000 C 
ATOM     10  C   UNL     1       1.462   9.559  18.964  0.00  0.00    +0.000 A 
ATOM     11  C   UNL     1       0.710  10.458  19.760  0.00  0.00    +0.000 A 
ATOM     12  C   UNL     1       0.278  10.158  21.064  0.00  0.00    +0.000 A 
ATOM     13  C   UNL     1       0.621   8.902  21.600  0.00  0.00    +0.000 A 
ATOM     14  C   UNL     1       1.357   8.013  20.812  0.00  0.00    +0.000 A 
ATOM     15  N   UNL     1       1.858   6.757  21.051  0.00  0.00    +0.000 N 
ATOM     16  C   UNL     1       2.434   6.292  19.893  0.00  0.00    +0.000 A 
ATOM     17  N   UNL     1       2.423   7.231  18.965  0.00  0.00    +0.000 NA
ATOM     18  C   UNL     1       1.762   8.303  19.519  0.00  0.00    +0.000 A 
ATOM     19  H   UNL     1       1.783   6.243  21.916  0.00  0.00    +0.000 HD
BRANCH  12  20
ATOM     20  N   UNL     1      -0.400  11.073  21.850  0.00  0.00    +0.000 N 
ATOM     21  C   UNL     1      -1.048  10.704  23.120  0.00  0.00    +0.000 C 
ATOM     22  C   UNL     1      -2.279  11.605  23.343  0.00  0.00    +0.000 C 
ATOM     23  O   UNL     1      -1.968  13.007  23.239  0.00  0.00    +0.000 OA
ATOM     24  C   UNL     1      -1.392  13.295  21.953  0.00  0.00    +0.000 C 
ATOM     25  C   UNL     1      -0.087  12.510  21.757  0.00  0.00    +0.000 C 
ENDBRANCH  12  20
ENDBRANCH   1  16
BRANCH   2  26
ATOM     26  N   UNL     1       5.072   5.505  18.808  0.00  0.00    +0.000 N 
ATOM     27  H   UNL     1       4.661   6.400  18.552  0.00  0.00    +0.000 HD
BRANCH  26  28
ATOM     28  C   UNL     1       6.017   5.041  17.773  0.00  0.00    +0.000 C 
BRANCH  28  29
ATOM     29  C   UNL     1       6.066   6.009  16.583  0.00  0.00    +0.000 C 
BRANCH  29  30
ATOM     30  C   UNL     1       6.381   5.286  15.322  0.00  0.00    +0.000 A 
ATOM     31  C   UNL     1       5.584   4.415  14.610  0.00  0.00    +0.000 A 
ATOM     32  N   UNL     1       6.299   4.118  13.488  0.00  0.00    +0.000 N 
ATOM     33  C   UNL     1       5.858   3.296  12.390  0.00  0.00    +0.000 C 
ATOM     34  C   UNL     1       7.494   4.770  13.567  0.00  0.00    +0.000 A 
ATOM     35  N   UNL     1       7.577   5.480  14.672  0.00  0.00    +0.000 NA
ENDBRANCH  29  30
ENDBRANCH  28  29
ENDBRANCH  26  28
ENDBRANCH   2  26
TORSDOF 6
ENDMDL
MODEL 3
REMARK VINA RESULT:      -8.4      1.267      2.165
REMARK  Name = 
REMARK  8 active torsions:
REMARK  status: ('A' for Active; 'I' for Inactive)
REMARK    1  A    between atoms: C_1  and  C_2
REMARK    2  A    between atoms: C_4  and  N_5
REMARK    3  A    between atoms: C_14  and  C_15
REMARK    4  A    between atoms: C_16  and  N_17
REMARK    5  A    between atoms: N_17  and  C_18
REMARK    6  A    between atoms: C_18  and  C_19
REMARK    7  A    between atoms: C_19  and  C_20
REMARK    8  A    between atoms: N_22  and  C_23
REMARK                            x       y       z     vdW  Elec       q    Type
REMARK                         _______ _______ _______ _____ _____    ______ ____
ROOT
ATOM      1  C   UNL     1       2.998   4.897  19.828  0.00  0.00    +0.000 A 
ATOM      2  C   UNL     1       4.159   4.557  19.210  0.00  0.00    +0.000 A 
ATOM      3  C   UNL     1       4.598   3.164  19.278  0.00  0.00    +0.000 A 
ATOM      4  C   UNL     1       3.894   2.239  19.932  0.00  0.00    +0.000 A 
ATOM      5  N   UNL     1       2.705   2.569  20.518  0.00  0.00    +0.000 N 
ATOM      6  C   UNL     1       2.167   3.835  20.494  0.00  0.00    +0.000 A 
ATOM      7  O   UNL     1       1.050   4.044  20.962  0.00  0.00    +0.000 OA
ATOM      8  H   UNL     1       2.151   1.868  20.990  0.00  0.00    +0.000 HD
ENDROOT
BRANCH   1  16
ATOM      9  C   UNL     1       1.999   9.876  17.544  0.00  0.00    +0.000 C 
ATOM     10  C   UNL     1       1.539   9.490  18.918  0.00  0.00    +0.000 A 
ATOM     11  C   UNL     1       0.789  10.391  19.713  0.00  0.00    +0.000 A 
ATOM     12  C   UNL     1       0.364  10.097  21.021  0.00  0.00    +0.000 A 
ATOM     13  C   UNL     1       0.714   8.846  21.563  0.00  0.00    +0.000 A 
ATOM     14  C   UNL     1       1.449   7.954  20.776  0.00  0.00    +0.000 A 
ATOM     15  N   UNL     1       1.956   6.702  21.020  0.00  0.00    +0.000 N 
ATOM     16  C   UNL     1       2.527   6.232  19.862  0.00  0.00    +0.000 A 
ATOM     17  N   UNL     1       2.508   7.165  18.929  0.00  0.00    +0.000 NA
ATOM     18  C   UNL     1       1.847   8.238  19.479  0.00  0.00    +0.000 A 
ATOM     19  H   UNL     1       1.886   6.193  21.888  0.00  0.00    +0.000 HD
BRANCH  12  20
ATOM     20  N   UNL     1      -0.313  11.015  21.805  0.00  0.00    +0.000 N 
ATOM     21  C   UNL     1      -0.959  10.649  23.078  0.00  0.00    +0.000 C 
ATOM     22  C   UNL     1      -2.190  11.551  23.300  0.00  0.00    +0.000 C 
ATOM     23  O   UNL     1      -1.880  12.952  23.191  0.00  0.00    +0.000 OA
ATOM     24  C   UNL     1      -1.306  13.237  21.902  0.00  0.00    +0.000 C 
ATOM     25  C   UNL     1      -0.001  12.452  21.707  0.00  0.00    +0.000 C 
ENDBRANCH  12  20
ENDBRANCH   1  16
BRANCH   2  26
ATOM     26  N   UNL     1       5.026   5.406  18.510  0.00  0.00    +0.000 N 
ATOM     27  H   UNL     1       4.543   6.218  18.134  0.00  0.00    +0.000 HD
BRANCH  26  28
ATOM     28  C   UNL     1       5.993   4.866  17.534  0.00  0.00    +0.000 C 
BRANCH  28  29
ATOM     29  C   UNL     1       7.438   5.190  17.937  0.00  0.00    +0.000 C 
BRANCH  29  30
ATOM     30  C   UNL     1       7.654   6.660  18.006  0.00  0.00    +0.000 A 
ATOM     31  C   UNL     1       8.425   7.373  18.898  0.00  0.00    +0.000 A 
ATOM     32  N   UNL     1       8.367   8.664  18.464  0.00  0.00    +0.000 N 
ATOM     33  C   UNL     1       9.073   9.785  19.029  0.00  0.00    +0.000 C 
ATOM     34  C   UNL     1       7.551   8.702  17.371  0.00  0.00    +0.000 A 
ATOM     35  N   UNL     1       7.097   7.504  17.074  0.00  0.00    +0.000 NA
ENDBRANCH  29  30
ENDBRANCH  28  29
ENDBRANCH  26  28
ENDBRANCH   2  26
TORSDOF 6
ENDMDL
MODEL 4
REMARK VINA RESULT:      -8.2      2.061      2.848
REMARK  Name = 
REMARK  8 active torsions:
REMARK  status: ('A' for Active; 'I' for Inactive)
REMARK    1  A    between atoms: C_1  and  C_2
REMARK    2  A    between atoms: C_4  and  N_5
REMARK    3  A    between atoms: C_14  and  C_15
REMARK    4  A    between atoms: C_16  and  N_17
REMARK    5  A    between atoms: N_17  and  C_18
REMARK    6  A    between atoms: C_18  and  C_19
REMARK    7  A    between atoms: C_19  and  C_20
REMARK    8  A    between atoms: N_22  and  C_23
REMARK                            x       y       z     vdW  Elec       q    Type
REMARK                         _______ _______ _______ _____ _____    ______ ____
ROOT
ATOM      1  C   UNL     1       2.942   5.188  18.495  0.00  0.00    +0.000 A 
ATOM      2  C   UNL     1       4.230   4.845  18.757  0.00  0.00    +0.000 A 
ATOM      3  C   UNL     1       4.694   3.523  18.338  0.00  0.00    +0.000 A 
ATOM      4  C   UNL     1       3.886   2.661  17.720  0.00  0.00    +0.000 A 
ATOM      5  N   UNL     1       2.602   3.020  17.417  0.00  0.00    +0.000 N 
ATOM      6  C   UNL     1       2.058   4.245  17.726  0.00  0.00    +0.000 A 
ATOM      7  O   UNL     1       0.927   4.537  17.345  0.00  0.00    +0.000 OA
ATOM      8  H   UNL     1       1.992   2.384  16.922  0.00  0.00    +0.000 HD
ENDROOT
BRANCH   1  16
ATOM      9  C   UNL     1       0.621   8.572  22.258  0.00  0.00    +0.000 C 
ATOM     10  C   UNL     1       1.055   9.025  20.896  0.00  0.00    +0.000 A 
ATOM     11  C   UNL     1       0.912  10.378  20.501  0.00  0.00    +0.000 A 
ATOM     12  C   UNL     1       1.266  10.851  19.225  0.00  0.00    +0.000 A 
ATOM     13  C   UNL     1       1.780   9.924  18.298  0.00  0.00    +0.000 A 
ATOM     14  C   UNL     1       1.928   8.591  18.690  0.00  0.00    +0.000 A 
ATOM     15  N   UNL     1       2.363   7.471  18.026  0.00  0.00    +0.000 N 
ATOM     16  C   UNL     1       2.393   6.424  18.916  0.00  0.00    +0.000 A 
ATOM     17  N   UNL     1       1.894   6.795  20.080  0.00  0.00    +0.000 NA
ATOM     18  C   UNL     1       1.599   8.133  19.957  0.00  0.00    +0.000 A 
ATOM     19  H   UNL     1       2.652   7.428  17.061  0.00  0.00    +0.000 HD
BRANCH  12  20
ATOM     20  N   UNL     1       1.059  12.163  18.835  0.00  0.00    +0.000 N 
ATOM     21  C   UNL     1       2.117  12.987  18.225  0.00  0.00    +0.000 C 
ATOM     22  C   UNL     1       1.894  14.463  18.608  0.00  0.00    +0.000 C 
ATOM     23  O   UNL     1       0.561  14.920  18.311  0.00  0.00    +0.000 OA
ATOM     24  C   UNL     1      -0.409  14.100  18.987  0.00  0.00    +0.000 C 
ATOM     25  C   UNL     1      -0.299  12.641  18.523  0.00  0.00    +0.000 C 
ENDBRANCH  12  20
ENDBRANCH   1  16
BRANCH   2  26
ATOM     26  N   UNL     1       5.195   5.616  19.419  0.00  0.00    +0.000 N 
ATOM     27  H   UNL     1       5.019   6.612  19.320  0.00  0.00    +0.000 HD
BRANCH  26  28
ATOM     28  C   UNL     1       6.634   5.316  19.277  0.00  0.00    +0.000 C 
BRANCH  28  29
ATOM     29  C   UNL     1       7.284   6.190  18.196  0.00  0.00    +0.000 C 
BRANCH  29  30
ATOM     30  C   UNL     1       6.764   5.842  16.847  0.00  0.00    +0.000 A 
ATOM     31  C   UNL     1       7.132   4.796  16.028  0.00  0.00    +0.000 A 
ATOM     32  N   UNL     1       6.287   4.866  14.961  0.00  0.00    +0.000 N 
ATOM     33  C   UNL     1       6.227   3.940  13.860  0.00  0.00    +0.000 C 
ATOM     34  C   UNL     1       5.476   5.948  15.140  0.00  0.00    +0.000 A 
ATOM     35  N   UNL     1       5.747   6.566  16.270  0.00  0.00    +0.000 NA
ENDBRANCH  29  30
ENDBRANCH  28  29
ENDBRANCH  26  28
ENDBRANCH   2  26
TORSDOF 6
ENDMDL
MODEL 5
REMARK VINA RESULT:      -7.8      1.107      1.961
REMARK  Name = 
REMARK  8 active torsions:
REMARK  status: ('A' for Active; 'I' for Inactive)
REMARK    1  A    between atoms: C_1  and  C_2
REMARK    2  A    between atoms: C_4  and  N_5
REMARK    3  A    between atoms: C_14  and  C_15
REMARK    4  A    between atoms: C_16  and  N_17
REMARK    5  A    between atoms: N_17  and  C_18
REMARK    6  A    between atoms: C_18  and  C_19
REMARK    7  A    between atoms: C_19  and  C_20
REMARK    8  A    between atoms: N_22  and  C_23
REMARK                            x       y       z     vdW  Elec       q    Type
REMARK                         _______ _______ _______ _____ _____    ______ ____
ROOT
ATOM      1  C   UNL     1       2.895   4.688  19.526  0.00  0.00    +0.000 A 
ATOM      2  C   UNL     1       3.433   4.178  18.388  0.00  0.00    +0.000 A 
ATOM      3  C   UNL     1       3.893   2.791  18.400  0.00  0.00    +0.000 A 
ATOM      4  C   UNL     1       3.801   2.032  19.493  0.00  0.00    +0.000 A 
ATOM      5  N   UNL     1       3.222   2.528  20.626  0.00  0.00    +0.000 N 
ATOM      6  C   UNL     1       2.719   3.804  20.731  0.00  0.00    +0.000 A 
ATOM      7  O   UNL     1       2.129   4.158  21.749  0.00  0.00    +0.000 OA
ATOM      8  H   UNL     1       3.121   1.951  21.449  0.00  0.00    +0.000 HD
ENDROOT
BRANCH   1  16
ATOM      9  C   UNL     1       2.114   9.807  17.480  0.00  0.00    +0.000 C 
ATOM     10  C   UNL     1       1.628   9.374  18.831  0.00  0.00    +0.000 A 
ATOM     11  C   UNL     1       0.907  10.266  19.663  0.00  0.00    +0.000 A 
ATOM     12  C   UNL     1       0.461   9.927  20.953  0.00  0.00    +0.000 A 
ATOM     13  C   UNL     1       0.757   8.638  21.436  0.00  0.00    +0.000 A 
ATOM     14  C   UNL     1       1.462   7.756  20.612  0.00  0.00    +0.000 A 
ATOM     15  N   UNL     1       1.916   6.474  20.798  0.00  0.00    +0.000 N 
ATOM     16  C   UNL     1       2.477   6.038  19.622  0.00  0.00    +0.000 A 
ATOM     17  N   UNL     1       2.503   7.015  18.735  0.00  0.00    +0.000 NA
ATOM     18  C   UNL     1       1.881   8.086  19.332  0.00  0.00    +0.000 A 
ATOM     19  H   UNL     1       1.819   5.927  21.640  0.00  0.00    +0.000 HD
BRANCH  12  20
ATOM     20  N   UNL     1      -0.186  10.832  21.777  0.00  0.00    +0.000 N 
ATOM     21  C   UNL     1      -0.791  10.445  23.063  0.00  0.00    +0.000 C 
ATOM     22  C   UNL     1      -2.009  11.347  23.343  0.00  0.00    +0.000 C 
ATOM     23  O   UNL     1      -1.697  12.750  23.249  0.00  0.00    +0.000 OA
ATOM     24  C   UNL     1      -1.164  13.056  21.948  0.00  0.00    +0.000 C 
ATOM     25  C   UNL     1       0.130  12.269  21.695  0.00  0.00    +0.000 C 
ENDBRANCH  12  20
ENDBRANCH   1  16
BRANCH   2  26
ATOM     26  N   UNL     1       3.629   4.845  17.171  0.00  0.00    +0.000 N 
ATOM     27  H   UNL     1       2.748   5.071  16.716  0.00  0.00    +0.000 HD
BRANCH  26  28
ATOM     28  C   UNL     1       4.621   4.359  16.192  0.00  0.00    +0.000 C 
BRANCH  28  29
ATOM     29  C   UNL     1       5.580   5.478  15.764  0.00  0.00    +0.000 C 
BRANCH  29  30
ATOM     30  C   UNL     1       6.431   5.913  16.904  0.00  0.00    +0.000 A 
ATOM     31  C   UNL     1       6.787   5.202  18.030  0.00  0.00    +0.000 A 
ATOM     32  N   UNL     1       7.655   6.011  18.701  0.00  0.00    +0.000 N 
ATOM     33  C   UNL     1       8.362   5.684  19.912  0.00  0.00    +0.000 C 
ATOM     34  C   UNL     1       7.768   7.177  18.001  0.00  0.00    +0.000 A 
ATOM     35  N   UNL     1       7.032   7.151  16.910  0.00  0.00    +0.000 NA
ENDBRANCH  29  30
ENDBRANCH  28  29
ENDBRANCH  26  28
ENDBRANCH   2  26
TORSDOF 6
ENDMDL
MODEL 6
REMARK VINA RESULT:      -7.8      2.630      5.051
REMARK  Name = 
REMARK  8 active torsions:
REMARK  status: ('A' for Active; 'I' for Inactive)
REMARK    1  A    between atoms: C_1  and  C_2
REMARK    2  A    between atoms: C_4  and  N_5
REMARK    3  A    between atoms: C_14  and  C_15
REMARK    4  A    between atoms: C_16  and  N_17
REMARK    5  A    between atoms: N_17  and  C_18
REMARK    6  A    between atoms: C_18  and  C_19
REMARK    7  A    between atoms: C_19  and  C_20
REMARK    8  A    between atoms: N_22  and  C_23
REMARK                            x       y       z     vdW  Elec       q    Type
REMARK                         _______ _______ _______ _____ _____    ______ ____
ROOT
ATOM      1  C   UNL     1       5.134   5.909  16.916  0.00  0.00    +0.000 A 
ATOM      2  C   UNL     1       4.973   4.636  16.470  0.00  0.00    +0.000 A 
ATOM      3  C   UNL     1       6.073   4.015  15.734  0.00  0.00    +0.000 A 
ATOM      4  C   UNL     1       7.210   4.668  15.491  0.00  0.00    +0.000 A 
ATOM      5  N   UNL     1       7.392   5.933  15.975  0.00  0.00    +0.000 N 
ATOM      6  C   UNL     1       6.448   6.612  16.710  0.00  0.00    +0.000 A 
ATOM      7  O   UNL     1       6.710   7.712  17.193  0.00  0.00    +0.000 OA
ATOM      8  H   UNL     1       8.262   6.423  15.822  0.00  0.00    +0.000 HD
ENDROOT
BRANCH   1  16
ATOM      9  C   UNL     1       1.554   6.666  21.111  0.00  0.00    +0.000 C 
ATOM     10  C   UNL     1       1.755   7.660  20.007  0.00  0.00    +0.000 A 
ATOM     11  C   UNL     1       1.040   8.883  19.993  0.00  0.00    +0.000 A 
ATOM     12  C   UNL     1       1.160   9.836  18.964  0.00  0.00    +0.000 A 
ATOM     13  C   UNL     1       2.031   9.546  17.897  0.00  0.00    +0.000 A 
ATOM     14  C   UNL     1       2.741   8.342  17.915  0.00  0.00    +0.000 A 
ATOM     15  N   UNL     1       3.623   7.772  17.031  0.00  0.00    +0.000 N 
ATOM     16  C   UNL     1       4.100   6.608  17.585  0.00  0.00    +0.000 A 
ATOM     17  N   UNL     1       3.483   6.354  18.724  0.00  0.00    +0.000 NA
ATOM     18  C   UNL     1       2.637   7.416  18.941  0.00  0.00    +0.000 A 
ATOM     19  H   UNL     1       3.907   8.158  16.143  0.00  0.00    +0.000 HD
BRANCH  12  20
ATOM     20  N   UNL     1       0.406  10.995  18.935  0.00  0.00    +0.000 N 
ATOM     21  C   UNL     1      -1.066  10.984  18.872  0.00  0.00    +0.000 C 
ATOM     22  C   UNL     1      -1.552  12.230  18.106  0.00  0.00    +0.000 C 
ATOM     23  O   UNL     1      -1.005  13.454  18.631  0.00  0.00    +0.000 OA
ATOM     24  C   UNL     1       0.433  13.408  18.607  0.00  0.00    +0.000 C 
ATOM     25  C   UNL     1       0.952  12.253  19.474  0.00  0.00    +0.000 C 
ENDBRANCH  12  20
ENDBRANCH   1  16
BRANCH   2  26
ATOM     26  N   UNL     1       3.839   3.826  16.613  0.00  0.00    +0.000 N 
ATOM     27  H   UNL     1       3.063   4.328  17.037  0.00  0.00    +0.000 HD
BRANCH  26  28
ATOM     28  C   UNL     1       3.947   2.460  17.163  0.00  0.00    +0.000 C 
BRANCH  28  29
ATOM     29  C   UNL     1       2.565   1.856  17.442  0.00  0.00    +0.000 C 
BRANCH  29  30
ATOM     30  C   UNL     1       2.054   2.289  18.770  0.00  0.00    +0.000 A 
ATOM     31  C   UNL     1       2.727   2.343  19.972  0.00  0.00    +0.000 A 
ATOM     32  N   UNL     1       1.844   2.904  20.847  0.00  0.00    +0.000 N 
ATOM     33  C   UNL     1       2.105   3.238  22.223  0.00  0.00    +0.000 C 
ATOM     34  C   UNL     1       0.678   3.133  20.177  0.00  0.00    +0.000 A 
ATOM     35  N   UNL     1       0.771   2.762  18.918  0.00  0.00    +0.000 NA
ENDBRANCH  29  30
ENDBRANCH  28  29
ENDBRANCH  26  28
ENDBRANCH   2  26
TORSDOF 6
ENDMDL
MODEL 7
REMARK VINA RESULT:      -7.5      1.063      1.066
REMARK  Name = 
REMARK  8 active torsions:
REMARK  status: ('A' for Active; 'I' for Inactive)
REMARK    1  A    between atoms: C_1  and  C_2
REMARK    2  A    between atoms: C_4  and  N_5
REMARK    3  A    between atoms: C_14  and  C_15
REMARK    4  A    between atoms: C_16  and  N_17
REMARK    5  A    between atoms: N_17  and  C_18
REMARK    6  A    between atoms: C_18  and  C_19
REMARK    7  A    between atoms: C_19  and  C_20
REMARK    8  A    between atoms: N_22  and  C_23
REMARK                            x       y       z     vdW  Elec       q    Type
REMARK                         _______ _______ _______ _____ _____    ______ ____
ROOT
ATOM      1  C   UNL     1       3.111   5.161  18.696  0.00  0.00    +0.000 A 
ATOM      2  C   UNL     1       4.366   4.745  19.010  0.00  0.00    +0.000 A 
ATOM      3  C   UNL     1       4.719   3.350  18.752  0.00  0.00    +0.000 A 
ATOM      4  C   UNL     1       3.843   2.491  18.228  0.00  0.00    +0.000 A 
ATOM      5  N   UNL     1       2.595   2.917  17.871  0.00  0.00    +0.000 N 
ATOM      6  C   UNL     1       2.154   4.210  18.031  0.00  0.00    +0.000 A 
ATOM      7  O   UNL     1       1.051   4.547  17.605  0.00  0.00    +0.000 OA
ATOM      8  H   UNL     1       1.935   2.280  17.446  0.00  0.00    +0.000 HD
ENDROOT
BRANCH   1  16
ATOM      9  C   UNL     1       2.263  10.495  17.347  0.00  0.00    +0.000 C 
ATOM     10  C   UNL     1       1.764   9.875  18.617  0.00  0.00    +0.000 A 
ATOM     11  C   UNL     1       1.012  10.633  19.548  0.00  0.00    +0.000 A 
ATOM     12  C   UNL     1       0.550  10.114  20.772  0.00  0.00    +0.000 A 
ATOM     13  C   UNL     1       0.863   8.776  21.081  0.00  0.00    +0.000 A 
ATOM     14  C   UNL     1       1.600   8.027  20.159  0.00  0.00    +0.000 A 
ATOM     15  N   UNL     1       2.076   6.740  20.179  0.00  0.00    +0.000 N 
ATOM     16  C   UNL     1       2.665   6.477  18.965  0.00  0.00    +0.000 A 
ATOM     17  N   UNL     1       2.687   7.566  18.219  0.00  0.00    +0.000 NA
ATOM     18  C   UNL     1       2.033   8.535  18.944  0.00  0.00    +0.000 A 
ATOM     19  H   UNL     1       1.976   6.082  20.937  0.00  0.00    +0.000 HD
BRANCH  12  20
ATOM     20  N   UNL     1      -0.128  10.888  21.698  0.00  0.00    +0.000 N 
ATOM     21  C   UNL     1      -0.647  10.340  22.963  0.00  0.00    +0.000 C 
ATOM     22  C   UNL     1      -1.917  11.114  23.368  0.00  0.00    +0.000 C 
ATOM     23  O   UNL     1      -1.716  12.539  23.394  0.00  0.00    +0.000 OA
ATOM     24  C   UNL     1      -1.263  13.002  22.109  0.00  0.00    +0.000 C 
ATOM     25  C   UNL     1       0.074  12.347  21.739  0.00  0.00    +0.000 C 
ENDBRANCH  12  20
ENDBRANCH   1  16
BRANCH   2  26
ATOM     26  N   UNL     1       5.390   5.506  19.590  0.00  0.00    +0.000 N 
ATOM     27  H   UNL     1       5.156   6.495  19.624  0.00  0.00    +0.000 HD
BRANCH  26  28
ATOM     28  C   UNL     1       6.798   5.309  19.193  0.00  0.00    +0.000 C 
BRANCH  28  29
ATOM     29  C   UNL     1       7.223   6.313  18.114  0.00  0.00    +0.000 C 
BRANCH  29  30
ATOM     30  C   UNL     1       6.713   5.904  16.777  0.00  0.00    +0.000 A 
ATOM     31  C   UNL     1       7.079   4.815  16.016  0.00  0.00    +0.000 A 
ATOM     32  N   UNL     1       6.246   4.840  14.937  0.00  0.00    +0.000 N 
ATOM     33  C   UNL     1       6.188   3.861  13.882  0.00  0.00    +0.000 C 
ATOM     34  C   UNL     1       5.444   5.938  15.053  0.00  0.00    +0.000 A 
ATOM     35  N   UNL     1       5.710   6.608  16.154  0.00  0.00    +0.000 NA
ENDBRANCH  29  30
ENDBRANCH  28  29
ENDBRANCH  26  28
ENDBRANCH   2  26
TORSDOF 6
ENDMDL
MODEL 8
REMARK VINA RESULT:      -7.4      4.005     10.024
REMARK  Name = 
REMARK  8 active torsions:
REMARK  status: ('A' for Active; 'I' for Inactive)
REMARK    1  A    between atoms: C_1  and  C_2
REMARK    2  A    between atoms: C_4  and  N_5
REMARK    3  A    between atoms: C_14  and  C_15
REMARK    4  A    between atoms: C_16  and  N_17
REMARK    5  A    between atoms: N_17  and  C_18
REMARK    6  A    between atoms: C_18  and  C_19
REMARK    7  A    between atoms: C_19  and  C_20
REMARK    8  A    between atoms: N_22  and  C_23
REMARK                            x       y       z     vdW  Elec       q    Type
REMARK                         _______ _______ _______ _____ _____    ______ ____
ROOT
ATOM      1  C   UNL     1       0.732  11.142  18.613  0.00  0.00    +0.000 A 
ATOM      2  C   UNL     1      -0.622  11.238  18.566  0.00  0.00    +0.000 A 
ATOM      3  C   UNL     1      -1.222  12.570  18.510  0.00  0.00    +0.000 A 
ATOM      4  C   UNL     1      -0.475  13.675  18.512  0.00  0.00    +0.000 A 
ATOM      5  N   UNL     1       0.889  13.581  18.516  0.00  0.00    +0.000 N 
ATOM      6  C   UNL     1       1.572  12.388  18.533  0.00  0.00    +0.000 A 
ATOM      7  O   UNL     1       2.798  12.372  18.443  0.00  0.00    +0.000 OA
ATOM      8  H   UNL     1       1.462  14.412  18.487  0.00  0.00    +0.000 HD
ENDROOT
BRANCH   1  16
ATOM      9  C   UNL     1       1.563   6.147  20.927  0.00  0.00    +0.000 C 
ATOM     10  C   UNL     1       2.268   6.611  19.688  0.00  0.00    +0.000 A 
ATOM     11  C   UNL     1       3.187   5.768  19.016  0.00  0.00    +0.000 A 
ATOM     12  C   UNL     1       3.905   6.163  17.873  0.00  0.00    +0.000 A 
ATOM     13  C   UNL     1       3.699   7.467  17.384  0.00  0.00    +0.000 A 
ATOM     14  C   UNL     1       2.787   8.297  18.043  0.00  0.00    +0.000 A 
ATOM     15  N   UNL     1       2.395   9.596  17.834  0.00  0.00    +0.000 N 
ATOM     16  C   UNL     1       1.394   9.896  18.727  0.00  0.00    +0.000 A 
ATOM     17  N   UNL     1       1.209   8.893  19.564  0.00  0.00    +0.000 NA
ATOM     18  C   UNL     1       2.065   7.896  19.156  0.00  0.00    +0.000 A 
ATOM     19  H   UNL     1       2.750  10.215  17.121  0.00  0.00    +0.000 HD
BRANCH  12  20
ATOM     20  N   UNL     1       4.846   5.348  17.269  0.00  0.00    +0.000 N 
ATOM     21  C   UNL     1       6.140   5.029  17.896  0.00  0.00    +0.000 C 
ATOM     22  C   UNL     1       7.199   4.816  16.796  0.00  0.00    +0.000 C 
ATOM     23  O   UNL     1       6.786   3.859  15.804  0.00  0.00    +0.000 OA
ATOM     24  C   UNL     1       5.546   4.271  15.200  0.00  0.00    +0.000 C 
ATOM     25  C   UNL     1       4.435   4.361  16.256  0.00  0.00    +0.000 C 
ENDBRANCH  12  20
ENDBRANCH   1  16
BRANCH   2  26
ATOM     26  N   UNL     1      -1.547  10.185  18.587  0.00  0.00    +0.000 N 
ATOM     27  H   UNL     1      -1.139   9.328  18.951  0.00  0.00    +0.000 HD
BRANCH  26  28
ATOM     28  C   UNL     1      -2.407   9.908  17.418  0.00  0.00    +0.000 C 
BRANCH  28  29
ATOM     29  C   UNL     1      -3.805   9.445  17.849  0.00  0.00    +0.000 C 
BRANCH  29  30
ATOM     30  C   UNL     1      -4.787  10.558  17.749  0.00  0.00    +0.000 A 
ATOM     31  C   UNL     1      -5.909  10.784  18.516  0.00  0.00    +0.000 A 
ATOM     32  N   UNL     1      -6.397  11.983  18.088  0.00  0.00    +0.000 N 
ATOM     33  C   UNL     1      -7.527  12.688  18.635  0.00  0.00    +0.000 C 
ATOM     34  C   UNL     1      -5.598  12.421  17.072  0.00  0.00    +0.000 A 
ATOM     35  N   UNL     1      -4.619  11.574  16.837  0.00  0.00    +0.000 NA
ENDBRANCH  29  30
ENDBRANCH  28  29
ENDBRANCH  26  28
ENDBRANCH   2  26
TORSDOF 6
ENDMDL
MODEL 9
REMARK VINA RESULT:      -7.4      1.374      1.771
REMARK  Name = 
REMARK  8 active torsions:
REMARK  status: ('A' for Active; 'I' for Inactive)
REMARK    1  A    between atoms: C_1  and  C_2
REMARK    2  A    between atoms: C_4  and  N_5
REMARK    3  A    between atoms: C_14  and  C_15
REMARK    4  A    between atoms: C_16  and  N_17
REMARK    5  A    between atoms: N_17  and  C_18
REMARK    6  A    between atoms: C_18  and  C_19
REMARK    7  A    between atoms: C_19  and  C_20
REMARK    8  A    between atoms: N_22  and  C_23
REMARK                            x       y       z     vdW  Elec       q    Type
REMARK                         _______ _______ _______ _____ _____    ______ ____
ROOT
ATOM      1  C   UNL     1       3.094   3.921  18.849  0.00  0.00    +0.000 A 
ATOM      2  C   UNL     1       4.382   3.515  18.994  0.00  0.00    +0.000 A 
ATOM      3  C   UNL     1       4.679   2.090  18.854  0.00  0.00    +0.000 A 
ATOM      4  C   UNL     1       3.722   1.197  18.597  0.00  0.00    +0.000 A 
ATOM      5  N   UNL     1       2.433   1.608  18.408  0.00  0.00    +0.000 N 
ATOM      6  C   UNL     1       2.032   2.922  18.479  0.00  0.00    +0.000 A 
ATOM      7  O   UNL     1       0.874   3.234  18.210  0.00  0.00    +0.000 OA
ATOM      8  H   UNL     1       1.707   0.942  18.183  0.00  0.00    +0.000 HD
ENDROOT
BRANCH   1  16
ATOM      9  C   UNL     1       2.751   9.244  17.253  0.00  0.00    +0.000 C 
ATOM     10  C   UNL     1       2.072   8.703  18.475  0.00  0.00    +0.000 A 
ATOM     11  C   UNL     1       1.272   9.539  19.292  0.00  0.00    +0.000 A 
ATOM     12  C   UNL     1       0.643   9.095  20.470  0.00  0.00    +0.000 A 
ATOM     13  C   UNL     1       0.833   7.754  20.852  0.00  0.00    +0.000 A 
ATOM     14  C   UNL     1       1.617   6.928  20.043  0.00  0.00    +0.000 A 
ATOM     15  N   UNL     1       2.004   5.615  20.156  0.00  0.00    +0.000 N 
ATOM     16  C   UNL     1       2.707   5.272  19.026  0.00  0.00    +0.000 A 
ATOM     17  N   UNL     1       2.882   6.328  18.255  0.00  0.00    +0.000 NA
ATOM     18  C   UNL     1       2.216   7.362  18.871  0.00  0.00    +0.000 A 
ATOM     19  H   UNL     1       1.777   4.993  20.917  0.00  0.00    +0.000 HD
BRANCH  12  20
ATOM     20  N   UNL     1      -0.082   9.944  21.288  0.00  0.00    +0.000 N 
ATOM     21  C   UNL     1      -0.637  11.223  20.813  0.00  0.00    +0.000 C 
ATOM     22  C   UNL     1      -0.673  12.226  21.983  0.00  0.00    +0.000 C 
ATOM     23  O   UNL     1      -1.342  11.701  23.146  0.00  0.00    +0.000 OA
ATOM     24  C   UNL     1      -0.707  10.485  23.579  0.00  0.00    +0.000 C 
ATOM     25  C   UNL     1      -0.776   9.418  22.477  0.00  0.00    +0.000 C 
ENDBRANCH  12  20
ENDBRANCH   1  16
BRANCH   2  26
ATOM     26  N   UNL     1       5.494   4.313  19.293  0.00  0.00    +0.000 N 
ATOM     27  H   UNL     1       5.227   5.180  19.753  0.00  0.00    +0.000 HD
BRANCH  26  28
ATOM     28  C   UNL     1       6.549   4.551  18.288  0.00  0.00    +0.000 C 
BRANCH  28  29
ATOM     29  C   UNL     1       6.097   5.568  17.232  0.00  0.00    +0.000 C 
BRANCH  29  30
ATOM     30  C   UNL     1       6.359   5.060  15.858  0.00  0.00    +0.000 A 
ATOM     31  C   UNL     1       5.579   4.222  15.091  0.00  0.00    +0.000 A 
ATOM     32  N   UNL     1       6.213   4.153  13.885  0.00  0.00    +0.000 N 
ATOM     33  C   UNL     1       5.747   3.452  12.717  0.00  0.00    +0.000 C 
ATOM     34  C   UNL     1       7.350   4.901  13.967  0.00  0.00    +0.000 A 
ATOM     35  N   UNL     1       7.471   5.457  15.154  0.00  0.00    +0.000 NA
ENDBRANCH  29  30
ENDBRANCH  28  29
ENDBRANCH  26  28
ENDBRANCH   2  26
TORSDOF 6
ENDMDL
