MODEL 1
REMARK VINA RESULT:      -7.1      0.000      0.000
REMARK  Name = 
REMARK  6 active torsions:
REMARK  status: ('A' for Active; 'I' for Inactive)
REMARK    1  A    between atoms: C_1  and  C_2
REMARK    2  A    between atoms: C_2  and  C_3
REMARK    3  A    between atoms: C_2  and  C_4
REMARK    4  A    between atoms: C_2  and  C_12
REMARK    5  A    between atoms: C_4  and  C_5
REMARK    6  A    between atoms: C_5  and  C_6
REMARK                            x       y       z     vdW  Elec       q    Type
REMARK                         _______ _______ _______ _____ _____    ______ ____
ROOT
ATOM      1  C   UNL     1       1.670   5.009  17.884  0.00  0.00    +0.000 C 
ATOM      2  C   UNL     1       2.961   5.797  18.213  0.00  0.00    +0.000 C 
ATOM      3  C   UNL     1       2.561   7.294  18.226  0.00  0.00    +0.000 C 
ENDROOT
BRANCH   2   4
ATOM      4  C   UNL     1       4.089   5.581  17.184  0.00  0.00    +0.000 A 
ATOM      5  C   UNL     1       4.824   6.646  16.635  0.00  0.00    +0.000 A 
ATOM      6  C   UNL     1       5.794   6.433  15.650  0.00  0.00    +0.000 A 
ATOM      7  C   UNL     1       6.050   5.143  15.198  0.00  0.00    +0.000 A 
ATOM      8 CL   UNL     1       7.219   4.886  13.962  0.00  0.00    +0.000 Cl
ATOM      9  C   UNL     1       5.358   4.066  15.736  0.00  0.00    +0.000 A 
ATOM     10  C   UNL     1       4.388   4.283  16.722  0.00  0.00    +0.000 A 
ENDBRANCH   2   4
BRANCH   2  11
ATOM     11  C   UNL     1       3.440   5.413  19.651  0.00  0.00    +0.000 C 
BRANCH  11  12
ATOM     12  C   UNL     1       2.344   4.843  20.569  0.00  0.00    +0.000 C 
BRANCH  12  13
ATOM     13  C   UNL     1       2.587   3.371  20.931  0.00  0.00    +0.000 C 
ATOM     14  C   UNL     1       1.385   2.497  20.607  0.00  0.00    +0.000 C 
ATOM     15  O   UNL     1       1.764   1.775  19.445  0.00  0.00    +0.000 OA
ATOM     16  C   UNL     1       3.096   1.972  19.342  0.00  0.00    +0.000 C 
ATOM     17  N   UNL     1       3.672   1.226  18.381  0.00  0.00    +0.000 N 
ATOM     18  N   UNL     1       3.679   2.823  20.108  0.00  0.00    +0.000 NA
ATOM     19  H   UNL     1       3.044   0.946  17.640  0.00  0.00    +0.000 HD
ATOM     20  H   UNL     1       4.563   1.590  18.071  0.00  0.00    +0.000 HD
ENDBRANCH  12  13
ENDBRANCH  11  12
ENDBRANCH   2  11
TORSDOF 4
ENDMDL
MODEL 2
REMARK VINA RESULT:      -7.1      3.196      4.703
REMARK  Name = 
REMARK  6 active torsions:
REMARK  status: ('A' for Active; 'I' for Inactive)
REMARK    1  A    between atoms: C_1  and  C_2
REMARK    2  A    between atoms: C_2  and  C_3
REMARK    3  A    between atoms: C_2  and  C_4
REMARK    4  A    between atoms: C_2  and  C_12
REMARK    5  A    between atoms: C_4  and  C_5
REMARK    6  A    between atoms: C_5  and  C_6
REMARK                            x       y       z     vdW  Elec       q    Type
REMARK                         _______ _______ _______ _____ _____    ______ ____
ROOT
ATOM      1  C   UNL     1       4.059   5.636  19.523  0.00  0.00    +0.000 C 
ATOM      2  C   UNL     1       3.169   6.192  18.385  0.00  0.00    +0.000 C 
ATOM      3  C   UNL     1       4.126   6.524  17.213  0.00  0.00    +0.000 C 
ENDROOT
BRANCH   2   4
ATOM      4  C   UNL     1       2.392   7.463  18.783  0.00  0.00    +0.000 A 
ATOM      5  C   UNL     1       1.926   7.684  20.092  0.00  0.00    +0.000 A 
ATOM      6  C   UNL     1       1.162   8.810  20.414  0.00  0.00    +0.000 A 
ATOM      7  C   UNL     1       0.853   9.743  19.431  0.00  0.00    +0.000 A 
ATOM      8 CL   UNL     1      -0.116  11.109  19.822  0.00  0.00    +0.000 Cl
ATOM      9  C   UNL     1       1.317   9.567  18.134  0.00  0.00    +0.000 A 
ATOM     10  C   UNL     1       2.082   8.438  17.814  0.00  0.00    +0.000 A 
ENDBRANCH   2   4
BRANCH   2  11
ATOM     11  C   UNL     1       2.191   5.070  17.908  0.00  0.00    +0.000 C 
BRANCH  11  12
ATOM     12  C   UNL     1       1.534   4.257  19.038  0.00  0.00    +0.000 C 
BRANCH  12  13
ATOM     13  C   UNL     1       1.830   2.755  18.930  0.00  0.00    +0.000 C 
ATOM     14  C   UNL     1       2.539   2.404  17.631  0.00  0.00    +0.000 C 
ATOM     15  O   UNL     1       3.885   2.153  18.008  0.00  0.00    +0.000 OA
ATOM     16  C   UNL     1       3.848   2.051  19.354  0.00  0.00    +0.000 C 
ATOM     17  N   UNL     1       5.015   1.651  19.891  0.00  0.00    +0.000 N 
ATOM     18  N   UNL     1       2.770   2.349  19.989  0.00  0.00    +0.000 NA
ATOM     19  H   UNL     1       5.826   1.856  19.324  0.00  0.00    +0.000 HD
ATOM     20  H   UNL     1       5.108   1.886  20.870  0.00  0.00    +0.000 HD
ENDBRANCH  12  13
ENDBRANCH  11  12
ENDBRANCH   2  11
TORSDOF 4
ENDMDL
MODEL 3
REMARK VINA RESULT:      -7.0      3.175      4.625
REMARK  Name = 
REMARK  6 active torsions:
REMARK  status: ('A' for Active; 'I' for Inactive)
REMARK    1  A    between atoms: C_1  and  C_2
REMARK    2  A    between atoms: C_2  and  C_3
REMARK    3  A    between atoms: C_2  and  C_4
REMARK    4  A    between atoms: C_2  and  C_12
REMARK    5  A    between atoms: C_4  and  C_5
REMARK    6  A    between atoms: C_5  and  C_6
REMARK                            x       y       z     vdW  Elec       q    Type
REMARK                         _______ _______ _______ _____ _____    ______ ____
ROOT
ATOM      1  C   UNL     1       4.050   5.637  19.541  0.00  0.00    +0.000 C 
ATOM      2  C   UNL     1       3.189   6.163  18.366  0.00  0.00    +0.000 C 
ATOM      3  C   UNL     1       4.180   6.503  17.225  0.00  0.00    +0.000 C 
ENDROOT
BRANCH   2   4
ATOM      4  C   UNL     1       2.372   7.422  18.723  0.00  0.00    +0.000 A 
ATOM      5  C   UNL     1       2.091   8.430  17.783  0.00  0.00    +0.000 A 
ATOM      6  C   UNL     1       1.409   9.596  18.147  0.00  0.00    +0.000 A 
ATOM      7  C   UNL     1       0.991   9.774  19.461  0.00  0.00    +0.000 A 
ATOM      8 CL   UNL     1       0.184  11.223  19.913  0.00  0.00    +0.000 Cl
ATOM      9  C   UNL     1       1.233   8.787  20.408  0.00  0.00    +0.000 A 
ATOM     10  C   UNL     1       1.914   7.620  20.041  0.00  0.00    +0.000 A 
ENDBRANCH   2   4
BRANCH   2  11
ATOM     11  C   UNL     1       2.252   5.016  17.866  0.00  0.00    +0.000 C 
BRANCH  11  12
ATOM     12  C   UNL     1       1.529   4.238  18.980  0.00  0.00    +0.000 C 
BRANCH  12  13
ATOM     13  C   UNL     1       1.826   2.733  18.934  0.00  0.00    +0.000 C 
ATOM     14  C   UNL     1       2.529   2.328  17.646  0.00  0.00    +0.000 C 
ATOM     15  O   UNL     1       3.877   2.094  18.026  0.00  0.00    +0.000 OA
ATOM     16  C   UNL     1       3.847   2.050  19.376  0.00  0.00    +0.000 C 
ATOM     17  N   UNL     1       5.017   1.674  19.924  0.00  0.00    +0.000 N 
ATOM     18  N   UNL     1       2.772   2.372  20.004  0.00  0.00    +0.000 NA
ATOM     19  H   UNL     1       5.825   1.856  19.344  0.00  0.00    +0.000 HD
ATOM     20  H   UNL     1       5.115   1.950  20.891  0.00  0.00    +0.000 HD
ENDBRANCH  12  13
ENDBRANCH  11  12
ENDBRANCH   2  11
TORSDOF 4
ENDMDL
MODEL 4
REMARK VINA RESULT:      -7.0      0.118      1.138
REMARK  Name = 
REMARK  6 active torsions:
REMARK  status: ('A' for Active; 'I' for Inactive)
REMARK    1  A    between atoms: C_1  and  C_2
REMARK    2  A    between atoms: C_2  and  C_3
REMARK    3  A    between atoms: C_2  and  C_4
REMARK    4  A    between atoms: C_2  and  C_12
REMARK    5  A    between atoms: C_4  and  C_5
REMARK    6  A    between atoms: C_5  and  C_6
REMARK                            x       y       z     vdW  Elec       q    Type
REMARK                         _______ _______ _______ _____ _____    ______ ____
ROOT
ATOM      1  C   UNL     1       1.661   5.014  17.972  0.00  0.00    +0.000 C 
ATOM      2  C   UNL     1       2.998   5.745  18.246  0.00  0.00    +0.000 C 
ATOM      3  C   UNL     1       2.656   7.254  18.318  0.00  0.00    +0.000 C 
ENDROOT
BRANCH   2   4
ATOM      4  C   UNL     1       4.057   5.514  17.149  0.00  0.00    +0.000 A 
ATOM      5  C   UNL     1       4.460   4.227  16.749  0.00  0.00    +0.000 A 
ATOM      6  C   UNL     1       5.473   4.042  15.802  0.00  0.00    +0.000 A 
ATOM      7  C   UNL     1       6.100   5.144  15.233  0.00  0.00    +0.000 A 
ATOM      8 CL   UNL     1       7.370   4.914  14.095  0.00  0.00    +0.000 Cl
ATOM      9  C   UNL     1       5.709   6.429  15.589  0.00  0.00    +0.000 A 
ATOM     10  C   UNL     1       4.695   6.612  16.536  0.00  0.00    +0.000 A 
ENDBRANCH   2   4
BRANCH   2  11
ATOM     11  C   UNL     1       3.542   5.305  19.644  0.00  0.00    +0.000 C 
BRANCH  11  12
ATOM     12  C   UNL     1       2.476   4.768  20.615  0.00  0.00    +0.000 C 
BRANCH  12  13
ATOM     13  C   UNL     1       2.671   3.280  20.938  0.00  0.00    +0.000 C 
ATOM     14  C   UNL     1       1.443   2.453  20.589  0.00  0.00    +0.000 C 
ATOM     15  O   UNL     1       1.801   1.751  19.408  0.00  0.00    +0.000 OA
ATOM     16  C   UNL     1       3.140   1.908  19.312  0.00  0.00    +0.000 C 
ATOM     17  N   UNL     1       3.694   1.171  18.332  0.00  0.00    +0.000 N 
ATOM     18  N   UNL     1       3.747   2.719  20.102  0.00  0.00    +0.000 NA
ATOM     19  H   UNL     1       3.059   0.931  17.583  0.00  0.00    +0.000 HD
ATOM     20  H   UNL     1       4.597   1.515  18.034  0.00  0.00    +0.000 HD
ENDBRANCH  12  13
ENDBRANCH  11  12
ENDBRANCH   2  11
TORSDOF 4
ENDMDL
MODEL 5
REMARK VINA RESULT:      -7.0      3.212      4.473
REMARK  Name = 
REMARK  6 active torsions:
REMARK  status: ('A' for Active; 'I' for Inactive)
REMARK    1  A    between atoms: C_1  and  C_2
REMARK    2  A    between atoms: C_2  and  C_3
REMARK    3  A    between atoms: C_2  and  C_4
REMARK    4  A    between atoms: C_2  and  C_12
REMARK    5  A    between atoms: C_4  and  C_5
REMARK    6  A    between atoms: C_5  and  C_6
REMARK                            x       y       z     vdW  Elec       q    Type
REMARK                         _______ _______ _______ _____ _____    ______ ____
ROOT
ATOM      1  C   UNL     1       4.119   5.741  18.747  0.00  0.00    +0.000 C 
ATOM      2  C   UNL     1       2.608   5.917  19.038  0.00  0.00    +0.000 C 
ATOM      3  C   UNL     1       1.862   5.168  17.905  0.00  0.00    +0.000 C 
ENDROOT
BRANCH   2   4
ATOM      4  C   UNL     1       2.157   7.391  19.058  0.00  0.00    +0.000 A 
ATOM      5  C   UNL     1       1.534   7.974  20.176  0.00  0.00    +0.000 A 
ATOM      6  C   UNL     1       1.069   9.293  20.146  0.00  0.00    +0.000 A 
ATOM      7  C   UNL     1       1.223  10.057  18.995  0.00  0.00    +0.000 A 
ATOM      8 CL   UNL     1       0.620  11.667  18.949  0.00  0.00    +0.000 Cl
ATOM      9  C   UNL     1       1.855   9.519  17.881  0.00  0.00    +0.000 A 
ATOM     10  C   UNL     1       2.320   8.198  17.914  0.00  0.00    +0.000 A 
ENDBRANCH   2   4
BRANCH   2  11
ATOM     11  C   UNL     1       2.265   5.212  20.390  0.00  0.00    +0.000 C 
BRANCH  11  12
ATOM     12  C   UNL     1       1.131   4.174  20.312  0.00  0.00    +0.000 C 
BRANCH  12  13
ATOM     13  C   UNL     1       1.636   2.737  20.500  0.00  0.00    +0.000 C 
ATOM     14  C   UNL     1       1.670   1.967  19.189  0.00  0.00    +0.000 C 
ATOM     15  O   UNL     1       3.046   1.894  18.846  0.00  0.00    +0.000 OA
ATOM     16  C   UNL     1       3.696   2.272  19.968  0.00  0.00    +0.000 C 
ATOM     17  N   UNL     1       5.030   2.111  19.891  0.00  0.00    +0.000 N 
ATOM     18  N   UNL     1       3.035   2.749  20.961  0.00  0.00    +0.000 NA
ATOM     19  H   UNL     1       5.396   2.122  18.949  0.00  0.00    +0.000 HD
ATOM     20  H   UNL     1       5.542   2.677  20.555  0.00  0.00    +0.000 HD
ENDBRANCH  12  13
ENDBRANCH  11  12
ENDBRANCH   2  11
TORSDOF 4
ENDMDL
MODEL 6
REMARK VINA RESULT:      -6.9      2.995      4.498
REMARK  Name = 
REMARK  6 active torsions:
REMARK  status: ('A' for Active; 'I' for Inactive)
REMARK    1  A    between atoms: C_1  and  C_2
REMARK    2  A    between atoms: C_2  and  C_3
REMARK    3  A    between atoms: C_2  and  C_4
REMARK    4  A    between atoms: C_2  and  C_12
REMARK    5  A    between atoms: C_4  and  C_5
REMARK    6  A    between atoms: C_5  and  C_6
REMARK                            x       y       z     vdW  Elec       q    Type
REMARK                         _______ _______ _______ _____ _____    ______ ____
ROOT
ATOM      1  C   UNL     1       5.069   5.249  18.911  0.00  0.00    +0.000 C 
ATOM      2  C   UNL     1       4.016   5.752  17.893  0.00  0.00    +0.000 C 
ATOM      3  C   UNL     1       4.815   6.313  16.690  0.00  0.00    +0.000 C 
ENDROOT
BRANCH   2   4
ATOM      4  C   UNL     1       3.100   6.857  18.457  0.00  0.00    +0.000 A 
ATOM      5  C   UNL     1       2.597   6.822  19.770  0.00  0.00    +0.000 A 
ATOM      6  C   UNL     1       1.711   7.798  20.237  0.00  0.00    +0.000 A 
ATOM      7  C   UNL     1       1.314   8.833  19.399  0.00  0.00    +0.000 A 
ATOM      8 CL   UNL     1       0.196  10.012  19.964  0.00  0.00    +0.000 Cl
ATOM      9  C   UNL     1       1.810   8.909  18.104  0.00  0.00    +0.000 A 
ATOM     10  C   UNL     1       2.698   7.931  17.639  0.00  0.00    +0.000 A 
ENDBRANCH   2   4
BRANCH   2  11
ATOM     11  C   UNL     1       3.174   4.535  17.389  0.00  0.00    +0.000 C 
BRANCH  11  12
ATOM     12  C   UNL     1       1.708   4.523  17.855  0.00  0.00    +0.000 C 
BRANCH  12  13
ATOM     13  C   UNL     1       1.349   3.249  18.632  0.00  0.00    +0.000 C 
ATOM     14  C   UNL     1       2.527   2.292  18.737  0.00  0.00    +0.000 C 
ATOM     15  O   UNL     1       2.972   2.410  20.081  0.00  0.00    +0.000 OA
ATOM     16  C   UNL     1       1.979   3.076  20.710  0.00  0.00    +0.000 C 
ATOM     17  N   UNL     1       2.146   3.145  22.044  0.00  0.00    +0.000 N 
ATOM     18  N   UNL     1       1.017   3.585  20.027  0.00  0.00    +0.000 NA
ATOM     19  H   UNL     1       3.107   3.065  22.347  0.00  0.00    +0.000 HD
ATOM     20  H   UNL     1       1.622   3.894  22.475  0.00  0.00    +0.000 HD
ENDBRANCH  12  13
ENDBRANCH  11  12
ENDBRANCH   2  11
TORSDOF 4
ENDMDL
MODEL 7
REMARK VINA RESULT:      -6.9      3.210      4.866
REMARK  Name = 
REMARK  6 active torsions:
REMARK  status: ('A' for Active; 'I' for Inactive)
REMARK    1  A    between atoms: C_1  and  C_2
REMARK    2  A    between atoms: C_2  and  C_3
REMARK    3  A    between atoms: C_2  and  C_4
REMARK    4  A    between atoms: C_2  and  C_12
REMARK    5  A    between atoms: C_4  and  C_5
REMARK    6  A    between atoms: C_5  and  C_6
REMARK                            x       y       z     vdW  Elec       q    Type
REMARK                         _______ _______ _______ _____ _____    ______ ____
ROOT
ATOM      1  C   UNL     1       3.915   5.507  19.559  0.00  0.00    +0.000 C 
ATOM      2  C   UNL     1       3.128   6.149  18.390  0.00  0.00    +0.000 C 
ATOM      3  C   UNL     1       4.177   6.491  17.302  0.00  0.00    +0.000 C 
ENDROOT
BRANCH   2   4
ATOM      4  C   UNL     1       2.374   7.432  18.792  0.00  0.00    +0.000 A 
ATOM      5  C   UNL     1       1.915   7.657  20.103  0.00  0.00    +0.000 A 
ATOM      6  C   UNL     1       1.171   8.796  20.429  0.00  0.00    +0.000 A 
ATOM      7  C   UNL     1       0.875   9.736  19.449  0.00  0.00    +0.000 A 
ATOM      8 CL   UNL     1      -0.069  11.118  19.845  0.00  0.00    +0.000 Cl
ATOM      9  C   UNL     1       1.333   9.555  18.150  0.00  0.00    +0.000 A 
ATOM     10  C   UNL     1       2.079   8.414  17.826  0.00  0.00    +0.000 A 
ENDBRANCH   2   4
BRANCH   2  11
ATOM     11  C   UNL     1       2.144   5.089  17.795  0.00  0.00    +0.000 C 
BRANCH  11  12
ATOM     12  C   UNL     1       2.811   3.802  17.280  0.00  0.00    +0.000 C 
BRANCH  12  13
ATOM     13  C   UNL     1       2.241   2.539  17.941  0.00  0.00    +0.000 C 
ATOM     14  C   UNL     1       3.257   1.860  18.847  0.00  0.00    +0.000 C 
ATOM     15  O   UNL     1       2.827   2.163  20.166  0.00  0.00    +0.000 OA
ATOM     16  C   UNL     1       1.576   2.650  20.012  0.00  0.00    +0.000 C 
ATOM     17  N   UNL     1       0.933   2.846  21.178  0.00  0.00    +0.000 N 
ATOM     18  N   UNL     1       1.126   2.896  18.834  0.00  0.00    +0.000 NA
ATOM     19  H   UNL     1       1.544   2.991  21.970  0.00  0.00    +0.000 HD
ATOM     20  H   UNL     1       0.163   3.498  21.107  0.00  0.00    +0.000 HD
ENDBRANCH  12  13
ENDBRANCH  11  12
ENDBRANCH   2  11
TORSDOF 4
ENDMDL
MODEL 8
REMARK VINA RESULT:      -6.9      2.831      4.277
REMARK  Name = 
REMARK  6 active torsions:
REMARK  status: ('A' for Active; 'I' for Inactive)
REMARK    1  A    between atoms: C_1  and  C_2
REMARK    2  A    between atoms: C_2  and  C_3
REMARK    3  A    between atoms: C_2  and  C_4
REMARK    4  A    between atoms: C_2  and  C_12
REMARK    5  A    between atoms: C_4  and  C_5
REMARK    6  A    between atoms: C_5  and  C_6
REMARK                            x       y       z     vdW  Elec       q    Type
REMARK                         _______ _______ _______ _____ _____    ______ ____
ROOT
ATOM      1  C   UNL     1       6.309   5.654  18.256  0.00  0.00    +0.000 C 
ATOM      2  C   UNL     1       4.925   5.453  17.592  0.00  0.00    +0.000 C 
ATOM      3  C   UNL     1       5.110   5.809  16.095  0.00  0.00    +0.000 C 
ENDROOT
BRANCH   2   4
ATOM      4  C   UNL     1       3.823   6.347  18.196  0.00  0.00    +0.000 A 
ATOM      5  C   UNL     1       3.385   7.529  17.573  0.00  0.00    +0.000 A 
ATOM      6  C   UNL     1       2.434   8.361  18.174  0.00  0.00    +0.000 A 
ATOM      7  C   UNL     1       1.899   8.022  19.411  0.00  0.00    +0.000 A 
ATOM      8 CL   UNL     1       0.756   9.063  20.164  0.00  0.00    +0.000 Cl
ATOM      9  C   UNL     1       2.293   6.849  20.042  0.00  0.00    +0.000 A 
ATOM     10  C   UNL     1       3.244   6.017  19.438  0.00  0.00    +0.000 A 
ENDBRANCH   2   4
BRANCH   2  11
ATOM     11  C   UNL     1       4.530   3.943  17.684  0.00  0.00    +0.000 C 
BRANCH  11  12
ATOM     12  C   UNL     1       3.230   3.567  16.951  0.00  0.00    +0.000 C 
BRANCH  12  13
ATOM     13  C   UNL     1       2.476   2.422  17.641  0.00  0.00    +0.000 C 
ATOM     14  C   UNL     1       3.232   1.885  18.847  0.00  0.00    +0.000 C 
ATOM     15  O   UNL     1       2.525   2.388  19.972  0.00  0.00    +0.000 OA
ATOM     16  C   UNL     1       1.362   2.850  19.463  0.00  0.00    +0.000 C 
ATOM     17  N   UNL     1       0.479   3.225  20.407  0.00  0.00    +0.000 N 
ATOM     18  N   UNL     1       1.201   2.916  18.190  0.00  0.00    +0.000 NA
ATOM     19  H   UNL     1       0.899   3.487  21.289  0.00  0.00    +0.000 HD
ATOM     20  H   UNL     1      -0.228   3.861  20.065  0.00  0.00    +0.000 HD
ENDBRANCH  12  13
ENDBRANCH  11  12
ENDBRANCH   2  11
TORSDOF 4
ENDMDL
MODEL 9
REMARK VINA RESULT:      -6.9      1.706      2.421
REMARK  Name = 
REMARK  6 active torsions:
REMARK  status: ('A' for Active; 'I' for Inactive)
REMARK    1  A    between atoms: C_1  and  C_2
REMARK    2  A    between atoms: C_2  and  C_3
REMARK    3  A    between atoms: C_2  and  C_4
REMARK    4  A    between atoms: C_2  and  C_12
REMARK    5  A    between atoms: C_4  and  C_5
REMARK    6  A    between atoms: C_5  and  C_6
REMARK                            x       y       z     vdW  Elec       q    Type
REMARK                         _______ _______ _______ _____ _____    ______ ____
ROOT
ATOM      1  C   UNL     1       3.693   5.986  18.281  0.00  0.00    +0.000 C 
ATOM      2  C   UNL     1       4.183   4.598  17.799  0.00  0.00    +0.000 C 
ATOM      3  C   UNL     1       4.888   3.945  19.014  0.00  0.00    +0.000 C 
ENDROOT
BRANCH   2   4
ATOM      4  C   UNL     1       5.172   4.677  16.618  0.00  0.00    +0.000 A 
ATOM      5  C   UNL     1       6.472   5.194  16.756  0.00  0.00    +0.000 A 
ATOM      6  C   UNL     1       7.327   5.321  15.656  0.00  0.00    +0.000 A 
ATOM      7  C   UNL     1       6.897   4.927  14.394  0.00  0.00    +0.000 A 
ATOM      8 CL   UNL     1       7.938   5.117  13.038  0.00  0.00    +0.000 Cl
ATOM      9  C   UNL     1       5.627   4.391  14.228  0.00  0.00    +0.000 A 
ATOM     10  C   UNL     1       4.773   4.264  15.330  0.00  0.00    +0.000 A 
ENDBRANCH   2   4
BRANCH   2  11
ATOM     11  C   UNL     1       2.944   3.720  17.429  0.00  0.00    +0.000 C 
BRANCH  11  12
ATOM     12  C   UNL     1       1.589   4.278  17.900  0.00  0.00    +0.000 C 
BRANCH  12  13
ATOM     13  C   UNL     1       0.877   3.340  18.884  0.00  0.00    +0.000 C 
ATOM     14  C   UNL     1       1.570   1.989  18.989  0.00  0.00    +0.000 C 
ATOM     15  O   UNL     1       2.235   2.018  20.244  0.00  0.00    +0.000 OA
ATOM     16  C   UNL     1       1.711   3.088  20.881  0.00  0.00    +0.000 C 
ATOM     17  N   UNL     1       2.103   3.189  22.164  0.00  0.00    +0.000 N 
ATOM     18  N   UNL     1       0.939   3.896  20.247  0.00  0.00    +0.000 NA
ATOM     19  H   UNL     1       2.986   2.739  22.366  0.00  0.00    +0.000 HD
ATOM     20  H   UNL     1       2.003   4.121  22.543  0.00  0.00    +0.000 HD
ENDBRANCH  12  13
ENDBRANCH  11  12
ENDBRANCH   2  11
TORSDOF 4
ENDMDL
