MODEL 1
REMARK VINA RESULT:      -6.3      0.000      0.000
REMARK  Name = 
REMARK  9 active torsions:
REMARK  status: ('A' for Active; 'I' for Inactive)
REMARK    1  A    between atoms: C_1  and  C_2
REMARK    2  A    between atoms: C_2  and  C_4
REMARK    3  A    between atoms: C_4  and  C_5
REMARK    4  A    between atoms: C_4  and  N_6
REMARK    5  A    between atoms: N_6  and  C_7
REMARK    6  A    between atoms: C_7  and  C_8
REMARK    7  A    between atoms: C_8  and  O_9
REMARK    8  A    between atoms: C_8  and  C_10
REMARK    9  A    between atoms: C_10  and  N_11
REMARK                            x       y       z     vdW  Elec       q    Type
REMARK                         _______ _______ _______ _____ _____    ______ ____
ROOT
ATOM      1  C   UNL     1       3.619   5.780  17.743  0.00  0.00    +0.000 C 
ENDROOT
BRANCH   1   2
ATOM      2  O   UNL     1       2.935   6.333  18.871  0.00  0.00    +0.000 OA
ATOM      3  H   UNL     1       3.318   5.896  19.662  0.00  0.00    +0.000 HD
ENDBRANCH   1   2
BRANCH   1   4
ATOM      4  C   UNL     1       3.717   4.249  17.921  0.00  0.00    +0.000 C 
BRANCH   4   5
ATOM      5  N   UNL     1       4.088   3.896  19.300  0.00  0.00    +0.000 NA
ATOM      6  H   UNL     1       5.103   3.933  19.421  0.00  0.00    +0.000 HD
BRANCH   5   7
ATOM      7  C   UNL     1       3.660   2.538  19.712  0.00  0.00    +0.000 C 
ATOM      8  C   UNL     1       3.515   1.628  18.487  0.00  0.00    +0.000 C 
BRANCH   7  10
ATOM      9  C   UNL     1       2.160   3.928  21.304  0.00  0.00    +0.000 C 
ATOM     10  C   UNL     1       2.323   2.646  20.498  0.00  0.00    +0.000 C 
ATOM     11 BR   UNL     1       0.814   2.587  19.211  0.00  0.00    +0.000 Br
ENDBRANCH   7  10
ENDBRANCH   5   7
ENDBRANCH   4   5
ENDBRANCH   1   4
BRANCH   1  12
ATOM     12  C   UNL     1       5.000   6.427  17.575  0.00  0.00    +0.000 C 
BRANCH  12  13
ATOM     13  N   UNL     1       5.807   5.757  16.572  0.00  0.00    +0.000 N 
ATOM     14  C   UNL     1       5.508   5.778  15.229  0.00  0.00    +0.000 A 
ATOM     15  C   UNL     1       6.484   5.019  14.626  0.00  0.00    +0.000 A 
ATOM     16  N   UNL     1       7.362   4.530  15.553  0.00  0.00    +0.000 NA
ATOM     17  C   UNL     1       6.940   4.993  16.717  0.00  0.00    +0.000 A 
ATOM     18  N   UNL     1       7.605   4.689  17.964  0.00  0.00    +0.000 N 
ATOM     19  O   UNL     1       7.091   5.095  19.016  0.00  0.00    +0.000 OA
ATOM     20  O   UNL     1       8.636   4.004  17.903  0.00  0.00    +0.000 OA
ENDBRANCH  12  13
ENDBRANCH   1  12
TORSDOF 7
ENDMDL
MODEL 2
REMARK VINA RESULT:      -6.2      2.267      3.042
REMARK  Name = 
REMARK  9 active torsions:
REMARK  status: ('A' for Active; 'I' for Inactive)
REMARK    1  A    between atoms: C_1  and  C_2
REMARK    2  A    between atoms: C_2  and  C_4
REMARK    3  A    between atoms: C_4  and  C_5
REMARK    4  A    between atoms: C_4  and  N_6
REMARK    5  A    between atoms: N_6  and  C_7
REMARK    6  A    between atoms: C_7  and  C_8
REMARK    7  A    between atoms: C_8  and  O_9
REMARK    8  A    between atoms: C_8  and  C_10
REMARK    9  A    between atoms: C_10  and  N_11
REMARK                            x       y       z     vdW  Elec       q    Type
REMARK                         _______ _______ _______ _____ _____    ______ ____
ROOT
ATOM      1  C   UNL     1       5.183   4.101  19.230  0.00  0.00    +0.000 C 
ENDROOT
BRANCH   1   2
ATOM      2  O   UNL     1       4.916   2.758  19.641  0.00  0.00    +0.000 OA
ATOM      3  H   UNL     1       5.553   2.562  20.361  0.00  0.00    +0.000 HD
ENDBRANCH   1   2
BRANCH   1   4
ATOM      4  C   UNL     1       3.926   4.961  19.488  0.00  0.00    +0.000 C 
BRANCH   4   5
ATOM      5  N   UNL     1       2.776   4.467  18.715  0.00  0.00    +0.000 NA
ATOM      6  H   UNL     1       2.685   4.982  17.836  0.00  0.00    +0.000 HD
BRANCH   5   7
ATOM      7  C   UNL     1       1.477   4.593  19.418  0.00  0.00    +0.000 C 
ATOM      8  C   UNL     1       1.634   5.438  20.687  0.00  0.00    +0.000 C 
BRANCH   7  10
ATOM      9  C   UNL     1       1.412   2.077  18.799  0.00  0.00    +0.000 C 
ATOM     10  C   UNL     1       0.940   3.172  19.748  0.00  0.00    +0.000 C 
ATOM     11 BR   UNL     1       1.556   2.656  21.562  0.00  0.00    +0.000 Br
ENDBRANCH   7  10
ENDBRANCH   5   7
ENDBRANCH   4   5
ENDBRANCH   1   4
BRANCH   1  12
ATOM     12  C   UNL     1       5.614   4.144  17.758  0.00  0.00    +0.000 C 
BRANCH  12  13
ATOM     13  N   UNL     1       6.481   5.270  17.468  0.00  0.00    +0.000 N 
ATOM     14  C   UNL     1       6.805   6.230  18.399  0.00  0.00    +0.000 A 
ATOM     15  C   UNL     1       7.614   7.123  17.737  0.00  0.00    +0.000 A 
ATOM     16  N   UNL     1       7.792   6.745  16.434  0.00  0.00    +0.000 NA
ATOM     17  C   UNL     1       7.107   5.623  16.296  0.00  0.00    +0.000 A 
ATOM     18  N   UNL     1       7.034   4.904  15.045  0.00  0.00    +0.000 N 
ATOM     19  O   UNL     1       6.300   3.907  14.984  0.00  0.00    +0.000 OA
ATOM     20  O   UNL     1       7.688   5.355  14.093  0.00  0.00    +0.000 OA
ENDBRANCH  12  13
ENDBRANCH   1  12
TORSDOF 7
ENDMDL
MODEL 3
REMARK VINA RESULT:      -6.2      2.635      5.622
REMARK  Name = 
REMARK  9 active torsions:
REMARK  status: ('A' for Active; 'I' for Inactive)
REMARK    1  A    between atoms: C_1  and  C_2
REMARK    2  A    between atoms: C_2  and  C_4
REMARK    3  A    between atoms: C_4  and  C_5
REMARK    4  A    between atoms: C_4  and  N_6
REMARK    5  A    between atoms: N_6  and  C_7
REMARK    6  A    between atoms: C_7  and  C_8
REMARK    7  A    between atoms: C_8  and  O_9
REMARK    8  A    between atoms: C_8  and  C_10
REMARK    9  A    between atoms: C_10  and  N_11
REMARK                            x       y       z     vdW  Elec       q    Type
REMARK                         _______ _______ _______ _____ _____    ______ ____
ROOT
ATOM      1  C   UNL     1       3.368   5.605  18.892  0.00  0.00    +0.000 C 
ENDROOT
BRANCH   1   2
ATOM      2  O   UNL     1       2.451   6.646  19.240  0.00  0.00    +0.000 OA
ATOM      3  H   UNL     1       2.713   7.428  18.708  0.00  0.00    +0.000 HD
ENDBRANCH   1   2
BRANCH   1   4
ATOM      4  C   UNL     1       4.144   6.027  17.625  0.00  0.00    +0.000 C 
BRANCH   4   5
ATOM      5  N   UNL     1       5.410   5.288  17.506  0.00  0.00    +0.000 NA
ATOM      6  H   UNL     1       5.878   5.228  18.414  0.00  0.00    +0.000 HD
BRANCH   5   7
ATOM      7  C   UNL     1       6.381   5.899  16.567  0.00  0.00    +0.000 C 
ATOM      8  C   UNL     1       6.828   4.876  15.517  0.00  0.00    +0.000 C 
BRANCH   7  10
ATOM      9  C   UNL     1       7.638   7.961  17.508  0.00  0.00    +0.000 C 
ATOM     10  C   UNL     1       7.591   6.444  17.377  0.00  0.00    +0.000 C 
ATOM     11 BR   UNL     1       7.514   5.716  19.221  0.00  0.00    +0.000 Br
ENDBRANCH   7  10
ENDBRANCH   5   7
ENDBRANCH   4   5
ENDBRANCH   1   4
BRANCH   1  12
ATOM     12  C   UNL     1       2.631   4.275  18.696  0.00  0.00    +0.000 C 
BRANCH  12  13
ATOM     13  N   UNL     1       2.389   3.586  19.951  0.00  0.00    +0.000 N 
ATOM     14  C   UNL     1       1.202   3.677  20.642  0.00  0.00    +0.000 A 
ATOM     15  C   UNL     1       1.378   2.912  21.771  0.00  0.00    +0.000 A 
ATOM     16  N   UNL     1       2.631   2.364  21.797  0.00  0.00    +0.000 NA
ATOM     17  C   UNL     1       3.219   2.777  20.688  0.00  0.00    +0.000 A 
ATOM     18  N   UNL     1       4.576   2.415  20.346  0.00  0.00    +0.000 N 
ATOM     19  O   UNL     1       5.077   2.916  19.328  0.00  0.00    +0.000 OA
ATOM     20  O   UNL     1       5.170   1.649  21.118  0.00  0.00    +0.000 OA
ENDBRANCH  12  13
ENDBRANCH   1  12
TORSDOF 7
ENDMDL
MODEL 4
REMARK VINA RESULT:      -6.2      3.182      6.010
REMARK  Name = 
REMARK  9 active torsions:
REMARK  status: ('A' for Active; 'I' for Inactive)
REMARK    1  A    between atoms: C_1  and  C_2
REMARK    2  A    between atoms: C_2  and  C_4
REMARK    3  A    between atoms: C_4  and  C_5
REMARK    4  A    between atoms: C_4  and  N_6
REMARK    5  A    between atoms: N_6  and  C_7
REMARK    6  A    between atoms: C_7  and  C_8
REMARK    7  A    between atoms: C_8  and  O_9
REMARK    8  A    between atoms: C_8  and  C_10
REMARK    9  A    between atoms: C_10  and  N_11
REMARK                            x       y       z     vdW  Elec       q    Type
REMARK                         _______ _______ _______ _____ _____    ______ ____
ROOT
ATOM      1  C   UNL     1       4.852   3.866  19.076  0.00  0.00    +0.000 C 
ENDROOT
BRANCH   1   2
ATOM      2  O   UNL     1       5.198   2.672  19.783  0.00  0.00    +0.000 OA
ATOM      3  H   UNL     1       6.037   2.355  19.385  0.00  0.00    +0.000 HD
ENDBRANCH   1   2
BRANCH   1   4
ATOM      4  C   UNL     1       6.053   4.836  19.117  0.00  0.00    +0.000 C 
BRANCH   4   5
ATOM      5  N   UNL     1       7.092   4.437  18.155  0.00  0.00    +0.000 NA
ATOM      6  H   UNL     1       8.012   4.423  18.605  0.00  0.00    +0.000 HD
BRANCH   5   7
ATOM      7  C   UNL     1       7.206   5.334  16.981  0.00  0.00    +0.000 C 
ATOM      8  C   UNL     1       7.357   6.791  17.433  0.00  0.00    +0.000 C 
BRANCH   7  10
ATOM      9  C   UNL     1       5.151   6.420  15.835  0.00  0.00    +0.000 C 
ATOM     10  C   UNL     1       5.953   5.148  16.080  0.00  0.00    +0.000 C 
ATOM     11 BR   UNL     1       6.530   4.488  14.301  0.00  0.00    +0.000 Br
ENDBRANCH   7  10
ENDBRANCH   5   7
ENDBRANCH   4   5
ENDBRANCH   1   4
BRANCH   1  12
ATOM     12  C   UNL     1       3.585   4.498  19.665  0.00  0.00    +0.000 C 
BRANCH  12  13
ATOM     13  N   UNL     1       2.403   3.687  19.436  0.00  0.00    +0.000 N 
ATOM     14  C   UNL     1       1.854   3.493  18.189  0.00  0.00    +0.000 A 
ATOM     15  C   UNL     1       0.751   2.698  18.395  0.00  0.00    +0.000 A 
ATOM     16  N   UNL     1       0.604   2.406  19.723  0.00  0.00    +0.000 NA
ATOM     17  C   UNL     1       1.613   3.005  20.330  0.00  0.00    +0.000 A 
ATOM     18  N   UNL     1       1.810   2.942  21.761  0.00  0.00    +0.000 N 
ATOM     19  O   UNL     1       2.734   3.605  22.255  0.00  0.00    +0.000 OA
ATOM     20  O   UNL     1       1.011   2.254  22.413  0.00  0.00    +0.000 OA
ENDBRANCH  12  13
ENDBRANCH   1  12
TORSDOF 7
ENDMDL
MODEL 5
REMARK VINA RESULT:      -6.1      2.609      3.442
REMARK  Name = 
REMARK  9 active torsions:
REMARK  status: ('A' for Active; 'I' for Inactive)
REMARK    1  A    between atoms: C_1  and  C_2
REMARK    2  A    between atoms: C_2  and  C_4
REMARK    3  A    between atoms: C_4  and  C_5
REMARK    4  A    between atoms: C_4  and  N_6
REMARK    5  A    between atoms: N_6  and  C_7
REMARK    6  A    between atoms: C_7  and  C_8
REMARK    7  A    between atoms: C_8  and  O_9
REMARK    8  A    between atoms: C_8  and  C_10
REMARK    9  A    between atoms: C_10  and  N_11
REMARK                            x       y       z     vdW  Elec       q    Type
REMARK                         _______ _______ _______ _____ _____    ______ ____
ROOT
ATOM      1  C   UNL     1       3.725   3.200  17.782  0.00  0.00    +0.000 C 
ENDROOT
BRANCH   1   2
ATOM      2  O   UNL     1       3.962   1.821  18.078  0.00  0.00    +0.000 OA
ATOM      3  H   UNL     1       4.588   1.500  17.394  0.00  0.00    +0.000 HD
ENDBRANCH   1   2
BRANCH   1   4
ATOM      4  C   UNL     1       2.221   3.395  17.488  0.00  0.00    +0.000 C 
BRANCH   4   5
ATOM      5  N   UNL     1       1.681   4.551  18.221  0.00  0.00    +0.000 NA
ATOM      6  H   UNL     1       1.745   5.399  17.651  0.00  0.00    +0.000 HD
BRANCH   5   7
ATOM      7  C   UNL     1       2.383   4.840  19.494  0.00  0.00    +0.000 C 
ATOM      8  C   UNL     1       1.495   4.474  20.689  0.00  0.00    +0.000 C 
BRANCH   7  10
ATOM      9  C   UNL     1       2.743   7.037  18.167  0.00  0.00    +0.000 C 
ATOM     10  C   UNL     1       2.779   6.343  19.523  0.00  0.00    +0.000 C 
ATOM     11 BR   UNL     1       1.511   7.321  20.695  0.00  0.00    +0.000 Br
ENDBRANCH   7  10
ENDBRANCH   5   7
ENDBRANCH   4   5
ENDBRANCH   1   4
BRANCH   1  12
ATOM     12  C   UNL     1       4.602   3.664  16.613  0.00  0.00    +0.000 C 
BRANCH  12  13
ATOM     13  N   UNL     1       5.753   4.430  17.055  0.00  0.00    +0.000 N 
ATOM     14  C   UNL     1       5.992   4.734  18.376  0.00  0.00    +0.000 A 
ATOM     15  C   UNL     1       7.147   5.480  18.375  0.00  0.00    +0.000 A 
ATOM     16  N   UNL     1       7.617   5.648  17.101  0.00  0.00    +0.000 NA
ATOM     17  C   UNL     1       6.766   5.002  16.324  0.00  0.00    +0.000 A 
ATOM     18  N   UNL     1       6.911   4.948  14.887  0.00  0.00    +0.000 N 
ATOM     19  O   UNL     1       6.020   4.391  14.228  0.00  0.00    +0.000 OA
ATOM     20  O   UNL     1       7.907   5.499  14.397  0.00  0.00    +0.000 OA
ENDBRANCH  12  13
ENDBRANCH   1  12
TORSDOF 7
ENDMDL
MODEL 6
REMARK VINA RESULT:      -6.1      0.976      1.127
REMARK  Name = 
REMARK  9 active torsions:
REMARK  status: ('A' for Active; 'I' for Inactive)
REMARK    1  A    between atoms: C_1  and  C_2
REMARK    2  A    between atoms: C_2  and  C_4
REMARK    3  A    between atoms: C_4  and  C_5
REMARK    4  A    between atoms: C_4  and  N_6
REMARK    5  A    between atoms: N_6  and  C_7
REMARK    6  A    between atoms: C_7  and  C_8
REMARK    7  A    between atoms: C_8  and  O_9
REMARK    8  A    between atoms: C_8  and  C_10
REMARK    9  A    between atoms: C_10  and  N_11
REMARK                            x       y       z     vdW  Elec       q    Type
REMARK                         _______ _______ _______ _____ _____    ______ ____
ROOT
ATOM      1  C   UNL     1       4.104   5.861  18.358  0.00  0.00    +0.000 C 
ENDROOT
BRANCH   1   2
ATOM      2  O   UNL     1       4.373   5.820  19.762  0.00  0.00    +0.000 OA
ATOM      3  H   UNL     1       4.099   4.928  20.065  0.00  0.00    +0.000 HD
ENDBRANCH   1   2
BRANCH   1   4
ATOM      4  C   UNL     1       3.983   4.415  17.830  0.00  0.00    +0.000 C 
BRANCH   4   5
ATOM      5  N   UNL     1       4.568   3.452  18.777  0.00  0.00    +0.000 NA
ATOM      6  H   UNL     1       5.345   2.948  18.343  0.00  0.00    +0.000 HD
BRANCH   5   7
ATOM      7  C   UNL     1       3.614   2.427  19.262  0.00  0.00    +0.000 C 
ATOM      8  C   UNL     1       3.595   1.222  18.315  0.00  0.00    +0.000 C 
BRANCH   7  10
ATOM      9  C   UNL     1       1.069   2.232  18.813  0.00  0.00    +0.000 C 
ATOM     10  C   UNL     1       2.204   3.069  19.389  0.00  0.00    +0.000 C 
ATOM     11 BR   UNL     1       1.790   3.342  21.310  0.00  0.00    +0.000 Br
ENDBRANCH   7  10
ENDBRANCH   5   7
ENDBRANCH   4   5
ENDBRANCH   1   4
BRANCH   1  12
ATOM     12  C   UNL     1       5.192   6.651  17.619  0.00  0.00    +0.000 C 
BRANCH  12  13
ATOM     13  N   UNL     1       5.882   5.848  16.627  0.00  0.00    +0.000 N 
ATOM     14  C   UNL     1       5.496   5.787  15.307  0.00  0.00    +0.000 A 
ATOM     15  C   UNL     1       6.375   4.915  14.709  0.00  0.00    +0.000 A 
ATOM     16  N   UNL     1       7.279   4.437  15.618  0.00  0.00    +0.000 NA
ATOM     17  C   UNL     1       6.968   5.018  16.763  0.00  0.00    +0.000 A 
ATOM     18  N   UNL     1       7.694   4.763  17.987  0.00  0.00    +0.000 N 
ATOM     19  O   UNL     1       7.281   5.286  19.033  0.00  0.00    +0.000 OA
ATOM     20  O   UNL     1       8.670   4.003  17.919  0.00  0.00    +0.000 OA
ENDBRANCH  12  13
ENDBRANCH   1  12
TORSDOF 7
ENDMDL
MODEL 7
REMARK VINA RESULT:      -6.1      1.951      2.681
REMARK  Name = 
REMARK  9 active torsions:
REMARK  status: ('A' for Active; 'I' for Inactive)
REMARK    1  A    between atoms: C_1  and  C_2
REMARK    2  A    between atoms: C_2  and  C_4
REMARK    3  A    between atoms: C_4  and  C_5
REMARK    4  A    between atoms: C_4  and  N_6
REMARK    5  A    between atoms: N_6  and  C_7
REMARK    6  A    between atoms: C_7  and  C_8
REMARK    7  A    between atoms: C_8  and  O_9
REMARK    8  A    between atoms: C_8  and  C_10
REMARK    9  A    between atoms: C_10  and  N_11
REMARK                            x       y       z     vdW  Elec       q    Type
REMARK                         _______ _______ _______ _____ _____    ______ ____
ROOT
ATOM      1  C   UNL     1       4.769   3.546  19.102  0.00  0.00    +0.000 C 
ENDROOT
BRANCH   1   2
ATOM      2  O   UNL     1       5.233   2.420  19.853  0.00  0.00    +0.000 OA
ATOM      3  H   UNL     1       4.506   2.188  20.470  0.00  0.00    +0.000 HD
ENDBRANCH   1   2
BRANCH   1   4
ATOM      4  C   UNL     1       3.971   3.037  17.882  0.00  0.00    +0.000 C 
BRANCH   4   5
ATOM      5  N   UNL     1       2.725   2.375  18.300  0.00  0.00    +0.000 NA
ATOM      6  H   UNL     1       2.337   1.822  17.532  0.00  0.00    +0.000 HD
BRANCH   5   7
ATOM      7  C   UNL     1       1.660   3.310  18.732  0.00  0.00    +0.000 C 
ATOM      8  C   UNL     1       1.441   4.398  17.675  0.00  0.00    +0.000 C 
BRANCH   7  10
ATOM      9  C   UNL     1       1.362   5.243  20.433  0.00  0.00    +0.000 C 
ATOM     10  C   UNL     1       2.053   3.925  20.104  0.00  0.00    +0.000 C 
ATOM     11 BR   UNL     1       1.565   2.652  21.545  0.00  0.00    +0.000 Br
ENDBRANCH   7  10
ENDBRANCH   5   7
ENDBRANCH   4   5
ENDBRANCH   1   4
BRANCH   1  12
ATOM     12  C   UNL     1       5.943   4.441  18.686  0.00  0.00    +0.000 C 
BRANCH  12  13
ATOM     13  N   UNL     1       5.558   5.439  17.705  0.00  0.00    +0.000 N 
ATOM     14  C   UNL     1       4.486   6.286  17.875  0.00  0.00    +0.000 A 
ATOM     15  C   UNL     1       4.441   7.050  16.732  0.00  0.00    +0.000 A 
ATOM     16  N   UNL     1       5.441   6.695  15.869  0.00  0.00    +0.000 NA
ATOM     17  C   UNL     1       6.105   5.728  16.478  0.00  0.00    +0.000 A 
ATOM     18  N   UNL     1       7.246   5.071  15.881  0.00  0.00    +0.000 N 
ATOM     19  O   UNL     1       7.756   4.117  16.488  0.00  0.00    +0.000 OA
ATOM     20  O   UNL     1       7.622   5.483  14.775  0.00  0.00    +0.000 OA
ENDBRANCH  12  13
ENDBRANCH   1  12
TORSDOF 7
ENDMDL
MODEL 8
REMARK VINA RESULT:      -6.0      2.857      6.056
REMARK  Name = 
REMARK  9 active torsions:
REMARK  status: ('A' for Active; 'I' for Inactive)
REMARK    1  A    between atoms: C_1  and  C_2
REMARK    2  A    between atoms: C_2  and  C_4
REMARK    3  A    between atoms: C_4  and  C_5
REMARK    4  A    between atoms: C_4  and  N_6
REMARK    5  A    between atoms: N_6  and  C_7
REMARK    6  A    between atoms: C_7  and  C_8
REMARK    7  A    between atoms: C_8  and  O_9
REMARK    8  A    between atoms: C_8  and  C_10
REMARK    9  A    between atoms: C_10  and  N_11
REMARK                            x       y       z     vdW  Elec       q    Type
REMARK                         _______ _______ _______ _____ _____    ______ ____
ROOT
ATOM      1  C   UNL     1       4.614   5.081  19.521  0.00  0.00    +0.000 C 
ENDROOT
BRANCH   1   2
ATOM      2  O   UNL     1       3.911   6.038  18.724  0.00  0.00    +0.000 OA
ATOM      3  H   UNL     1       4.309   6.911  18.935  0.00  0.00    +0.000 HD
ENDBRANCH   1   2
BRANCH   1   4
ATOM      4  C   UNL     1       6.128   5.216  19.244  0.00  0.00    +0.000 C 
BRANCH   4   5
ATOM      5  N   UNL     1       6.554   4.309  18.167  0.00  0.00    +0.000 NA
ATOM      6  H   UNL     1       7.373   3.767  18.456  0.00  0.00    +0.000 HD
BRANCH   5   7
ATOM      7  C   UNL     1       6.924   4.998  16.908  0.00  0.00    +0.000 C 
ATOM      8  C   UNL     1       7.356   6.441  17.194  0.00  0.00    +0.000 C 
BRANCH   7  10
ATOM      9  C   UNL     1       5.172   6.318  15.527  0.00  0.00    +0.000 C 
ATOM     10  C   UNL     1       5.714   4.954  15.933  0.00  0.00    +0.000 C 
ATOM     11 BR   UNL     1       6.267   4.041  14.261  0.00  0.00    +0.000 Br
ENDBRANCH   7  10
ENDBRANCH   5   7
ENDBRANCH   4   5
ENDBRANCH   1   4
BRANCH   1  12
ATOM     12  C   UNL     1       4.105   3.661  19.239  0.00  0.00    +0.000 C 
BRANCH  12  13
ATOM     13  N   UNL     1       2.955   3.315  20.053  0.00  0.00    +0.000 N 
ATOM     14  C   UNL     1       2.933   3.454  21.423  0.00  0.00    +0.000 A 
ATOM     15  C   UNL     1       1.695   3.002  21.815  0.00  0.00    +0.000 A 
ATOM     16  N   UNL     1       0.964   2.586  20.737  0.00  0.00    +0.000 NA
ATOM     17  C   UNL     1       1.739   2.790  19.686  0.00  0.00    +0.000 A 
ATOM     18  N   UNL     1       1.326   2.466  18.339  0.00  0.00    +0.000 N 
ATOM     19  O   UNL     1       2.149   2.611  17.423  0.00  0.00    +0.000 OA
ATOM     20  O   UNL     1       0.178   2.025  18.189  0.00  0.00    +0.000 OA
ENDBRANCH  12  13
ENDBRANCH   1  12
TORSDOF 7
ENDMDL
MODEL 9
REMARK VINA RESULT:      -6.0      2.733      5.983
REMARK  Name = 
REMARK  9 active torsions:
REMARK  status: ('A' for Active; 'I' for Inactive)
REMARK    1  A    between atoms: C_1  and  C_2
REMARK    2  A    between atoms: C_2  and  C_4
REMARK    3  A    between atoms: C_4  and  C_5
REMARK    4  A    between atoms: C_4  and  N_6
REMARK    5  A    between atoms: N_6  and  C_7
REMARK    6  A    between atoms: C_7  and  C_8
REMARK    7  A    between atoms: C_8  and  O_9
REMARK    8  A    between atoms: C_8  and  C_10
REMARK    9  A    between atoms: C_10  and  N_11
REMARK                            x       y       z     vdW  Elec       q    Type
REMARK                         _______ _______ _______ _____ _____    ______ ____
ROOT
ATOM      1  C   UNL     1       5.013   4.137  19.211  0.00  0.00    +0.000 C 
ENDROOT
BRANCH   1   2
ATOM      2  O   UNL     1       5.286   2.837  19.742  0.00  0.00    +0.000 OA
ATOM      3  H   UNL     1       4.564   2.256  19.420  0.00  0.00    +0.000 HD
ENDBRANCH   1   2
BRANCH   1   4
ATOM      4  C   UNL     1       6.337   4.928  19.123  0.00  0.00    +0.000 C 
BRANCH   4   5
ATOM      5  N   UNL     1       7.180   4.433  18.024  0.00  0.00    +0.000 NA
ATOM      6  H   UNL     1       8.142   4.294  18.343  0.00  0.00    +0.000 HD
BRANCH   5   7
ATOM      7  C   UNL     1       7.247   5.343  16.856  0.00  0.00    +0.000 C 
ATOM      8  C   UNL     1       7.417   6.795  17.318  0.00  0.00    +0.000 C 
BRANCH   7  10
ATOM      9  C   UNL     1       5.206   6.461  15.714  0.00  0.00    +0.000 C 
ATOM     10  C   UNL     1       5.958   5.168  16.005  0.00  0.00    +0.000 C 
ATOM     11 BR   UNL     1       6.448   4.388  14.248  0.00  0.00    +0.000 Br
ENDBRANCH   7  10
ENDBRANCH   5   7
ENDBRANCH   4   5
ENDBRANCH   1   4
BRANCH   1  12
ATOM     12  C   UNL     1       3.967   4.864  20.066  0.00  0.00    +0.000 C 
BRANCH  12  13
ATOM     13  N   UNL     1       2.735   4.109  20.194  0.00  0.00    +0.000 N 
ATOM     14  C   UNL     1       2.383   3.431  21.340  0.00  0.00    +0.000 A 
ATOM     15  C   UNL     1       1.178   2.834  21.055  0.00  0.00    +0.000 A 
ATOM     16  N   UNL     1       0.785   3.116  19.775  0.00  0.00    +0.000 NA
ATOM     17  C   UNL     1       1.734   3.891  19.279  0.00  0.00    +0.000 A 
ATOM     18  N   UNL     1       1.692   4.404  17.928  0.00  0.00    +0.000 N 
ATOM     19  O   UNL     1       2.666   5.053  17.518  0.00  0.00    +0.000 OA
ATOM     20  O   UNL     1       0.694   4.129  17.248  0.00  0.00    +0.000 OA
ENDBRANCH  12  13
ENDBRANCH   1  12
TORSDOF 7
ENDMDL
