MODEL 1
REMARK VINA RESULT:      -8.4      0.000      0.000
REMARK  Name = 
REMARK  2 active torsions:
REMARK  status: ('A' for Active; 'I' for Inactive)
REMARK    1  A    between atoms: C_5  and  N_6
REMARK    2  A    between atoms: C_13  and  N_14
REMARK                            x       y       z     vdW  Elec       q    Type
REMARK                         _______ _______ _______ _____ _____    ______ ____
ROOT
ATOM      1  N   UNL     1       5.131   4.549  18.477  0.00  0.00    +0.000 N 
ATOM      2  C   UNL     1       4.590   3.466  19.106  0.00  0.00    +0.000 C 
ATOM      3  O   UNL     1       4.988   2.317  19.128  0.00  0.00    +0.000 OA
ATOM      4  C   UNL     1       3.396   3.946  19.810  0.00  0.00    +0.000 A 
ATOM      5  C   UNL     1       2.452   3.245  20.530  0.00  0.00    +0.000 A 
ATOM      6  C   UNL     1       1.365   3.972  21.020  0.00  0.00    +0.000 A 
ATOM      7  C   UNL     1       1.226   5.347  20.733  0.00  0.00    +0.000 A 
ATOM      8  C   UNL     1       2.171   6.038  19.955  0.00  0.00    +0.000 A 
ATOM      9  C   UNL     1       3.296   5.310  19.586  0.00  0.00    +0.000 A 
ATOM     10  C   UNL     1       4.530   5.694  18.902  0.00  0.00    +0.000 C 
ATOM     11  O   UNL     1       4.963   6.825  18.803  0.00  0.00    +0.000 OA
ENDROOT
BRANCH   1  16
ATOM     12  O   UNL     1       8.070   8.256  17.191  0.00  0.00    +0.000 OA
ATOM     13  C   UNL     1       7.614   7.124  17.331  0.00  0.00    +0.000 C 
ATOM     14  C   UNL     1       7.864   6.303  18.576  0.00  0.00    +0.000 C 
ATOM     15  C   UNL     1       7.640   4.818  18.346  0.00  0.00    +0.000 C 
ATOM     16  C   UNL     1       6.324   4.509  17.642  0.00  0.00    +0.000 C 
ATOM     17  C   UNL     1       6.094   5.401  16.419  0.00  0.00    +0.000 C 
ATOM     18  O   UNL     1       5.223   5.166  15.578  0.00  0.00    +0.000 OA
ATOM     19  N   UNL     1       6.827   6.564  16.355  0.00  0.00    +0.000 N 
ATOM     20  H   UNL     1       6.607   7.179  15.585  0.00  0.00    +0.000 HD
ENDBRANCH   1  16
BRANCH   8  21
ATOM     21  N   UNL     1       1.903   7.372  19.592  0.00  0.00    +0.000 N 
ATOM     22  C   UNL     1       1.289   8.363  20.379  0.00  0.00    +0.000 A 
ATOM     23  C   UNL     1       1.519   8.451  21.754  0.00  0.00    +0.000 A 
ATOM     24  C   UNL     1       0.741   9.312  22.524  0.00  0.00    +0.000 A 
ATOM     25  C   UNL     1      -0.193  10.118  21.891  0.00  0.00    +0.000 A 
ATOM     26  C   UNL     1      -0.283  10.044  20.512  0.00  0.00    +0.000 A 
ATOM     27  N   UNL     1       0.442   9.196  19.744  0.00  0.00    +0.000 NA
ATOM     28  H   UNL     1       1.515   7.467  18.658  0.00  0.00    +0.000 HD
ENDBRANCH   8  21
TORSDOF 2
ENDMDL
MODEL 2
REMARK VINA RESULT:      -7.8      2.468      4.990
REMARK  Name = 
REMARK  2 active torsions:
REMARK  status: ('A' for Active; 'I' for Inactive)
REMARK    1  A    between atoms: C_5  and  N_6
REMARK    2  A    between atoms: C_13  and  N_14
REMARK                            x       y       z     vdW  Elec       q    Type
REMARK                         _______ _______ _______ _____ _____    ______ ____
ROOT
ATOM      1  N   UNL     1       2.237   6.902  18.735  0.00  0.00    +0.000 N 
ATOM      2  C   UNL     1       2.189   6.883  20.097  0.00  0.00    +0.000 C 
ATOM      3  O   UNL     1       2.598   6.032  20.864  0.00  0.00    +0.000 OA
ATOM      4  C   UNL     1       1.551   8.138  20.511  0.00  0.00    +0.000 A 
ATOM      5  C   UNL     1       1.196   8.577  21.769  0.00  0.00    +0.000 A 
ATOM      6  C   UNL     1       0.517   9.795  21.843  0.00  0.00    +0.000 A 
ATOM      7  C   UNL     1       0.168  10.500  20.672  0.00  0.00    +0.000 A 
ATOM      8  C   UNL     1       0.492  10.015  19.392  0.00  0.00    +0.000 A 
ATOM      9  C   UNL     1       1.270   8.863  19.364  0.00  0.00    +0.000 A 
ATOM     10  C   UNL     1       1.904   8.136  18.266  0.00  0.00    +0.000 C 
ATOM     11  O   UNL     1       2.148   8.589  17.165  0.00  0.00    +0.000 OA
ENDROOT
BRANCH   1  16
ATOM     12  O   UNL     1       3.431   2.339  20.073  0.00  0.00    +0.000 OA
ATOM     13  C   UNL     1       3.215   3.334  19.385  0.00  0.00    +0.000 C 
ATOM     14  C   UNL     1       1.831   3.682  18.886  0.00  0.00    +0.000 C 
ATOM     15  C   UNL     1       1.864   4.628  17.698  0.00  0.00    +0.000 C 
ATOM     16  C   UNL     1       2.777   5.830  17.910  0.00  0.00    +0.000 C 
ATOM     17  C   UNL     1       4.147   5.430  18.465  0.00  0.00    +0.000 C 
ATOM     18  O   UNL     1       5.108   6.203  18.486  0.00  0.00    +0.000 OA
ATOM     19  N   UNL     1       4.236   4.193  19.061  0.00  0.00    +0.000 N 
ATOM     20  H   UNL     1       5.123   3.976  19.492  0.00  0.00    +0.000 HD
ENDBRANCH   1  16
BRANCH   8  21
ATOM     21  N   UNL     1      -0.004  10.696  18.265  0.00  0.00    +0.000 N 
ATOM     22  C   UNL     1      -1.335  11.076  18.014  0.00  0.00    +0.000 A 
ATOM     23  C   UNL     1      -2.176  11.513  19.041  0.00  0.00    +0.000 A 
ATOM     24  C   UNL     1      -3.533  11.685  18.787  0.00  0.00    +0.000 A 
ATOM     25  C   UNL     1      -4.004  11.490  17.498  0.00  0.00    +0.000 A 
ATOM     26  C   UNL     1      -3.085  11.160  16.517  0.00  0.00    +0.000 A 
ATOM     27  N   UNL     1      -1.765  10.961  16.743  0.00  0.00    +0.000 NA
ATOM     28  H   UNL     1       0.363  10.343  17.385  0.00  0.00    +0.000 HD
ENDBRANCH   8  21
TORSDOF 2
ENDMDL
MODEL 3
REMARK VINA RESULT:      -7.7      2.665      4.987
REMARK  Name = 
REMARK  2 active torsions:
REMARK  status: ('A' for Active; 'I' for Inactive)
REMARK    1  A    between atoms: C_5  and  N_6
REMARK    2  A    between atoms: C_13  and  N_14
REMARK                            x       y       z     vdW  Elec       q    Type
REMARK                         _______ _______ _______ _____ _____    ______ ____
ROOT
ATOM      1  N   UNL     1       2.177   6.901  18.827  0.00  0.00    +0.000 N 
ATOM      2  C   UNL     1       2.026   6.692  20.166  0.00  0.00    +0.000 C 
ATOM      3  O   UNL     1       2.269   5.692  20.815  0.00  0.00    +0.000 OA
ATOM      4  C   UNL     1       1.520   7.948  20.730  0.00  0.00    +0.000 A 
ATOM      5  C   UNL     1       1.130   8.245  22.019  0.00  0.00    +0.000 A 
ATOM      6  C   UNL     1       0.604   9.519  22.241  0.00  0.00    +0.000 A 
ATOM      7  C   UNL     1       0.432  10.426  21.173  0.00  0.00    +0.000 A 
ATOM      8  C   UNL     1       0.787  10.091  19.855  0.00  0.00    +0.000 A 
ATOM      9  C   UNL     1       1.416   8.862  19.694  0.00  0.00    +0.000 A 
ATOM     10  C   UNL     1       2.034   8.223  18.534  0.00  0.00    +0.000 C 
ATOM     11  O   UNL     1       2.414   8.793  17.529  0.00  0.00    +0.000 OA
ENDROOT
BRANCH   1  16
ATOM     12  O   UNL     1       2.937   2.118  19.590  0.00  0.00    +0.000 OA
ATOM     13  C   UNL     1       2.824   3.206  19.031  0.00  0.00    +0.000 C 
ATOM     14  C   UNL     1       1.487   3.736  18.565  0.00  0.00    +0.000 C 
ATOM     15  C   UNL     1       1.629   4.817  17.506  0.00  0.00    +0.000 C 
ATOM     16  C   UNL     1       2.640   5.895  17.879  0.00  0.00    +0.000 C 
ATOM     17  C   UNL     1       3.956   5.308  18.394  0.00  0.00    +0.000 C 
ATOM     18  O   UNL     1       4.981   5.983  18.524  0.00  0.00    +0.000 OA
ATOM     19  N   UNL     1       3.923   4.004  18.829  0.00  0.00    +0.000 N 
ATOM     20  H   UNL     1       4.778   3.656  19.240  0.00  0.00    +0.000 HD
ENDBRANCH   1  16
BRANCH   8  21
ATOM     21  N   UNL     1       0.464  10.987  18.818  0.00  0.00    +0.000 N 
ATOM     22  C   UNL     1       0.730  12.368  18.769  0.00  0.00    +0.000 A 
ATOM     23  C   UNL     1       1.911  12.903  19.291  0.00  0.00    +0.000 A 
ATOM     24  C   UNL     1       2.045  14.283  19.404  0.00  0.00    +0.000 A 
ATOM     25  C   UNL     1       1.030  15.096  18.925  0.00  0.00    +0.000 A 
ATOM     26  C   UNL     1      -0.060  14.487  18.327  0.00  0.00    +0.000 A 
ATOM     27  N   UNL     1      -0.226  13.147  18.229  0.00  0.00    +0.000 NA
ATOM     28  H   UNL     1      -0.479  10.865  18.457  0.00  0.00    +0.000 HD
ENDBRANCH   8  21
TORSDOF 2
ENDMDL
MODEL 4
REMARK VINA RESULT:      -7.7      3.113      7.553
REMARK  Name = 
REMARK  2 active torsions:
REMARK  status: ('A' for Active; 'I' for Inactive)
REMARK    1  A    between atoms: C_5  and  N_6
REMARK    2  A    between atoms: C_13  and  N_14
REMARK                            x       y       z     vdW  Elec       q    Type
REMARK                         _______ _______ _______ _____ _____    ______ ____
ROOT
ATOM      1  N   UNL     1       1.224   9.570  19.186  0.00  0.00    +0.000 N 
ATOM      2  C   UNL     1       0.883   8.705  20.183  0.00  0.00    +0.000 C 
ATOM      3  O   UNL     1       0.080   8.855  21.084  0.00  0.00    +0.000 OA
ATOM      4  C   UNL     1       1.669   7.486  19.965  0.00  0.00    +0.000 A 
ATOM      5  C   UNL     1       1.756   6.340  20.728  0.00  0.00    +0.000 A 
ATOM      6  C   UNL     1       2.666   5.369  20.306  0.00  0.00    +0.000 A 
ATOM      7  C   UNL     1       3.491   5.591  19.183  0.00  0.00    +0.000 A 
ATOM      8  C   UNL     1       3.427   6.785  18.443  0.00  0.00    +0.000 A 
ATOM      9  C   UNL     1       2.430   7.676  18.822  0.00  0.00    +0.000 A 
ATOM     10  C   UNL     1       1.969   8.935  18.240  0.00  0.00    +0.000 C 
ATOM     11  O   UNL     1       2.161   9.299  17.096  0.00  0.00    +0.000 OA
ENDROOT
BRANCH   1  16
ATOM     12  O   UNL     1      -1.787  11.993  22.203  0.00  0.00    +0.000 OA
ATOM     13  C   UNL     1      -1.030  11.735  21.270  0.00  0.00    +0.000 C 
ATOM     14  C   UNL     1       0.473  11.821  21.405  0.00  0.00    +0.000 C 
ATOM     15  C   UNL     1       1.171  11.940  20.061  0.00  0.00    +0.000 C 
ATOM     16  C   UNL     1       0.688  10.917  19.040  0.00  0.00    +0.000 C 
ATOM     17  C   UNL     1      -0.839  10.831  18.978  0.00  0.00    +0.000 C 
ATOM     18  O   UNL     1      -1.437  10.252  18.068  0.00  0.00    +0.000 OA
ATOM     19  N   UNL     1      -1.531  11.329  20.058  0.00  0.00    +0.000 N 
ATOM     20  H   UNL     1      -2.532  11.193  20.039  0.00  0.00    +0.000 HD
ENDBRANCH   1  16
BRANCH   8  21
ATOM     21  N   UNL     1       4.371   6.999  17.420  0.00  0.00    +0.000 N 
ATOM     22  C   UNL     1       5.102   6.025  16.716  0.00  0.00    +0.000 A 
ATOM     23  C   UNL     1       4.535   4.795  16.370  0.00  0.00    +0.000 A 
ATOM     24  C   UNL     1       5.347   3.788  15.857  0.00  0.00    +0.000 A 
ATOM     25  C   UNL     1       6.688   4.059  15.630  0.00  0.00    +0.000 A 
ATOM     26  C   UNL     1       7.146   5.337  15.902  0.00  0.00    +0.000 A 
ATOM     27  N   UNL     1       6.383   6.325  16.427  0.00  0.00    +0.000 NA
ATOM     28  H   UNL     1       5.021   7.754  17.621  0.00  0.00    +0.000 HD
ENDBRANCH   8  21
TORSDOF 2
ENDMDL
MODEL 5
REMARK VINA RESULT:      -7.7      2.977      7.131
REMARK  Name = 
REMARK  2 active torsions:
REMARK  status: ('A' for Active; 'I' for Inactive)
REMARK    1  A    between atoms: C_5  and  N_6
REMARK    2  A    between atoms: C_13  and  N_14
REMARK                            x       y       z     vdW  Elec       q    Type
REMARK                         _______ _______ _______ _____ _____    ______ ____
ROOT
ATOM      1  N   UNL     1       1.313   9.280  19.323  0.00  0.00    +0.000 N 
ATOM      2  C   UNL     1       0.839   8.497  20.335  0.00  0.00    +0.000 C 
ATOM      3  O   UNL     1       0.028   8.772  21.198  0.00  0.00    +0.000 OA
ATOM      4  C   UNL     1       1.486   7.189  20.188  0.00  0.00    +0.000 A 
ATOM      5  C   UNL     1       1.412   6.070  20.991  0.00  0.00    +0.000 A 
ATOM      6  C   UNL     1       2.218   4.986  20.638  0.00  0.00    +0.000 A 
ATOM      7  C   UNL     1       3.102   5.069  19.541  0.00  0.00    +0.000 A 
ATOM      8  C   UNL     1       3.203   6.235  18.760  0.00  0.00    +0.000 A 
ATOM      9  C   UNL     1       2.303   7.247  19.070  0.00  0.00    +0.000 A 
ATOM     10  C   UNL     1       2.011   8.528  18.429  0.00  0.00    +0.000 C 
ATOM     11  O   UNL     1       2.284   8.825  17.282  0.00  0.00    +0.000 OA
ENDROOT
BRANCH   1  16
ATOM     12  O   UNL     1      -1.911  11.988  21.836  0.00  0.00    +0.000 OA
ATOM     13  C   UNL     1      -1.038  11.656  21.038  0.00  0.00    +0.000 C 
ATOM     14  C   UNL     1       0.423  11.595  21.423  0.00  0.00    +0.000 C 
ATOM     15  C   UNL     1       1.344  11.644  20.215  0.00  0.00    +0.000 C 
ATOM     16  C   UNL     1       0.942  10.673  19.111  0.00  0.00    +0.000 C 
ATOM     17  C   UNL     1      -0.555  10.737  18.795  0.00  0.00    +0.000 C 
ATOM     18  O   UNL     1      -1.045  10.219  17.789  0.00  0.00    +0.000 OA
ATOM     19  N   UNL     1      -1.366  11.301  19.753  0.00  0.00    +0.000 N 
ATOM     20  H   UNL     1      -2.358  11.264  19.565  0.00  0.00    +0.000 HD
ENDBRANCH   1  16
BRANCH   8  21
ATOM     21  N   UNL     1       4.200   6.300  17.769  0.00  0.00    +0.000 N 
ATOM     22  C   UNL     1       5.593   6.355  17.960  0.00  0.00    +0.000 A 
ATOM     23  C   UNL     1       6.217   5.644  18.988  0.00  0.00    +0.000 A 
ATOM     24  C   UNL     1       7.560   5.884  19.267  0.00  0.00    +0.000 A 
ATOM     25  C   UNL     1       8.264   6.769  18.466  0.00  0.00    +0.000 A 
ATOM     26  C   UNL     1       7.595   7.351  17.402  0.00  0.00    +0.000 A 
ATOM     27  N   UNL     1       6.284   7.156  17.126  0.00  0.00    +0.000 NA
ATOM     28  H   UNL     1       3.988   6.959  17.024  0.00  0.00    +0.000 HD
ENDBRANCH   8  21
TORSDOF 2
ENDMDL
MODEL 6
REMARK VINA RESULT:      -7.6      2.066      3.405
REMARK  Name = 
REMARK  2 active torsions:
REMARK  status: ('A' for Active; 'I' for Inactive)
REMARK    1  A    between atoms: C_5  and  N_6
REMARK    2  A    between atoms: C_13  and  N_14
REMARK                            x       y       z     vdW  Elec       q    Type
REMARK                         _______ _______ _______ _____ _____    ______ ____
ROOT
ATOM      1  N   UNL     1       3.855   5.863  18.687  0.00  0.00    +0.000 N 
ATOM      2  C   UNL     1       4.020   6.764  17.677  0.00  0.00    +0.000 C 
ATOM      3  O   UNL     1       4.793   6.726  16.738  0.00  0.00    +0.000 OA
ATOM      4  C   UNL     1       3.042   7.833  17.906  0.00  0.00    +0.000 A 
ATOM      5  C   UNL     1       2.845   9.014  17.221  0.00  0.00    +0.000 A 
ATOM      6  C   UNL     1       1.881   9.885  17.731  0.00  0.00    +0.000 A 
ATOM      7  C   UNL     1       1.190   9.581  18.924  0.00  0.00    +0.000 A 
ATOM      8  C   UNL     1       1.438   8.396  19.639  0.00  0.00    +0.000 A 
ATOM      9  C   UNL     1       2.316   7.502  19.038  0.00  0.00    +0.000 A 
ATOM     10  C   UNL     1       2.724   6.144  19.392  0.00  0.00    +0.000 C 
ATOM     11  O   UNL     1       2.115   5.389  20.125  0.00  0.00    +0.000 OA
ENDROOT
BRANCH   1  16
ATOM     12  O   UNL     1       7.910   4.521  16.281  0.00  0.00    +0.000 OA
ATOM     13  C   UNL     1       6.984   4.536  17.088  0.00  0.00    +0.000 C 
ATOM     14  C   UNL     1       7.045   5.337  18.369  0.00  0.00    +0.000 C 
ATOM     15  C   UNL     1       6.052   4.846  19.409  0.00  0.00    +0.000 C 
ATOM     16  C   UNL     1       4.646   4.651  18.854  0.00  0.00    +0.000 C 
ATOM     17  C   UNL     1       4.643   3.880  17.531  0.00  0.00    +0.000 C 
ATOM     18  O   UNL     1       3.615   3.411  17.037  0.00  0.00    +0.000 OA
ATOM     19  N   UNL     1       5.831   3.833  16.840  0.00  0.00    +0.000 N 
ATOM     20  H   UNL     1       5.794   3.390  15.933  0.00  0.00    +0.000 HD
ENDBRANCH   1  16
BRANCH   8  21
ATOM     21  N   UNL     1       0.816   8.219  20.890  0.00  0.00    +0.000 N 
ATOM     22  C   UNL     1       0.052   9.159  21.604  0.00  0.00    +0.000 A 
ATOM     23  C   UNL     1      -0.801  10.054  20.952  0.00  0.00    +0.000 A 
ATOM     24  C   UNL     1      -1.381  11.094  21.673  0.00  0.00    +0.000 A 
ATOM     25  C   UNL     1      -1.156  11.170  23.039  0.00  0.00    +0.000 A 
ATOM     26  C   UNL     1      -0.383  10.182  23.624  0.00  0.00    +0.000 A 
ATOM     27  N   UNL     1       0.214   9.176  22.941  0.00  0.00    +0.000 NA
ATOM     28  H   UNL     1       1.407   7.753  21.573  0.00  0.00    +0.000 HD
ENDBRANCH   8  21
TORSDOF 2
ENDMDL
MODEL 7
REMARK VINA RESULT:      -7.5      8.154     12.169
REMARK  Name = 
REMARK  2 active torsions:
REMARK  status: ('A' for Active; 'I' for Inactive)
REMARK    1  A    between atoms: C_5  and  N_6
REMARK    2  A    between atoms: C_13  and  N_14
REMARK                            x       y       z     vdW  Elec       q    Type
REMARK                         _______ _______ _______ _____ _____    ______ ____
ROOT
ATOM      1  N   UNL     1      -5.832  12.635  21.987  0.00  0.00    +0.000 N 
ATOM      2  C   UNL     1      -6.698  11.959  21.179  0.00  0.00    +0.000 C 
ATOM      3  O   UNL     1      -7.824  11.570  21.421  0.00  0.00    +0.000 OA
ATOM      4  C   UNL     1      -6.020  11.791  19.888  0.00  0.00    +0.000 A 
ATOM      5  C   UNL     1      -6.425  11.114  18.757  0.00  0.00    +0.000 A 
ATOM      6  C   UNL     1      -5.517  11.055  17.698  0.00  0.00    +0.000 A 
ATOM      7  C   UNL     1      -4.228  11.616  17.819  0.00  0.00    +0.000 A 
ATOM      8  C   UNL     1      -3.810  12.260  18.998  0.00  0.00    +0.000 A 
ATOM      9  C   UNL     1      -4.780  12.402  19.983  0.00  0.00    +0.000 A 
ATOM     10  C   UNL     1      -4.777  13.104  21.265  0.00  0.00    +0.000 C 
ATOM     11  O   UNL     1      -4.012  13.993  21.584  0.00  0.00    +0.000 OA
ENDROOT
BRANCH   1  16
ATOM     12  O   UNL     1      -4.113  16.455  24.535  0.00  0.00    +0.000 OA
ATOM     13  C   UNL     1      -4.753  15.453  24.224  0.00  0.00    +0.000 C 
ATOM     14  C   UNL     1      -6.043  15.533  23.440  0.00  0.00    +0.000 C 
ATOM     15  C   UNL     1      -6.890  14.280  23.586  0.00  0.00    +0.000 C 
ATOM     16  C   UNL     1      -6.102  12.993  23.373  0.00  0.00    +0.000 C 
ATOM     17  C   UNL     1      -4.781  12.983  24.147  0.00  0.00    +0.000 C 
ATOM     18  O   UNL     1      -4.110  11.960  24.305  0.00  0.00    +0.000 OA
ATOM     19  N   UNL     1      -4.299  14.202  24.562  0.00  0.00    +0.000 N 
ATOM     20  H   UNL     1      -3.388  14.188  25.000  0.00  0.00    +0.000 HD
ENDBRANCH   1  16
BRANCH   8  21
ATOM     21  N   UNL     1      -2.469  12.676  19.101  0.00  0.00    +0.000 N 
ATOM     22  C   UNL     1      -1.387  11.948  19.628  0.00  0.00    +0.000 A 
ATOM     23  C   UNL     1      -1.275  10.568  19.439  0.00  0.00    +0.000 A 
ATOM     24  C   UNL     1      -0.305   9.859  20.142  0.00  0.00    +0.000 A 
ATOM     25  C   UNL     1       0.575  10.554  20.956  0.00  0.00    +0.000 A 
ATOM     26  C   UNL     1       0.461  11.932  21.005  0.00  0.00    +0.000 A 
ATOM     27  N   UNL     1      -0.490  12.643  20.353  0.00  0.00    +0.000 NA
ATOM     28  H   UNL     1      -2.367  13.628  19.443  0.00  0.00    +0.000 HD
ENDBRANCH   8  21
TORSDOF 2
ENDMDL
MODEL 8
REMARK VINA RESULT:      -7.4      3.974      7.653
REMARK  Name = 
REMARK  2 active torsions:
REMARK  status: ('A' for Active; 'I' for Inactive)
REMARK    1  A    between atoms: C_5  and  N_6
REMARK    2  A    between atoms: C_13  and  N_14
REMARK                            x       y       z     vdW  Elec       q    Type
REMARK                         _______ _______ _______ _____ _____    ______ ____
ROOT
ATOM      1  N   UNL     1       1.260  11.153  19.019  0.00  0.00    +0.000 N 
ATOM      2  C   UNL     1       0.600  10.895  20.184  0.00  0.00    +0.000 C 
ATOM      3  O   UNL     1      -0.056  11.651  20.875  0.00  0.00    +0.000 OA
ATOM      4  C   UNL     1       0.798   9.469  20.469  0.00  0.00    +0.000 A 
ATOM      5  C   UNL     1       0.404   8.722  21.559  0.00  0.00    +0.000 A 
ATOM      6  C   UNL     1       0.816   7.388  21.591  0.00  0.00    +0.000 A 
ATOM      7  C   UNL     1       1.645   6.863  20.577  0.00  0.00    +0.000 A 
ATOM      8  C   UNL     1       2.080   7.651  19.496  0.00  0.00    +0.000 A 
ATOM      9  C   UNL     1       1.554   8.936  19.437  0.00  0.00    +0.000 A 
ATOM     10  C   UNL     1       1.657   9.991  18.431  0.00  0.00    +0.000 C 
ATOM     11  O   UNL     1       1.971   9.832  17.267  0.00  0.00    +0.000 OA
ENDROOT
BRANCH   1  16
ATOM     12  O   UNL     1       0.521  15.561  21.034  0.00  0.00    +0.000 OA
ATOM     13  C   UNL     1       0.811  14.682  20.226  0.00  0.00    +0.000 C 
ATOM     14  C   UNL     1       2.180  14.041  20.190  0.00  0.00    +0.000 C 
ATOM     15  C   UNL     1       2.469  13.366  18.860  0.00  0.00    +0.000 C 
ATOM     16  C   UNL     1       1.338  12.463  18.385  0.00  0.00    +0.000 C 
ATOM     17  C   UNL     1      -0.031  13.138  18.489  0.00  0.00    +0.000 C 
ATOM     18  O   UNL     1      -1.041  12.685  17.945  0.00  0.00    +0.000 OA
ATOM     19  N   UNL     1      -0.122  14.225  19.328  0.00  0.00    +0.000 N 
ATOM     20  H   UNL     1      -1.048  14.610  19.449  0.00  0.00    +0.000 HD
ENDBRANCH   1  16
BRANCH   8  21
ATOM     21  N   UNL     1       3.014   7.106  18.594  0.00  0.00    +0.000 N 
ATOM     22  C   UNL     1       3.078   5.780  18.130  0.00  0.00    +0.000 A 
ATOM     23  C   UNL     1       1.921   5.039  17.872  0.00  0.00    +0.000 A 
ATOM     24  C   UNL     1       2.026   3.677  17.610  0.00  0.00    +0.000 A 
ATOM     25  C   UNL     1       3.286   3.103  17.537  0.00  0.00    +0.000 A 
ATOM     26  C   UNL     1       4.384   3.930  17.701  0.00  0.00    +0.000 A 
ATOM     27  N   UNL     1       4.309   5.252  17.984  0.00  0.00    +0.000 NA
ATOM     28  H   UNL     1       3.971   7.390  18.783  0.00  0.00    +0.000 HD
ENDBRANCH   8  21
TORSDOF 2
ENDMDL
MODEL 9
REMARK VINA RESULT:      -7.4      1.235      1.281
REMARK  Name = 
REMARK  2 active torsions:
REMARK  status: ('A' for Active; 'I' for Inactive)
REMARK    1  A    between atoms: C_5  and  N_6
REMARK    2  A    between atoms: C_13  and  N_14
REMARK                            x       y       z     vdW  Elec       q    Type
REMARK                         _______ _______ _______ _____ _____    ______ ____
ROOT
ATOM      1  N   UNL     1       4.766   4.648  17.747  0.00  0.00    +0.000 N 
ATOM      2  C   UNL     1       3.897   3.605  17.620  0.00  0.00    +0.000 C 
ATOM      3  O   UNL     1       3.948   2.655  16.862  0.00  0.00    +0.000 OA
ATOM      4  C   UNL     1       2.845   3.814  18.622  0.00  0.00    +0.000 A 
ATOM      5  C   UNL     1       1.694   3.093  18.859  0.00  0.00    +0.000 A 
ATOM      6  C   UNL     1       0.829   3.589  19.837  0.00  0.00    +0.000 A 
ATOM      7  C   UNL     1       1.108   4.804  20.500  0.00  0.00    +0.000 A 
ATOM      8  C   UNL     1       2.262   5.554  20.211  0.00  0.00    +0.000 A 
ATOM      9  C   UNL     1       3.154   4.970  19.320  0.00  0.00    +0.000 A 
ATOM     10  C   UNL     1       4.489   5.362  18.873  0.00  0.00    +0.000 C 
ATOM     11  O   UNL     1       5.233   6.131  19.451  0.00  0.00    +0.000 OA
ENDROOT
BRANCH   1  16
ATOM     12  O   UNL     1       8.381   7.908  18.333  0.00  0.00    +0.000 OA
ATOM     13  C   UNL     1       7.717   6.968  17.905  0.00  0.00    +0.000 C 
ATOM     14  C   UNL     1       7.776   5.591  18.526  0.00  0.00    +0.000 C 
ATOM     15  C   UNL     1       7.283   4.507  17.583  0.00  0.00    +0.000 C 
ATOM     16  C   UNL     1       5.951   4.843  16.923  0.00  0.00    +0.000 C 
ATOM     17  C   UNL     1       5.924   6.264  16.355  0.00  0.00    +0.000 C 
ATOM     18  O   UNL     1       5.046   6.656  15.582  0.00  0.00    +0.000 OA
ATOM     19  N   UNL     1       6.864   7.143  16.842  0.00  0.00    +0.000 N 
ATOM     20  H   UNL     1       6.783   8.096  16.519  0.00  0.00    +0.000 HD
ENDBRANCH   1  16
BRANCH   8  21
ATOM     21  N   UNL     1       2.411   6.821  20.808  0.00  0.00    +0.000 N 
ATOM     22  C   UNL     1       1.425   7.812  20.966  0.00  0.00    +0.000 A 
ATOM     23  C   UNL     1       0.098   7.483  21.253  0.00  0.00    +0.000 A 
ATOM     24  C   UNL     1      -0.879   8.473  21.200  0.00  0.00    +0.000 A 
ATOM     25  C   UNL     1      -0.496   9.779  20.938  0.00  0.00    +0.000 A 
ATOM     26  C   UNL     1       0.854  10.036  20.769  0.00  0.00    +0.000 A 
ATOM     27  N   UNL     1       1.820   9.087  20.788  0.00  0.00    +0.000 NA
ATOM     28  H   UNL     1       3.259   7.304  20.525  0.00  0.00    +0.000 HD
ENDBRANCH   8  21
TORSDOF 2
ENDMDL
