MODEL 1
REMARK VINA RESULT:      -7.4      0.000      0.000
REMARK  Name = 
REMARK  16 active torsions:
REMARK  status: ('A' for Active; 'I' for Inactive)
REMARK    1  A    between atoms: C_1  and  C_2
REMARK    2  A    between atoms: C_2  and  C_3
REMARK    3  A    between atoms: C_4  and  C_5
REMARK    4  A    between atoms: C_5  and  C_6
REMARK    5  A    between atoms: C_7  and  C_8
REMARK    6  A    between atoms: C_8  and  C_9
REMARK    7  A    between atoms: C_10  and  C_11
REMARK    8  A    between atoms: C_11  and  C_12
REMARK    9  A    between atoms: C_12  and  C_13
REMARK   10  A    between atoms: C_13  and  C_14
REMARK   11  A    between atoms: C_14  and  C_15
REMARK   12  A    between atoms: C_15  and  C_16
REMARK   13  A    between atoms: C_16  and  C_17
REMARK   14  A    between atoms: C_17  and  C_18
REMARK   15  A    between atoms: C_19  and  C_20
REMARK   16  A    between atoms: C_21  and  O_22
REMARK                            x       y       z     vdW  Elec       q    Type
REMARK                         _______ _______ _______ _____ _____    ______ ____
ROOT
ATOM      1  C   UNL     1       6.459   7.049  17.494  0.00  0.00    +0.000 C 
ENDROOT
BRANCH   1   2
ATOM      2  C   UNL     1       5.789   5.766  17.073  0.00  0.00    +0.000 A 
ATOM      3  C   UNL     1       6.193   5.023  15.931  0.00  0.00    +0.000 A 
ATOM      4  C   UNL     1       7.351   5.467  15.070  0.00  0.00    +0.000 C 
ATOM      5  C   UNL     1       5.491   3.853  15.596  0.00  0.00    +0.000 A 
ATOM      6  C   UNL     1       4.390   3.404  16.330  0.00  0.00    +0.000 A 
ATOM      7  C   UNL     1       3.955   4.146  17.444  0.00  0.00    +0.000 A 
ATOM      8  C   UNL     1       4.658   5.297  17.780  0.00  0.00    +0.000 A 
ATOM      9  N   UNL     1       4.019   5.839  18.876  0.00  0.00    +0.000 N 
ATOM     10  C   UNL     1       2.951   5.072  19.267  0.00  0.00    +0.000 A 
ATOM     11  C   UNL     1       2.051   5.255  20.322  0.00  0.00    +0.000 A 
ATOM     12  C   UNL     1       1.047   4.297  20.484  0.00  0.00    +0.000 A 
ATOM     13  C   UNL     1       0.951   3.209  19.622  0.00  0.00    +0.000 A 
ATOM     14  C   UNL     1       1.859   3.046  18.568  0.00  0.00    +0.000 A 
ATOM     15  C   UNL     1       2.885   3.996  18.384  0.00  0.00    +0.000 A 
ATOM     16  H   UNL     1       4.297   6.694  19.333  0.00  0.00    +0.000 HD
BRANCH   5  17
ATOM     17  O   UNL     1       5.826   3.070  14.520  0.00  0.00    +0.000 OA
ATOM     18  H   UNL     1       6.645   3.395  14.122  0.00  0.00    +0.000 HD
ENDBRANCH   5  17
ENDBRANCH   1   2
BRANCH   1  19
ATOM     19  C   UNL     1       7.777   6.740  18.193  0.00  0.00    +0.000 C 
BRANCH  19  20
ATOM     20  C   UNL     1       8.421   8.022  18.693  0.00  0.00    +0.000 C 
BRANCH  20  21
ATOM     21  C   UNL     1       8.079   9.175  17.770  0.00  0.00    +0.000 C 
BRANCH  21  22
ATOM     22  C   UNL     1       8.537  10.498  18.369  0.00  0.00    +0.000 C 
BRANCH  22  23
ATOM     23  C   UNL     1       9.657  10.276  19.379  0.00  0.00    +0.000 C 
BRANCH  23  24
ATOM     24  C   UNL     1      10.377  11.585  19.659  0.00  0.00    +0.000 C 
BRANCH  24  26
ATOM     25  C   UNL     1      11.834  12.433  17.834  0.00  0.00    +0.000 C 
ATOM     26  C   UNL     1      11.685  11.691  18.936  0.00  0.00    +0.000 C 
BRANCH  25  27
ATOM     27  C   UNL     1      10.707  13.192  17.200  0.00  0.00    +0.000 C 
BRANCH  27  29
ATOM     28  C   UNL     1       9.650  15.223  18.165  0.00  0.00    +0.000 C 
ATOM     29  C   UNL     1      10.687  14.655  17.545  0.00  0.00    +0.000 C 
BRANCH  28  30
ATOM     30  C   UNL     1       8.435  14.454  18.605  0.00  0.00    +0.000 C 
BRANCH  30  32
ATOM     31  C   UNL     1       6.055  14.692  17.895  0.00  0.00    +0.000 C 
ATOM     32  C   UNL     1       7.330  14.417  17.587  0.00  0.00    +0.000 C 
BRANCH  31  34
ATOM     33  C   UNL     1       4.135  15.514  19.301  0.00  0.00    +0.000 C 
ATOM     34  C   UNL     1       5.589  15.079  19.274  0.00  0.00    +0.000 C 
ENDBRANCH  31  34
ENDBRANCH  30  32
ENDBRANCH  28  30
ENDBRANCH  27  29
ENDBRANCH  25  27
ENDBRANCH  24  26
ENDBRANCH  23  24
ENDBRANCH  22  23
ENDBRANCH  21  22
ENDBRANCH  20  21
ENDBRANCH  19  20
ENDBRANCH   1  19
TORSDOF 14
ENDMDL
MODEL 2
REMARK VINA RESULT:      -7.3      6.042     10.899
REMARK  Name = 
REMARK  16 active torsions:
REMARK  status: ('A' for Active; 'I' for Inactive)
REMARK    1  A    between atoms: C_1  and  C_2
REMARK    2  A    between atoms: C_2  and  C_3
REMARK    3  A    between atoms: C_4  and  C_5
REMARK    4  A    between atoms: C_5  and  C_6
REMARK    5  A    between atoms: C_7  and  C_8
REMARK    6  A    between atoms: C_8  and  C_9
REMARK    7  A    between atoms: C_10  and  C_11
REMARK    8  A    between atoms: C_11  and  C_12
REMARK    9  A    between atoms: C_12  and  C_13
REMARK   10  A    between atoms: C_13  and  C_14
REMARK   11  A    between atoms: C_14  and  C_15
REMARK   12  A    between atoms: C_15  and  C_16
REMARK   13  A    between atoms: C_16  and  C_17
REMARK   14  A    between atoms: C_17  and  C_18
REMARK   15  A    between atoms: C_19  and  C_20
REMARK   16  A    between atoms: C_21  and  O_22
REMARK                            x       y       z     vdW  Elec       q    Type
REMARK                         _______ _______ _______ _____ _____    ______ ____
ROOT
ATOM      1  C   UNL     1       0.037  10.117  19.355  0.00  0.00    +0.000 C 
ENDROOT
BRANCH   1   2
ATOM      2  C   UNL     1      -1.281  10.846  19.332  0.00  0.00    +0.000 A 
ATOM      3  C   UNL     1      -2.206  10.735  18.259  0.00  0.00    +0.000 A 
ATOM      4  C   UNL     1      -1.932   9.846  17.069  0.00  0.00    +0.000 C 
ATOM      5  C   UNL     1      -3.399  11.476  18.307  0.00  0.00    +0.000 A 
ATOM      6  C   UNL     1      -3.700  12.343  19.362  0.00  0.00    +0.000 A 
ATOM      7  C   UNL     1      -2.780  12.491  20.415  0.00  0.00    +0.000 A 
ATOM      8  C   UNL     1      -1.606  11.748  20.371  0.00  0.00    +0.000 A 
ATOM      9  N   UNL     1      -0.881  12.095  21.493  0.00  0.00    +0.000 N 
ATOM     10  C   UNL     1      -1.551  13.011  22.263  0.00  0.00    +0.000 A 
ATOM     11  C   UNL     1      -1.182  13.613  23.470  0.00  0.00    +0.000 A 
ATOM     12  C   UNL     1      -2.079  14.523  24.036  0.00  0.00    +0.000 A 
ATOM     13  C   UNL     1      -3.288  14.815  23.413  0.00  0.00    +0.000 A 
ATOM     14  C   UNL     1      -3.638  14.206  22.202  0.00  0.00    +0.000 A 
ATOM     15  C   UNL     1      -2.752  13.280  21.611  0.00  0.00    +0.000 A 
ATOM     16  H   UNL     1       0.030  11.726  21.720  0.00  0.00    +0.000 HD
BRANCH   5  17
ATOM     17  O   UNL     1      -4.350  11.414  17.321  0.00  0.00    +0.000 OA
ATOM     18  H   UNL     1      -5.231  11.373  17.719  0.00  0.00    +0.000 HD
ENDBRANCH   5  17
ENDBRANCH   1   2
BRANCH   1  19
ATOM     19  C   UNL     1       1.118  10.978  18.714  0.00  0.00    +0.000 C 
BRANCH  19  20
ATOM     20  C   UNL     1       2.151  10.102  18.025  0.00  0.00    +0.000 C 
BRANCH  20  21
ATOM     21  C   UNL     1       1.863   8.639  18.296  0.00  0.00    +0.000 C 
BRANCH  21  22
ATOM     22  C   UNL     1       2.946   7.756  17.694  0.00  0.00    +0.000 C 
BRANCH  22  23
ATOM     23  C   UNL     1       2.737   6.298  18.089  0.00  0.00    +0.000 C 
BRANCH  23  24
ATOM     24  C   UNL     1       3.401   6.019  19.427  0.00  0.00    +0.000 C 
BRANCH  24  26
ATOM     25  C   UNL     1       5.279   4.432  19.066  0.00  0.00    +0.000 C 
ATOM     26  C   UNL     1       4.855   5.680  19.292  0.00  0.00    +0.000 C 
BRANCH  25  27
ATOM     27  C   UNL     1       4.352   3.258  18.966  0.00  0.00    +0.000 C 
BRANCH  27  29
ATOM     28  C   UNL     1       2.742   2.375  17.292  0.00  0.00    +0.000 C 
ATOM     29  C   UNL     1       3.922   2.937  17.562  0.00  0.00    +0.000 C 
BRANCH  28  30
ATOM     30  C   UNL     1       1.727   2.048  18.353  0.00  0.00    +0.000 C 
BRANCH  30  32
ATOM     31  C   UNL     1       0.652   3.531  20.048  0.00  0.00    +0.000 C 
ATOM     32  C   UNL     1       0.873   3.213  18.765  0.00  0.00    +0.000 C 
BRANCH  31  34
ATOM     33  C   UNL     1       2.389   3.515  21.870  0.00  0.00    +0.000 C 
ATOM     34  C   UNL     1       1.239   2.775  21.212  0.00  0.00    +0.000 C 
ENDBRANCH  31  34
ENDBRANCH  30  32
ENDBRANCH  28  30
ENDBRANCH  27  29
ENDBRANCH  25  27
ENDBRANCH  24  26
ENDBRANCH  23  24
ENDBRANCH  22  23
ENDBRANCH  21  22
ENDBRANCH  20  21
ENDBRANCH  19  20
ENDBRANCH   1  19
TORSDOF 14
ENDMDL
MODEL 3
REMARK VINA RESULT:      -7.3      1.784      2.345
REMARK  Name = 
REMARK  16 active torsions:
REMARK  status: ('A' for Active; 'I' for Inactive)
REMARK    1  A    between atoms: C_1  and  C_2
REMARK    2  A    between atoms: C_2  and  C_3
REMARK    3  A    between atoms: C_4  and  C_5
REMARK    4  A    between atoms: C_5  and  C_6
REMARK    5  A    between atoms: C_7  and  C_8
REMARK    6  A    between atoms: C_8  and  C_9
REMARK    7  A    between atoms: C_10  and  C_11
REMARK    8  A    between atoms: C_11  and  C_12
REMARK    9  A    between atoms: C_12  and  C_13
REMARK   10  A    between atoms: C_13  and  C_14
REMARK   11  A    between atoms: C_14  and  C_15
REMARK   12  A    between atoms: C_15  and  C_16
REMARK   13  A    between atoms: C_16  and  C_17
REMARK   14  A    between atoms: C_17  and  C_18
REMARK   15  A    between atoms: C_19  and  C_20
REMARK   16  A    between atoms: C_21  and  O_22
REMARK                            x       y       z     vdW  Elec       q    Type
REMARK                         _______ _______ _______ _____ _____    ______ ____
ROOT
ATOM      1  C   UNL     1       7.471   5.745  17.755  0.00  0.00    +0.000 C 
ENDROOT
BRANCH   1   2
ATOM      2  C   UNL     1       6.328   5.042  17.071  0.00  0.00    +0.000 A 
ATOM      3  C   UNL     1       6.355   4.679  15.697  0.00  0.00    +0.000 A 
ATOM      4  C   UNL     1       7.560   4.959  14.831  0.00  0.00    +0.000 C 
ATOM      5  C   UNL     1       5.230   4.053  15.134  0.00  0.00    +0.000 A 
ATOM      6  C   UNL     1       4.070   3.795  15.870  0.00  0.00    +0.000 A 
ATOM      7  C   UNL     1       4.013   4.178  17.223  0.00  0.00    +0.000 A 
ATOM      8  C   UNL     1       5.131   4.788  17.780  0.00  0.00    +0.000 A 
ATOM      9  N   UNL     1       4.805   5.080  19.088  0.00  0.00    +0.000 N 
ATOM     10  C   UNL     1       3.535   4.664  19.397  0.00  0.00    +0.000 A 
ATOM     11  C   UNL     1       2.825   4.757  20.599  0.00  0.00    +0.000 A 
ATOM     12  C   UNL     1       1.528   4.238  20.621  0.00  0.00    +0.000 A 
ATOM     13  C   UNL     1       0.971   3.657  19.486  0.00  0.00    +0.000 A 
ATOM     14  C   UNL     1       1.696   3.578  18.291  0.00  0.00    +0.000 A 
ATOM     15  C   UNL     1       3.009   4.090  18.241  0.00  0.00    +0.000 A 
ATOM     16  H   UNL     1       5.420   5.545  19.739  0.00  0.00    +0.000 HD
BRANCH   5  17
ATOM     17  O   UNL     1       5.181   3.658  13.822  0.00  0.00    +0.000 OA
ATOM     18  H   UNL     1       4.702   4.315  13.299  0.00  0.00    +0.000 HD
ENDBRANCH   5  17
ENDBRANCH   1   2
BRANCH   1  19
ATOM     19  C   UNL     1       7.369   7.248  17.522  0.00  0.00    +0.000 C 
BRANCH  19  20
ATOM     20  C   UNL     1       8.257   7.994  18.504  0.00  0.00    +0.000 C 
BRANCH  20  21
ATOM     21  C   UNL     1       8.350   9.457  18.118  0.00  0.00    +0.000 C 
BRANCH  21  22
ATOM     22  C   UNL     1       9.299  10.200  19.049  0.00  0.00    +0.000 C 
BRANCH  22  23
ATOM     23  C   UNL     1       9.461  11.651  18.610  0.00  0.00    +0.000 C 
BRANCH  23  24
ATOM     24  C   UNL     1      10.873  11.890  18.102  0.00  0.00    +0.000 C 
BRANCH  24  26
ATOM     25  C   UNL     1      11.670  14.216  17.748  0.00  0.00    +0.000 C 
ATOM     26  C   UNL     1      10.995  13.152  17.303  0.00  0.00    +0.000 C 
BRANCH  25  27
ATOM     27  C   UNL     1      12.332  14.263  19.093  0.00  0.00    +0.000 C 
BRANCH  27  29
ATOM     28  C   UNL     1      10.948  15.304  20.876  0.00  0.00    +0.000 C 
ATOM     29  C   UNL     1      11.898  15.423  19.946  0.00  0.00    +0.000 C 
BRANCH  28  30
ATOM     30  C   UNL     1      10.257  14.003  21.181  0.00  0.00    +0.000 C 
BRANCH  30  32
ATOM     31  C   UNL     1       7.981  13.164  21.763  0.00  0.00    +0.000 C 
ATOM     32  C   UNL     1       8.757  14.093  21.189  0.00  0.00    +0.000 C 
BRANCH  31  34
ATOM     33  C   UNL     1       8.106  11.888  23.930  0.00  0.00    +0.000 C 
ATOM     34  C   UNL     1       8.514  11.944  22.469  0.00  0.00    +0.000 C 
ENDBRANCH  31  34
ENDBRANCH  30  32
ENDBRANCH  28  30
ENDBRANCH  27  29
ENDBRANCH  25  27
ENDBRANCH  24  26
ENDBRANCH  23  24
ENDBRANCH  22  23
ENDBRANCH  21  22
ENDBRANCH  20  21
ENDBRANCH  19  20
ENDBRANCH   1  19
TORSDOF 14
ENDMDL
MODEL 4
REMARK VINA RESULT:      -7.2      6.071     10.338
REMARK  Name = 
REMARK  16 active torsions:
REMARK  status: ('A' for Active; 'I' for Inactive)
REMARK    1  A    between atoms: C_1  and  C_2
REMARK    2  A    between atoms: C_2  and  C_3
REMARK    3  A    between atoms: C_4  and  C_5
REMARK    4  A    between atoms: C_5  and  C_6
REMARK    5  A    between atoms: C_7  and  C_8
REMARK    6  A    between atoms: C_8  and  C_9
REMARK    7  A    between atoms: C_10  and  C_11
REMARK    8  A    between atoms: C_11  and  C_12
REMARK    9  A    between atoms: C_12  and  C_13
REMARK   10  A    between atoms: C_13  and  C_14
REMARK   11  A    between atoms: C_14  and  C_15
REMARK   12  A    between atoms: C_15  and  C_16
REMARK   13  A    between atoms: C_16  and  C_17
REMARK   14  A    between atoms: C_17  and  C_18
REMARK   15  A    between atoms: C_19  and  C_20
REMARK   16  A    between atoms: C_21  and  O_22
REMARK                            x       y       z     vdW  Elec       q    Type
REMARK                         _______ _______ _______ _____ _____    ______ ____
ROOT
ATOM      1  C   UNL     1       0.496  10.050  20.314  0.00  0.00    +0.000 C 
ENDROOT
BRANCH   1   2
ATOM      2  C   UNL     1      -0.750  10.877  20.131  0.00  0.00    +0.000 A 
ATOM      3  C   UNL     1      -1.286  11.704  21.155  0.00  0.00    +0.000 A 
ATOM      4  C   UNL     1      -0.614  11.825  22.503  0.00  0.00    +0.000 C 
ATOM      5  C   UNL     1      -2.470  12.417  20.907  0.00  0.00    +0.000 A 
ATOM      6  C   UNL     1      -3.160  12.325  19.695  0.00  0.00    +0.000 A 
ATOM      7  C   UNL     1      -2.663  11.484  18.682  0.00  0.00    +0.000 A 
ATOM      8  C   UNL     1      -1.485  10.788  18.926  0.00  0.00    +0.000 A 
ATOM      9  N   UNL     1      -1.238  10.032  17.799  0.00  0.00    +0.000 N 
ATOM     10  C   UNL     1      -2.195  10.231  16.838  0.00  0.00    +0.000 A 
ATOM     11  C   UNL     1      -2.317   9.674  15.561  0.00  0.00    +0.000 A 
ATOM     12  C   UNL     1      -3.413  10.068  14.789  0.00  0.00    +0.000 A 
ATOM     13  C   UNL     1      -4.344  10.978  15.281  0.00  0.00    +0.000 A 
ATOM     14  C   UNL     1      -4.207  11.521  16.565  0.00  0.00    +0.000 A 
ATOM     15  C   UNL     1      -3.108  11.143  17.364  0.00  0.00    +0.000 A 
ATOM     16  H   UNL     1      -0.454   9.406  17.693  0.00  0.00    +0.000 HD
BRANCH   5  17
ATOM     17  O   UNL     1      -3.043  13.249  21.836  0.00  0.00    +0.000 OA
ATOM     18  H   UNL     1      -2.367  13.571  22.448  0.00  0.00    +0.000 HD
ENDBRANCH   5  17
ENDBRANCH   1   2
BRANCH   1  19
ATOM     19  C   UNL     1       0.185   8.825  21.165  0.00  0.00    +0.000 C 
BRANCH  19  20
ATOM     20  C   UNL     1       1.392   7.904  21.224  0.00  0.00    +0.000 C 
BRANCH  20  21
ATOM     21  C   UNL     1       2.000   7.748  19.844  0.00  0.00    +0.000 C 
BRANCH  21  22
ATOM     22  C   UNL     1       2.465   6.316  19.619  0.00  0.00    +0.000 C 
BRANCH  22  23
ATOM     23  C   UNL     1       1.756   5.361  20.573  0.00  0.00    +0.000 C 
BRANCH  23  24
ATOM     24  C   UNL     1       1.366   4.087  19.842  0.00  0.00    +0.000 C 
BRANCH  24  26
ATOM     25  C   UNL     1       2.213   3.477  17.588  0.00  0.00    +0.000 C 
ATOM     26  C   UNL     1       1.420   4.235  18.352  0.00  0.00    +0.000 C 
BRANCH  25  27
ATOM     27  C   UNL     1       3.144   2.444  18.147  0.00  0.00    +0.000 C 
BRANCH  27  29
ATOM     28  C   UNL     1       5.158   3.838  18.570  0.00  0.00    +0.000 C 
ATOM     29  C   UNL     1       4.220   3.008  19.033  0.00  0.00    +0.000 C 
BRANCH  28  30
ATOM     30  C   UNL     1       5.203   4.310  17.143  0.00  0.00    +0.000 C 
BRANCH  30  32
ATOM     31  C   UNL     1       5.799   6.725  16.950  0.00  0.00    +0.000 C 
ATOM     32  C   UNL     1       4.866   5.763  16.966  0.00  0.00    +0.000 C 
BRANCH  31  34
ATOM     33  C   UNL     1       7.761   6.597  18.522  0.00  0.00    +0.000 C 
ATOM     34  C   UNL     1       7.276   6.464  17.090  0.00  0.00    +0.000 C 
ENDBRANCH  31  34
ENDBRANCH  30  32
ENDBRANCH  28  30
ENDBRANCH  27  29
ENDBRANCH  25  27
ENDBRANCH  24  26
ENDBRANCH  23  24
ENDBRANCH  22  23
ENDBRANCH  21  22
ENDBRANCH  20  21
ENDBRANCH  19  20
ENDBRANCH   1  19
TORSDOF 14
ENDMDL
MODEL 5
REMARK VINA RESULT:      -7.1      4.768     10.661
REMARK  Name = 
REMARK  16 active torsions:
REMARK  status: ('A' for Active; 'I' for Inactive)
REMARK    1  A    between atoms: C_1  and  C_2
REMARK    2  A    between atoms: C_2  and  C_3
REMARK    3  A    between atoms: C_4  and  C_5
REMARK    4  A    between atoms: C_5  and  C_6
REMARK    5  A    between atoms: C_7  and  C_8
REMARK    6  A    between atoms: C_8  and  C_9
REMARK    7  A    between atoms: C_10  and  C_11
REMARK    8  A    between atoms: C_11  and  C_12
REMARK    9  A    between atoms: C_12  and  C_13
REMARK   10  A    between atoms: C_13  and  C_14
REMARK   11  A    between atoms: C_14  and  C_15
REMARK   12  A    between atoms: C_15  and  C_16
REMARK   13  A    between atoms: C_16  and  C_17
REMARK   14  A    between atoms: C_17  and  C_18
REMARK   15  A    between atoms: C_19  and  C_20
REMARK   16  A    between atoms: C_21  and  O_22
REMARK                            x       y       z     vdW  Elec       q    Type
REMARK                         _______ _______ _______ _____ _____    ______ ____
ROOT
ATOM      1  C   UNL     1       0.855   9.651  17.692  0.00  0.00    +0.000 C 
ENDROOT
BRANCH   1   2
ATOM      2  C   UNL     1       0.263  10.921  18.246  0.00  0.00    +0.000 A 
ATOM      3  C   UNL     1      -1.114  11.055  18.568  0.00  0.00    +0.000 A 
ATOM      4  C   UNL     1      -2.081   9.908  18.392  0.00  0.00    +0.000 C 
ATOM      5  C   UNL     1      -1.585  12.287  19.051  0.00  0.00    +0.000 A 
ATOM      6  C   UNL     1      -0.752  13.399  19.206  0.00  0.00    +0.000 A 
ATOM      7  C   UNL     1       0.607  13.294  18.861  0.00  0.00    +0.000 A 
ATOM      8  C   UNL     1       1.074  12.071  18.393  0.00  0.00    +0.000 A 
ATOM      9  N   UNL     1       2.412  12.245  18.108  0.00  0.00    +0.000 N 
ATOM     10  C   UNL     1       2.826  13.521  18.394  0.00  0.00    +0.000 A 
ATOM     11  C   UNL     1       4.089  14.108  18.263  0.00  0.00    +0.000 A 
ATOM     12  C   UNL     1       4.219  15.447  18.639  0.00  0.00    +0.000 A 
ATOM     13  C   UNL     1       3.127  16.163  19.121  0.00  0.00    +0.000 A 
ATOM     14  C   UNL     1       1.869  15.559  19.241  0.00  0.00    +0.000 A 
ATOM     15  C   UNL     1       1.711  14.207  18.872  0.00  0.00    +0.000 A 
ATOM     16  H   UNL     1       3.013  11.528  17.732  0.00  0.00    +0.000 HD
BRANCH   5  17
ATOM     17  O   UNL     1      -2.896  12.495  19.399  0.00  0.00    +0.000 OA
ATOM     18  H   UNL     1      -3.426  12.640  18.603  0.00  0.00    +0.000 HD
ENDBRANCH   5  17
ENDBRANCH   1   2
BRANCH   1  19
ATOM     19  C   UNL     1       1.572   8.887  18.798  0.00  0.00    +0.000 C 
BRANCH  19  20
ATOM     20  C   UNL     1       2.374   7.738  18.211  0.00  0.00    +0.000 C 
BRANCH  20  21
ATOM     21  C   UNL     1       2.893   6.841  19.317  0.00  0.00    +0.000 C 
BRANCH  21  22
ATOM     22  C   UNL     1       1.835   6.648  20.394  0.00  0.00    +0.000 C 
BRANCH  22  23
ATOM     23  C   UNL     1       1.885   5.230  20.954  0.00  0.00    +0.000 C 
BRANCH  23  24
ATOM     24  C   UNL     1       0.916   4.335  20.199  0.00  0.00    +0.000 C 
BRANCH  24  26
ATOM     25  C   UNL     1       1.950   2.116  19.777  0.00  0.00    +0.000 C 
ATOM     26  C   UNL     1       1.122   2.881  20.495  0.00  0.00    +0.000 C 
BRANCH  25  27
ATOM     27  C   UNL     1       2.715   2.626  18.592  0.00  0.00    +0.000 C 
BRANCH  27  29
ATOM     28  C   UNL     1       4.800   3.882  18.094  0.00  0.00    +0.000 C 
ATOM     29  C   UNL     1       4.104   3.099  18.920  0.00  0.00    +0.000 C 
BRANCH  28  30
ATOM     30  C   UNL     1       4.252   4.391  16.789  0.00  0.00    +0.000 C 
BRANCH  30  32
ATOM     31  C   UNL     1       5.997   5.415  15.329  0.00  0.00    +0.000 C 
ATOM     32  C   UNL     1       5.006   5.559  16.220  0.00  0.00    +0.000 C 
BRANCH  31  34
ATOM     33  C   UNL     1       5.961   3.824  13.378  0.00  0.00    +0.000 C 
ATOM     34  C   UNL     1       6.454   4.085  14.790  0.00  0.00    +0.000 C 
ENDBRANCH  31  34
ENDBRANCH  30  32
ENDBRANCH  28  30
ENDBRANCH  27  29
ENDBRANCH  25  27
ENDBRANCH  24  26
ENDBRANCH  23  24
ENDBRANCH  22  23
ENDBRANCH  21  22
ENDBRANCH  20  21
ENDBRANCH  19  20
ENDBRANCH   1  19
TORSDOF 14
ENDMDL
MODEL 6
REMARK VINA RESULT:      -7.1      6.493     10.848
REMARK  Name = 
REMARK  16 active torsions:
REMARK  status: ('A' for Active; 'I' for Inactive)
REMARK    1  A    between atoms: C_1  and  C_2
REMARK    2  A    between atoms: C_2  and  C_3
REMARK    3  A    between atoms: C_4  and  C_5
REMARK    4  A    between atoms: C_5  and  C_6
REMARK    5  A    between atoms: C_7  and  C_8
REMARK    6  A    between atoms: C_8  and  C_9
REMARK    7  A    between atoms: C_10  and  C_11
REMARK    8  A    between atoms: C_11  and  C_12
REMARK    9  A    between atoms: C_12  and  C_13
REMARK   10  A    between atoms: C_13  and  C_14
REMARK   11  A    between atoms: C_14  and  C_15
REMARK   12  A    between atoms: C_15  and  C_16
REMARK   13  A    between atoms: C_16  and  C_17
REMARK   14  A    between atoms: C_17  and  C_18
REMARK   15  A    between atoms: C_19  and  C_20
REMARK   16  A    between atoms: C_21  and  O_22
REMARK                            x       y       z     vdW  Elec       q    Type
REMARK                         _______ _______ _______ _____ _____    ______ ____
ROOT
ATOM      1  C   UNL     1      -0.695  10.009  17.970  0.00  0.00    +0.000 C 
ENDROOT
BRANCH   1   2
ATOM      2  C   UNL     1      -2.005  10.710  18.214  0.00  0.00    +0.000 A 
ATOM      3  C   UNL     1      -3.051  10.752  17.252  0.00  0.00    +0.000 A 
ATOM      4  C   UNL     1      -2.918  10.065  15.914  0.00  0.00    +0.000 C 
ATOM      5  C   UNL     1      -4.228  11.455  17.554  0.00  0.00    +0.000 A 
ATOM      6  C   UNL     1      -4.403  12.141  18.760  0.00  0.00    +0.000 A 
ATOM      7  C   UNL     1      -3.366  12.139  19.710  0.00  0.00    +0.000 A 
ATOM      8  C   UNL     1      -2.206  11.433  19.414  0.00  0.00    +0.000 A 
ATOM      9  N   UNL     1      -1.354  11.612  20.484  0.00  0.00    +0.000 N 
ATOM     10  C   UNL     1      -1.929  12.385  21.461  0.00  0.00    +0.000 A 
ATOM     11  C   UNL     1      -1.420  12.797  22.697  0.00  0.00    +0.000 A 
ATOM     12  C   UNL     1      -2.244  13.591  23.499  0.00  0.00    +0.000 A 
ATOM     13  C   UNL     1      -3.518  13.957  23.074  0.00  0.00    +0.000 A 
ATOM     14  C   UNL     1      -4.007  13.538  21.831  0.00  0.00    +0.000 A 
ATOM     15  C   UNL     1      -3.198  12.732  21.003  0.00  0.00    +0.000 A 
ATOM     16  H   UNL     1      -0.423  11.228  20.543  0.00  0.00    +0.000 HD
BRANCH   5  17
ATOM     17  O   UNL     1      -5.289  11.531  16.687  0.00  0.00    +0.000 OA
ATOM     18  H   UNL     1      -5.628  10.644  16.506  0.00  0.00    +0.000 HD
ENDBRANCH   5  17
ENDBRANCH   1   2
BRANCH   1  19
ATOM     19  C   UNL     1       0.459  10.895  18.422  0.00  0.00    +0.000 C 
BRANCH  19  20
ATOM     20  C   UNL     1       1.787  10.198  18.176  0.00  0.00    +0.000 C 
BRANCH  20  21
ATOM     21  C   UNL     1       1.554   8.766  17.738  0.00  0.00    +0.000 C 
BRANCH  21  22
ATOM     22  C   UNL     1       2.820   7.938  17.907  0.00  0.00    +0.000 C 
BRANCH  22  23
ATOM     23  C   UNL     1       2.548   6.700  18.754  0.00  0.00    +0.000 C 
BRANCH  23  24
ATOM     24  C   UNL     1       2.765   5.443  17.928  0.00  0.00    +0.000 C 
BRANCH  24  26
ATOM     25  C   UNL     1       4.659   3.836  17.896  0.00  0.00    +0.000 C 
ATOM     26  C   UNL     1       3.707   4.478  18.581  0.00  0.00    +0.000 C 
BRANCH  25  27
ATOM     27  C   UNL     1       4.848   3.989  16.416  0.00  0.00    +0.000 C 
BRANCH  27  29
ATOM     28  C   UNL     1       6.643   4.240  14.716  0.00  0.00    +0.000 C 
ATOM     29  C   UNL     1       6.282   4.162  15.999  0.00  0.00    +0.000 C 
BRANCH  28  30
ATOM     30  C   UNL     1       5.655   4.201  13.582  0.00  0.00    +0.000 C 
BRANCH  30  32
ATOM     31  C   UNL     1       5.201   2.910  11.496  0.00  0.00    +0.000 C 
ATOM     32  C   UNL     1       6.060   3.304  12.447  0.00  0.00    +0.000 C 
BRANCH  31  34
ATOM     33  C   UNL     1       3.320   3.772  10.064  0.00  0.00    +0.000 C 
ATOM     34  C   UNL     1       3.754   3.326  11.447  0.00  0.00    +0.000 C 
ENDBRANCH  31  34
ENDBRANCH  30  32
ENDBRANCH  28  30
ENDBRANCH  27  29
ENDBRANCH  25  27
ENDBRANCH  24  26
ENDBRANCH  23  24
ENDBRANCH  22  23
ENDBRANCH  21  22
ENDBRANCH  20  21
ENDBRANCH  19  20
ENDBRANCH   1  19
TORSDOF 14
ENDMDL
MODEL 7
REMARK VINA RESULT:      -7.1      2.272      4.507
REMARK  Name = 
REMARK  16 active torsions:
REMARK  status: ('A' for Active; 'I' for Inactive)
REMARK    1  A    between atoms: C_1  and  C_2
REMARK    2  A    between atoms: C_2  and  C_3
REMARK    3  A    between atoms: C_4  and  C_5
REMARK    4  A    between atoms: C_5  and  C_6
REMARK    5  A    between atoms: C_7  and  C_8
REMARK    6  A    between atoms: C_8  and  C_9
REMARK    7  A    between atoms: C_10  and  C_11
REMARK    8  A    between atoms: C_11  and  C_12
REMARK    9  A    between atoms: C_12  and  C_13
REMARK   10  A    between atoms: C_13  and  C_14
REMARK   11  A    between atoms: C_14  and  C_15
REMARK   12  A    between atoms: C_15  and  C_16
REMARK   13  A    between atoms: C_16  and  C_17
REMARK   14  A    between atoms: C_17  and  C_18
REMARK   15  A    between atoms: C_19  and  C_20
REMARK   16  A    between atoms: C_21  and  O_22
REMARK                            x       y       z     vdW  Elec       q    Type
REMARK                         _______ _______ _______ _____ _____    ______ ____
ROOT
ATOM      1  C   UNL     1       7.457   6.115  18.166  0.00  0.00    +0.000 C 
ENDROOT
BRANCH   1   2
ATOM      2  C   UNL     1       6.341   5.348  17.508  0.00  0.00    +0.000 A 
ATOM      3  C   UNL     1       5.214   4.858  18.222  0.00  0.00    +0.000 A 
ATOM      4  C   UNL     1       5.052   5.101  19.704  0.00  0.00    +0.000 C 
ATOM      5  C   UNL     1       4.235   4.125  17.532  0.00  0.00    +0.000 A 
ATOM      6  C   UNL     1       4.338   3.835  16.168  0.00  0.00    +0.000 A 
ATOM      7  C   UNL     1       5.464   4.283  15.452  0.00  0.00    +0.000 A 
ATOM      8  C   UNL     1       6.426   5.018  16.135  0.00  0.00    +0.000 A 
ATOM      9  N   UNL     1       7.419   5.306  15.222  0.00  0.00    +0.000 N 
ATOM     10  C   UNL     1       7.122   4.805  13.980  0.00  0.00    +0.000 A 
ATOM     11  C   UNL     1       7.844   4.879  12.784  0.00  0.00    +0.000 A 
ATOM     12  C   UNL     1       7.287   4.268  11.658  0.00  0.00    +0.000 A 
ATOM     13  C   UNL     1       6.063   3.611  11.733  0.00  0.00    +0.000 A 
ATOM     14  C   UNL     1       5.357   3.544  12.940  0.00  0.00    +0.000 A 
ATOM     15  C   UNL     1       5.895   4.156  14.092  0.00  0.00    +0.000 A 
ATOM     16  H   UNL     1       8.261   5.817  15.437  0.00  0.00    +0.000 HD
BRANCH   5  17
ATOM     17  O   UNL     1       3.110   3.631  18.143  0.00  0.00    +0.000 OA
ATOM     18  H   UNL     1       2.549   4.362  18.436  0.00  0.00    +0.000 HD
ENDBRANCH   5  17
ENDBRANCH   1   2
BRANCH   1  19
ATOM     19  C   UNL     1       7.484   7.545  17.640  0.00  0.00    +0.000 C 
BRANCH  19  20
ATOM     20  C   UNL     1       8.509   8.368  18.403  0.00  0.00    +0.000 C 
BRANCH  20  21
ATOM     21  C   UNL     1       8.400   9.830  18.016  0.00  0.00    +0.000 C 
BRANCH  21  22
ATOM     22  C   UNL     1       9.278  10.691  18.914  0.00  0.00    +0.000 C 
BRANCH  22  23
ATOM     23  C   UNL     1      10.397  11.343  18.110  0.00  0.00    +0.000 C 
BRANCH  23  24
ATOM     24  C   UNL     1       9.930  12.676  17.549  0.00  0.00    +0.000 C 
BRANCH  24  26
ATOM     25  C   UNL     1      11.667  14.451  17.625  0.00  0.00    +0.000 C 
ATOM     26  C   UNL     1      11.049  13.475  16.952  0.00  0.00    +0.000 C 
BRANCH  25  27
ATOM     27  C   UNL     1      11.279  14.861  19.014  0.00  0.00    +0.000 C 
BRANCH  27  29
ATOM     28  C   UNL     1      11.905  16.932  20.236  0.00  0.00    +0.000 C 
ATOM     29  C   UNL     1      12.270  15.775  19.679  0.00  0.00    +0.000 C 
BRANCH  28  30
ATOM     30  C   UNL     1      10.478  17.406  20.282  0.00  0.00    +0.000 C 
BRANCH  30  32
ATOM     31  C   UNL     1       8.941  18.019  18.415  0.00  0.00    +0.000 C 
ATOM     32  C   UNL     1      10.070  18.241  19.102  0.00  0.00    +0.000 C 
BRANCH  31  34
ATOM     33  C   UNL     1       8.037  15.751  17.800  0.00  0.00    +0.000 C 
ATOM     34  C   UNL     1       7.954  16.931  18.751  0.00  0.00    +0.000 C 
ENDBRANCH  31  34
ENDBRANCH  30  32
ENDBRANCH  28  30
ENDBRANCH  27  29
ENDBRANCH  25  27
ENDBRANCH  24  26
ENDBRANCH  23  24
ENDBRANCH  22  23
ENDBRANCH  21  22
ENDBRANCH  20  21
ENDBRANCH  19  20
ENDBRANCH   1  19
TORSDOF 14
ENDMDL
MODEL 8
REMARK VINA RESULT:      -7.1      4.973      7.783
REMARK  Name = 
REMARK  16 active torsions:
REMARK  status: ('A' for Active; 'I' for Inactive)
REMARK    1  A    between atoms: C_1  and  C_2
REMARK    2  A    between atoms: C_2  and  C_3
REMARK    3  A    between atoms: C_4  and  C_5
REMARK    4  A    between atoms: C_5  and  C_6
REMARK    5  A    between atoms: C_7  and  C_8
REMARK    6  A    between atoms: C_8  and  C_9
REMARK    7  A    between atoms: C_10  and  C_11
REMARK    8  A    between atoms: C_11  and  C_12
REMARK    9  A    between atoms: C_12  and  C_13
REMARK   10  A    between atoms: C_13  and  C_14
REMARK   11  A    between atoms: C_14  and  C_15
REMARK   12  A    between atoms: C_15  and  C_16
REMARK   13  A    between atoms: C_16  and  C_17
REMARK   14  A    between atoms: C_17  and  C_18
REMARK   15  A    between atoms: C_19  and  C_20
REMARK   16  A    between atoms: C_21  and  O_22
REMARK                            x       y       z     vdW  Elec       q    Type
REMARK                         _______ _______ _______ _____ _____    ______ ____
ROOT
ATOM      1  C   UNL     1       3.728   3.725  17.691  0.00  0.00    +0.000 C 
ENDROOT
BRANCH   1   2
ATOM      2  C   UNL     1       5.013   4.414  17.311  0.00  0.00    +0.000 A 
ATOM      3  C   UNL     1       5.758   5.215  18.218  0.00  0.00    +0.000 A 
ATOM      4  C   UNL     1       5.313   5.408  19.649  0.00  0.00    +0.000 C 
ATOM      5  C   UNL     1       6.930   5.845  17.769  0.00  0.00    +0.000 A 
ATOM      6  C   UNL     1       7.381   5.735  16.450  0.00  0.00    +0.000 A 
ATOM      7  C   UNL     1       6.637   4.974  15.529  0.00  0.00    +0.000 A 
ATOM      8  C   UNL     1       5.484   4.342  15.979  0.00  0.00    +0.000 A 
ATOM      9  N   UNL     1       4.941   3.696  14.888  0.00  0.00    +0.000 N 
ATOM     10  C   UNL     1       5.710   3.869  13.766  0.00  0.00    +0.000 A 
ATOM     11  C   UNL     1       5.527   3.383  12.467  0.00  0.00    +0.000 A 
ATOM     12  C   UNL     1       6.487   3.726  11.511  0.00  0.00    +0.000 A 
ATOM     13  C   UNL     1       7.577   4.523  11.847  0.00  0.00    +0.000 A 
ATOM     14  C   UNL     1       7.740   5.004  13.152  0.00  0.00    +0.000 A 
ATOM     15  C   UNL     1       6.788   4.670  14.137  0.00  0.00    +0.000 A 
ATOM     16  H   UNL     1       4.084   3.164  14.909  0.00  0.00    +0.000 HD
BRANCH   5  17
ATOM     17  O   UNL     1       7.714   6.621  18.584  0.00  0.00    +0.000 OA
ATOM     18  H   UNL     1       7.638   6.316  19.498  0.00  0.00    +0.000 HD
ENDBRANCH   5  17
ENDBRANCH   1   2
BRANCH   1  19
ATOM     19  C   UNL     1       4.008   2.639  18.722  0.00  0.00    +0.000 C 
BRANCH  19  20
ATOM     20  C   UNL     1       2.830   2.499  19.673  0.00  0.00    +0.000 C 
BRANCH  20  21
ATOM     21  C   UNL     1       1.897   3.685  19.529  0.00  0.00    +0.000 C 
BRANCH  21  22
ATOM     22  C   UNL     1       2.226   4.757  20.559  0.00  0.00    +0.000 C 
BRANCH  22  23
ATOM     23  C   UNL     1       1.262   5.932  20.443  0.00  0.00    +0.000 C 
BRANCH  23  24
ATOM     24  C   UNL     1       2.031   7.214  20.164  0.00  0.00    +0.000 C 
BRANCH  24  26
ATOM     25  C   UNL     1       2.154   8.123  17.855  0.00  0.00    +0.000 C 
ATOM     26  C   UNL     1       2.594   7.259  18.776  0.00  0.00    +0.000 C 
BRANCH  25  27
ATOM     27  C   UNL     1       1.038   9.092  18.108  0.00  0.00    +0.000 C 
BRANCH  27  29
ATOM     28  C   UNL     1       0.790  11.159  19.465  0.00  0.00    +0.000 C 
ATOM     29  C   UNL     1       1.499  10.439  18.593  0.00  0.00    +0.000 C 
BRANCH  28  30
ATOM     30  C   UNL     1      -0.502  10.679  20.068  0.00  0.00    +0.000 C 
BRANCH  30  32
ATOM     31  C   UNL     1      -0.535  10.423  22.549  0.00  0.00    +0.000 C 
ATOM     32  C   UNL     1      -0.332   9.892  21.336  0.00  0.00    +0.000 C 
BRANCH  31  34
ATOM     33  C   UNL     1      -2.459  11.978  23.018  0.00  0.00    +0.000 C 
ATOM     34  C   UNL     1      -0.966  11.848  22.780  0.00  0.00    +0.000 C 
ENDBRANCH  31  34
ENDBRANCH  30  32
ENDBRANCH  28  30
ENDBRANCH  27  29
ENDBRANCH  25  27
ENDBRANCH  24  26
ENDBRANCH  23  24
ENDBRANCH  22  23
ENDBRANCH  21  22
ENDBRANCH  20  21
ENDBRANCH  19  20
ENDBRANCH   1  19
TORSDOF 14
ENDMDL
MODEL 9
REMARK VINA RESULT:      -7.1      4.891     10.017
REMARK  Name = 
REMARK  16 active torsions:
REMARK  status: ('A' for Active; 'I' for Inactive)
REMARK    1  A    between atoms: C_1  and  C_2
REMARK    2  A    between atoms: C_2  and  C_3
REMARK    3  A    between atoms: C_4  and  C_5
REMARK    4  A    between atoms: C_5  and  C_6
REMARK    5  A    between atoms: C_7  and  C_8
REMARK    6  A    between atoms: C_8  and  C_9
REMARK    7  A    between atoms: C_10  and  C_11
REMARK    8  A    between atoms: C_11  and  C_12
REMARK    9  A    between atoms: C_12  and  C_13
REMARK   10  A    between atoms: C_13  and  C_14
REMARK   11  A    between atoms: C_14  and  C_15
REMARK   12  A    between atoms: C_15  and  C_16
REMARK   13  A    between atoms: C_16  and  C_17
REMARK   14  A    between atoms: C_17  and  C_18
REMARK   15  A    between atoms: C_19  and  C_20
REMARK   16  A    between atoms: C_21  and  O_22
REMARK                            x       y       z     vdW  Elec       q    Type
REMARK                         _______ _______ _______ _____ _____    ______ ____
ROOT
ATOM      1  C   UNL     1       0.347   8.678  20.148  0.00  0.00    +0.000 C 
ENDROOT
BRANCH   1   2
ATOM      2  C   UNL     1       0.712  10.095  19.791  0.00  0.00    +0.000 A 
ATOM      3  C   UNL     1       1.548  10.423  18.690  0.00  0.00    +0.000 A 
ATOM      4  C   UNL     1       2.111   9.356  17.781  0.00  0.00    +0.000 C 
ATOM      5  C   UNL     1       1.862  11.771  18.448  0.00  0.00    +0.000 A 
ATOM      6  C   UNL     1       1.402  12.805  19.269  0.00  0.00    +0.000 A 
ATOM      7  C   UNL     1       0.601  12.496  20.383  0.00  0.00    +0.000 A 
ATOM      8  C   UNL     1       0.283  11.163  20.614  0.00  0.00    +0.000 A 
ATOM      9  N   UNL     1      -0.477  11.135  21.764  0.00  0.00    +0.000 N 
ATOM     10  C   UNL     1      -0.677  12.395  22.267  0.00  0.00    +0.000 A 
ATOM     11  C   UNL     1      -1.388  12.810  23.398  0.00  0.00    +0.000 A 
ATOM     12  C   UNL     1      -1.422  14.181  23.669  0.00  0.00    +0.000 A 
ATOM     13  C   UNL     1      -0.769  15.089  22.842  0.00  0.00    +0.000 A 
ATOM     14  C   UNL     1      -0.058  14.654  21.717  0.00  0.00    +0.000 A 
ATOM     15  C   UNL     1      -0.011  13.276  21.418  0.00  0.00    +0.000 A 
ATOM     16  H   UNL     1      -0.840  10.294  22.188  0.00  0.00    +0.000 HD
BRANCH   5  17
ATOM     17  O   UNL     1       2.648  12.173  17.399  0.00  0.00    +0.000 OA
ATOM     18  H   UNL     1       3.573  11.959  17.582  0.00  0.00    +0.000 HD
ENDBRANCH   5  17
ENDBRANCH   1   2
BRANCH   1  19
ATOM     19  C   UNL     1       1.433   8.068  21.025  0.00  0.00    +0.000 C 
BRANCH  19  20
ATOM     20  C   UNL     1       2.162   6.967  20.272  0.00  0.00    +0.000 C 
BRANCH  20  21
ATOM     21  C   UNL     1       1.388   5.668  20.364  0.00  0.00    +0.000 C 
BRANCH  21  22
ATOM     22  C   UNL     1       2.121   4.664  21.243  0.00  0.00    +0.000 C 
BRANCH  22  23
ATOM     23  C   UNL     1       1.522   3.271  21.089  0.00  0.00    +0.000 C 
BRANCH  23  24
ATOM     24  C   UNL     1       1.104   3.038  19.646  0.00  0.00    +0.000 C 
BRANCH  24  26
ATOM     25  C   UNL     1       3.026   1.983  18.478  0.00  0.00    +0.000 C 
ATOM     26  C   UNL     1       1.809   1.873  19.021  0.00  0.00    +0.000 C 
BRANCH  25  27
ATOM     27  C   UNL     1       3.777   3.279  18.407  0.00  0.00    +0.000 C 
BRANCH  27  29
ATOM     28  C   UNL     1       4.420   4.469  16.323  0.00  0.00    +0.000 C 
ATOM     29  C   UNL     1       3.470   4.096  17.182  0.00  0.00    +0.000 C 
BRANCH  28  30
ATOM     30  C   UNL     1       5.865   4.081  16.477  0.00  0.00    +0.000 C 
BRANCH  30  32
ATOM     31  C   UNL     1       7.258   6.114  16.868  0.00  0.00    +0.000 C 
ATOM     32  C   UNL     1       6.835   5.144  16.046  0.00  0.00    +0.000 C 
BRANCH  31  34
ATOM     33  C   UNL     1       7.866   5.715  19.278  0.00  0.00    +0.000 C 
ATOM     34  C   UNL     1       6.826   6.242  18.306  0.00  0.00    +0.000 C 
ENDBRANCH  31  34
ENDBRANCH  30  32
ENDBRANCH  28  30
ENDBRANCH  27  29
ENDBRANCH  25  27
ENDBRANCH  24  26
ENDBRANCH  23  24
ENDBRANCH  22  23
ENDBRANCH  21  22
ENDBRANCH  20  21
ENDBRANCH  19  20
ENDBRANCH   1  19
TORSDOF 14
ENDMDL
