MODEL 1
REMARK VINA RESULT:      -8.3      0.000      0.000
REMARK  Name = 
REMARK  2 active torsions:
REMARK  status: ('A' for Active; 'I' for Inactive)
REMARK    1  A    between atoms: C_3  and  O_4
REMARK    2  A    between atoms: C_5  and  C_6
REMARK                            x       y       z     vdW  Elec       q    Type
REMARK                         _______ _______ _______ _____ _____    ______ ____
ROOT
ATOM      1  O   UNL     1       3.920   6.824  17.963  0.00  0.00    +0.000 OA
ATOM      2  C   UNL     1       4.188   5.741  17.459  0.00  0.00    +0.000 A 
ATOM      3  C   UNL     1       4.960   5.706  16.198  0.00  0.00    +0.000 A 
ATOM      4  C   UNL     1       5.237   4.512  15.650  0.00  0.00    +0.000 A 
ATOM      5  O   UNL     1       4.849   3.290  16.180  0.00  0.00    +0.000 OA
ATOM      6  C   UNL     1       4.141   3.280  17.359  0.00  0.00    +0.000 A 
ATOM      7  C   UNL     1       3.780   2.029  17.867  0.00  0.00    +0.000 A 
ATOM      8  C   UNL     1       3.062   1.918  19.065  0.00  0.00    +0.000 A 
ATOM      9  C   UNL     1       2.732   3.109  19.710  0.00  0.00    +0.000 A 
ATOM     10  O   UNL     1       2.042   3.206  20.880  0.00  0.00    +0.000 OA
ATOM     11  C   UNL     1       1.931   4.530  21.167  0.00  0.00    +0.000 A 
ATOM     12  C   UNL     1       2.542   5.287  20.196  0.00  0.00    +0.000 A 
ATOM     13  C   UNL     1       3.069   4.375  19.240  0.00  0.00    +0.000 A 
ATOM     14  C   UNL     1       3.791   4.455  18.034  0.00  0.00    +0.000 A 
ENDROOT
BRANCH   4  15
ATOM     15  C   UNL     1       5.994   4.385  14.400  0.00  0.00    +0.000 A 
ATOM     16  C   UNL     1       5.512   3.585  13.356  0.00  0.00    +0.000 A 
ATOM     17  C   UNL     1       6.190   3.539  12.135  0.00  0.00    +0.000 A 
ATOM     18  C   UNL     1       7.358   4.279  11.958  0.00  0.00    +0.000 A 
ATOM     19  C   UNL     1       7.864   5.047  13.007  0.00  0.00    +0.000 A 
ATOM     20  C   UNL     1       7.184   5.101  14.224  0.00  0.00    +0.000 A 
ENDBRANCH   4  15
BRANCH   3  21
ATOM     21  O   UNL     1       5.343   6.918  15.654  0.00  0.00    +0.000 OA
ATOM     22  H   UNL     1       5.988   6.683  14.952  0.00  0.00    +0.000 HD
ENDBRANCH   3  21
TORSDOF 2
ENDMDL
MODEL 2
REMARK VINA RESULT:      -8.2      0.132      1.063
REMARK  Name = 
REMARK  2 active torsions:
REMARK  status: ('A' for Active; 'I' for Inactive)
REMARK    1  A    between atoms: C_3  and  O_4
REMARK    2  A    between atoms: C_5  and  C_6
REMARK                            x       y       z     vdW  Elec       q    Type
REMARK                         _______ _______ _______ _____ _____    ______ ____
ROOT
ATOM      1  O   UNL     1       3.823   6.791  18.060  0.00  0.00    +0.000 OA
ATOM      2  C   UNL     1       4.106   5.721  17.537  0.00  0.00    +0.000 A 
ATOM      3  C   UNL     1       4.842   5.720  16.254  0.00  0.00    +0.000 A 
ATOM      4  C   UNL     1       5.135   4.540  15.684  0.00  0.00    +0.000 A 
ATOM      5  O   UNL     1       4.794   3.303  16.211  0.00  0.00    +0.000 OA
ATOM      6  C   UNL     1       4.121   3.261  17.409  0.00  0.00    +0.000 A 
ATOM      7  C   UNL     1       3.807   1.996  17.913  0.00  0.00    +0.000 A 
ATOM      8  C   UNL     1       3.127   1.853  19.129  0.00  0.00    +0.000 A 
ATOM      9  C   UNL     1       2.784   3.028  19.797  0.00  0.00    +0.000 A 
ATOM     10  O   UNL     1       2.125   3.093  20.987  0.00  0.00    +0.000 OA
ATOM     11  C   UNL     1       1.989   4.410  21.293  0.00  0.00    +0.000 A 
ATOM     12  C   UNL     1       2.551   5.194  20.314  0.00  0.00    +0.000 A 
ATOM     13  C   UNL     1       3.074   4.307  19.332  0.00  0.00    +0.000 A 
ATOM     14  C   UNL     1       3.759   4.419  18.107  0.00  0.00    +0.000 A 
ENDROOT
BRANCH   4  15
ATOM     15  C   UNL     1       5.859   4.446  14.412  0.00  0.00    +0.000 A 
ATOM     16  C   UNL     1       7.072   5.123  14.234  0.00  0.00    +0.000 A 
ATOM     17  C   UNL     1       7.801   4.959  13.054  0.00  0.00    +0.000 A 
ATOM     18  C   UNL     1       7.315   4.131  12.042  0.00  0.00    +0.000 A 
ATOM     19  C   UNL     1       6.089   3.485  12.198  0.00  0.00    +0.000 A 
ATOM     20  C   UNL     1       5.362   3.642  13.380  0.00  0.00    +0.000 A 
ENDBRANCH   4  15
BRANCH   3  21
ATOM     21  O   UNL     1       5.177   6.947  15.713  0.00  0.00    +0.000 OA
ATOM     22  H   UNL     1       6.014   7.197  16.162  0.00  0.00    +0.000 HD
ENDBRANCH   3  21
TORSDOF 2
ENDMDL
MODEL 3
REMARK VINA RESULT:      -7.7      2.941      4.626
REMARK  Name = 
REMARK  2 active torsions:
REMARK  status: ('A' for Active; 'I' for Inactive)
REMARK    1  A    between atoms: C_3  and  O_4
REMARK    2  A    between atoms: C_5  and  C_6
REMARK                            x       y       z     vdW  Elec       q    Type
REMARK                         _______ _______ _______ _____ _____    ______ ____
ROOT
ATOM      1  O   UNL     1       2.347   5.607  20.908  0.00  0.00    +0.000 OA
ATOM      2  C   UNL     1       2.693   6.157  19.871  0.00  0.00    +0.000 A 
ATOM      3  C   UNL     1       3.659   5.475  18.983  0.00  0.00    +0.000 A 
ATOM      4  C   UNL     1       4.039   6.095  17.854  0.00  0.00    +0.000 A 
ATOM      5  O   UNL     1       3.593   7.345  17.451  0.00  0.00    +0.000 OA
ATOM      6  C   UNL     1       2.684   8.006  18.243  0.00  0.00    +0.000 A 
ATOM      7  C   UNL     1       2.249   9.256  17.796  0.00  0.00    +0.000 A 
ATOM      8  C   UNL     1       1.321  10.002  18.533  0.00  0.00    +0.000 A 
ATOM      9  C   UNL     1       0.864   9.435  19.722  0.00  0.00    +0.000 A 
ATOM     10  O   UNL     1      -0.037  10.003  20.571  0.00  0.00    +0.000 OA
ATOM     11  C   UNL     1      -0.213   9.136  21.602  0.00  0.00    +0.000 A 
ATOM     12  C   UNL     1       0.563   8.015  21.428  0.00  0.00    +0.000 A 
ATOM     13  C   UNL     1       1.271   8.195  20.206  0.00  0.00    +0.000 A 
ATOM     14  C   UNL     1       2.205   7.469  19.443  0.00  0.00    +0.000 A 
ENDROOT
BRANCH   4  15
ATOM     15  C   UNL     1       4.994   5.493  16.918  0.00  0.00    +0.000 A 
ATOM     16  C   UNL     1       4.567   4.546  15.978  0.00  0.00    +0.000 A 
ATOM     17  C   UNL     1       5.462   4.043  15.030  0.00  0.00    +0.000 A 
ATOM     18  C   UNL     1       6.789   4.472  15.028  0.00  0.00    +0.000 A 
ATOM     19  C   UNL     1       7.229   5.385  15.985  0.00  0.00    +0.000 A 
ATOM     20  C   UNL     1       6.335   5.895  16.928  0.00  0.00    +0.000 A 
ENDBRANCH   4  15
BRANCH   3  21
ATOM     21  O   UNL     1       4.119   4.233  19.380  0.00  0.00    +0.000 OA
ATOM     22  H   UNL     1       3.307   3.698  19.515  0.00  0.00    +0.000 HD
ENDBRANCH   3  21
TORSDOF 2
ENDMDL
MODEL 4
REMARK VINA RESULT:      -7.6      1.503      1.640
REMARK  Name = 
REMARK  2 active torsions:
REMARK  status: ('A' for Active; 'I' for Inactive)
REMARK    1  A    between atoms: C_3  and  O_4
REMARK    2  A    between atoms: C_5  and  C_6
REMARK                            x       y       z     vdW  Elec       q    Type
REMARK                         _______ _______ _______ _____ _____    ______ ____
ROOT
ATOM      1  O   UNL     1       6.100   4.487  19.474  0.00  0.00    +0.000 OA
ATOM      2  C   UNL     1       5.493   4.323  18.423  0.00  0.00    +0.000 A 
ATOM      3  C   UNL     1       6.236   4.384  17.146  0.00  0.00    +0.000 A 
ATOM      4  C   UNL     1       5.555   4.216  16.001  0.00  0.00    +0.000 A 
ATOM      5  O   UNL     1       4.189   3.989  15.920  0.00  0.00    +0.000 OA
ATOM      6  C   UNL     1       3.465   3.912  17.086  0.00  0.00    +0.000 A 
ATOM      7  C   UNL     1       2.095   3.669  16.963  0.00  0.00    +0.000 A 
ATOM      8  C   UNL     1       1.276   3.570  18.096  0.00  0.00    +0.000 A 
ATOM      9  C   UNL     1       1.898   3.727  19.334  0.00  0.00    +0.000 A 
ATOM     10  O   UNL     1       1.273   3.663  20.542  0.00  0.00    +0.000 OA
ATOM     11  C   UNL     1       2.224   3.866  21.491  0.00  0.00    +0.000 A 
ATOM     12  C   UNL     1       3.453   4.060  20.909  0.00  0.00    +0.000 A 
ATOM     13  C   UNL     1       3.257   3.972  19.503  0.00  0.00    +0.000 A 
ATOM     14  C   UNL     1       4.054   4.066  18.346  0.00  0.00    +0.000 A 
ENDROOT
BRANCH   4  15
ATOM     15  C   UNL     1       6.211   4.264  14.690  0.00  0.00    +0.000 A 
ATOM     16  C   UNL     1       5.772   3.441  13.645  0.00  0.00    +0.000 A 
ATOM     17  C   UNL     1       6.341   3.555  12.374  0.00  0.00    +0.000 A 
ATOM     18  C   UNL     1       7.360   4.479  12.146  0.00  0.00    +0.000 A 
ATOM     19  C   UNL     1       7.828   5.274  13.192  0.00  0.00    +0.000 A 
ATOM     20  C   UNL     1       7.256   5.167  14.461  0.00  0.00    +0.000 A 
ENDBRANCH   4  15
BRANCH   3  21
ATOM     21  O   UNL     1       7.596   4.621  17.214  0.00  0.00    +0.000 OA
ATOM     22  H   UNL     1       7.692   5.580  17.025  0.00  0.00    +0.000 HD
ENDBRANCH   3  21
TORSDOF 2
ENDMDL
MODEL 5
REMARK VINA RESULT:      -7.6      3.050      4.890
REMARK  Name = 
REMARK  2 active torsions:
REMARK  status: ('A' for Active; 'I' for Inactive)
REMARK    1  A    between atoms: C_3  and  O_4
REMARK    2  A    between atoms: C_5  and  C_6
REMARK                            x       y       z     vdW  Elec       q    Type
REMARK                         _______ _______ _______ _____ _____    ______ ____
ROOT
ATOM      1  O   UNL     1       2.194   5.743  20.957  0.00  0.00    +0.000 OA
ATOM      2  C   UNL     1       2.553   6.285  19.919  0.00  0.00    +0.000 A 
ATOM      3  C   UNL     1       3.521   5.590  19.043  0.00  0.00    +0.000 A 
ATOM      4  C   UNL     1       3.915   6.201  17.914  0.00  0.00    +0.000 A 
ATOM      5  O   UNL     1       3.483   7.452  17.501  0.00  0.00    +0.000 OA
ATOM      6  C   UNL     1       2.573   8.125  18.282  0.00  0.00    +0.000 A 
ATOM      7  C   UNL     1       2.153   9.377  17.825  0.00  0.00    +0.000 A 
ATOM      8  C   UNL     1       1.224  10.135  18.551  0.00  0.00    +0.000 A 
ATOM      9  C   UNL     1       0.753   9.577  19.738  0.00  0.00    +0.000 A 
ATOM     10  O   UNL     1      -0.150  10.158  20.577  0.00  0.00    +0.000 OA
ATOM     11  C   UNL     1      -0.342   9.297  21.611  0.00  0.00    +0.000 A 
ATOM     12  C   UNL     1       0.427   8.168  21.449  0.00  0.00    +0.000 A 
ATOM     13  C   UNL     1       1.145   8.336  20.232  0.00  0.00    +0.000 A 
ATOM     14  C   UNL     1       2.080   7.598  19.480  0.00  0.00    +0.000 A 
ENDROOT
BRANCH   4  15
ATOM     15  C   UNL     1       4.873   5.586  16.989  0.00  0.00    +0.000 A 
ATOM     16  C   UNL     1       6.144   6.146  16.806  0.00  0.00    +0.000 A 
ATOM     17  C   UNL     1       7.083   5.506  15.994  0.00  0.00    +0.000 A 
ATOM     18  C   UNL     1       6.752   4.314  15.349  0.00  0.00    +0.000 A 
ATOM     19  C   UNL     1       5.476   3.773  15.496  0.00  0.00    +0.000 A 
ATOM     20  C   UNL     1       4.538   4.406  16.314  0.00  0.00    +0.000 A 
ENDBRANCH   4  15
BRANCH   3  21
ATOM     21  O   UNL     1       3.967   4.347  19.450  0.00  0.00    +0.000 OA
ATOM     22  H   UNL     1       3.188   3.758  19.353  0.00  0.00    +0.000 HD
ENDBRANCH   3  21
TORSDOF 2
ENDMDL
MODEL 6
REMARK VINA RESULT:      -7.6      1.501      1.946
REMARK  Name = 
REMARK  2 active torsions:
REMARK  status: ('A' for Active; 'I' for Inactive)
REMARK    1  A    between atoms: C_3  and  O_4
REMARK    2  A    between atoms: C_5  and  C_6
REMARK                            x       y       z     vdW  Elec       q    Type
REMARK                         _______ _______ _______ _____ _____    ______ ____
ROOT
ATOM      1  O   UNL     1       6.089   4.417  19.477  0.00  0.00    +0.000 OA
ATOM      2  C   UNL     1       5.460   4.277  18.436  0.00  0.00    +0.000 A 
ATOM      3  C   UNL     1       6.172   4.392  17.145  0.00  0.00    +0.000 A 
ATOM      4  C   UNL     1       5.467   4.249  16.010  0.00  0.00    +0.000 A 
ATOM      5  O   UNL     1       4.104   4.001  15.954  0.00  0.00    +0.000 OA
ATOM      6  C   UNL     1       3.408   3.875  17.133  0.00  0.00    +0.000 A 
ATOM      7  C   UNL     1       2.040   3.613  17.034  0.00  0.00    +0.000 A 
ATOM      8  C   UNL     1       1.250   3.464  18.181  0.00  0.00    +0.000 A 
ATOM      9  C   UNL     1       1.897   3.591  19.409  0.00  0.00    +0.000 A 
ATOM     10  O   UNL     1       1.302   3.478  20.629  0.00  0.00    +0.000 OA
ATOM     11  C   UNL     1       2.272   3.667  21.562  0.00  0.00    +0.000 A 
ATOM     12  C   UNL     1       3.484   3.900  20.958  0.00  0.00    +0.000 A 
ATOM     13  C   UNL     1       3.257   3.854  19.555  0.00  0.00    +0.000 A 
ATOM     14  C   UNL     1       4.025   3.999  18.384  0.00  0.00    +0.000 A 
ENDROOT
BRANCH   4  15
ATOM     15  C   UNL     1       6.092   4.350  14.687  0.00  0.00    +0.000 A 
ATOM     16  C   UNL     1       7.163   5.226  14.472  0.00  0.00    +0.000 A 
ATOM     17  C   UNL     1       7.812   5.253  13.235  0.00  0.00    +0.000 A 
ATOM     18  C   UNL     1       7.384   4.416  12.205  0.00  0.00    +0.000 A 
ATOM     19  C   UNL     1       6.294   3.569  12.401  0.00  0.00    +0.000 A 
ATOM     20  C   UNL     1       5.649   3.536  13.638  0.00  0.00    +0.000 A 
ENDBRANCH   4  15
BRANCH   3  21
ATOM     21  O   UNL     1       7.529   4.650  17.188  0.00  0.00    +0.000 OA
ATOM     22  H   UNL     1       7.683   5.024  18.083  0.00  0.00    +0.000 HD
ENDBRANCH   3  21
TORSDOF 2
ENDMDL
MODEL 7
REMARK VINA RESULT:      -7.4      5.036      7.153
REMARK  Name = 
REMARK  2 active torsions:
REMARK  status: ('A' for Active; 'I' for Inactive)
REMARK    1  A    between atoms: C_3  and  O_4
REMARK    2  A    between atoms: C_5  and  C_6
REMARK                            x       y       z     vdW  Elec       q    Type
REMARK                         _______ _______ _______ _____ _____    ______ ____
ROOT
ATOM      1  O   UNL     1       0.476  11.436  18.535  0.00  0.00    +0.000 OA
ATOM      2  C   UNL     1       0.810  10.413  19.117  0.00  0.00    +0.000 A 
ATOM      3  C   UNL     1       1.556   9.374  18.375  0.00  0.00    +0.000 A 
ATOM      4  C   UNL     1       1.906   8.251  19.022  0.00  0.00    +0.000 A 
ATOM      5  O   UNL     1       1.616   7.983  20.352  0.00  0.00    +0.000 OA
ATOM      6  C   UNL     1       0.935   8.929  21.080  0.00  0.00    +0.000 A 
ATOM      7  C   UNL     1       0.673   8.627  22.419  0.00  0.00    +0.000 A 
ATOM      8  C   UNL     1      -0.011   9.532  23.241  0.00  0.00    +0.000 A 
ATOM      9  C   UNL     1      -0.412  10.732  22.655  0.00  0.00    +0.000 A 
ATOM     10  O   UNL     1      -1.084  11.733  23.290  0.00  0.00    +0.000 OA
ATOM     11  C   UNL     1      -1.281  12.719  22.376  0.00  0.00    +0.000 A 
ATOM     12  C   UNL     1      -0.746  12.366  21.160  0.00  0.00    +0.000 A 
ATOM     13  C   UNL     1      -0.174  11.073  21.327  0.00  0.00    +0.000 A 
ATOM     14  C   UNL     1       0.516  10.144  20.525  0.00  0.00    +0.000 A 
ENDROOT
BRANCH   4  15
ATOM     15  C   UNL     1       2.645   7.169  18.363  0.00  0.00    +0.000 A 
ATOM     16  C   UNL     1       3.881   7.421  17.753  0.00  0.00    +0.000 A 
ATOM     17  C   UNL     1       4.622   6.371  17.206  0.00  0.00    +0.000 A 
ATOM     18  C   UNL     1       4.125   5.069  17.251  0.00  0.00    +0.000 A 
ATOM     19  C   UNL     1       2.878   4.817  17.823  0.00  0.00    +0.000 A 
ATOM     20  C   UNL     1       2.140   5.864  18.377  0.00  0.00    +0.000 A 
ENDBRANCH   4  15
BRANCH   3  21
ATOM     21  O   UNL     1       1.842   9.625  17.046  0.00  0.00    +0.000 OA
ATOM     22  H   UNL     1       2.364   8.848  16.751  0.00  0.00    +0.000 HD
ENDBRANCH   3  21
TORSDOF 2
ENDMDL
MODEL 8
REMARK VINA RESULT:      -7.4      3.739      7.701
REMARK  Name = 
REMARK  2 active torsions:
REMARK  status: ('A' for Active; 'I' for Inactive)
REMARK    1  A    between atoms: C_3  and  O_4
REMARK    2  A    between atoms: C_5  and  C_6
REMARK                            x       y       z     vdW  Elec       q    Type
REMARK                         _______ _______ _______ _____ _____    ______ ____
ROOT
ATOM      1  O   UNL     1       3.080   7.856  17.334  0.00  0.00    +0.000 OA
ATOM      2  C   UNL     1       2.567   7.582  18.410  0.00  0.00    +0.000 A 
ATOM      3  C   UNL     1       1.823   8.631  19.141  0.00  0.00    +0.000 A 
ATOM      4  C   UNL     1       1.275   8.319  20.327  0.00  0.00    +0.000 A 
ATOM      5  O   UNL     1       1.355   7.074  20.931  0.00  0.00    +0.000 OA
ATOM      6  C   UNL     1       2.027   6.068  20.277  0.00  0.00    +0.000 A 
ATOM      7  C   UNL     1       2.074   4.824  20.912  0.00  0.00    +0.000 A 
ATOM      8  C   UNL     1       2.732   3.737  20.321  0.00  0.00    +0.000 A 
ATOM      9  C   UNL     1       3.329   3.965  19.082  0.00  0.00    +0.000 A 
ATOM     10  O   UNL     1       4.009   3.038  18.353  0.00  0.00    +0.000 OA
ATOM     11  C   UNL     1       4.429   3.655  17.218  0.00  0.00    +0.000 A 
ATOM     12  C   UNL     1       4.027   4.969  17.206  0.00  0.00    +0.000 A 
ATOM     13  C   UNL     1       3.308   5.187  18.415  0.00  0.00    +0.000 A 
ATOM     14  C   UNL     1       2.640   6.260  19.034  0.00  0.00    +0.000 A 
ENDROOT
BRANCH   4  15
ATOM     15  C   UNL     1       0.524   9.299  21.119  0.00  0.00    +0.000 A 
ATOM     16  C   UNL     1      -0.104  10.385  20.497  0.00  0.00    +0.000 A 
ATOM     17  C   UNL     1      -0.893  11.263  21.244  0.00  0.00    +0.000 A 
ATOM     18  C   UNL     1      -1.044  11.070  22.616  0.00  0.00    +0.000 A 
ATOM     19  C   UNL     1      -0.390  10.013  23.248  0.00  0.00    +0.000 A 
ATOM     20  C   UNL     1       0.392   9.129  22.503  0.00  0.00    +0.000 A 
ENDBRANCH   4  15
BRANCH   3  21
ATOM     21  O   UNL     1       1.746   9.880  18.554  0.00  0.00    +0.000 OA
ATOM     22  H   UNL     1       2.433   9.869  17.852  0.00  0.00    +0.000 HD
ENDBRANCH   3  21
TORSDOF 2
ENDMDL
MODEL 9
REMARK VINA RESULT:      -7.4      3.372      6.998
REMARK  Name = 
REMARK  2 active torsions:
REMARK  status: ('A' for Active; 'I' for Inactive)
REMARK    1  A    between atoms: C_3  and  O_4
REMARK    2  A    between atoms: C_5  and  C_6
REMARK                            x       y       z     vdW  Elec       q    Type
REMARK                         _______ _______ _______ _____ _____    ______ ____
ROOT
ATOM      1  O   UNL     1       3.595   6.198  17.352  0.00  0.00    +0.000 OA
ATOM      2  C   UNL     1       2.929   6.189  18.379  0.00  0.00    +0.000 A 
ATOM      3  C   UNL     1       2.408   7.468  18.909  0.00  0.00    +0.000 A 
ATOM      4  C   UNL     1       1.690   7.445  20.044  0.00  0.00    +0.000 A 
ATOM      5  O   UNL     1       1.397   6.301  20.770  0.00  0.00    +0.000 OA
ATOM      6  C   UNL     1       1.853   5.090  20.304  0.00  0.00    +0.000 A 
ATOM      7  C   UNL     1       1.526   3.960  21.056  0.00  0.00    +0.000 A 
ATOM      8  C   UNL     1       1.942   2.683  20.657  0.00  0.00    +0.000 A 
ATOM      9  C   UNL     1       2.691   2.607  19.484  0.00  0.00    +0.000 A 
ATOM     10  O   UNL     1       3.182   1.460  18.937  0.00  0.00    +0.000 OA
ATOM     11  C   UNL     1       3.849   1.815  17.807  0.00  0.00    +0.000 A 
ATOM     12  C   UNL     1       3.793   3.175  17.619  0.00  0.00    +0.000 A 
ATOM     13  C   UNL     1       3.042   3.705  18.705  0.00  0.00    +0.000 A 
ATOM     14  C   UNL     1       2.609   4.975  19.131  0.00  0.00    +0.000 A 
ENDROOT
BRANCH   4  15
ATOM     15  C   UNL     1       1.138   8.666  20.641  0.00  0.00    +0.000 A 
ATOM     16  C   UNL     1       0.637   9.691  19.827  0.00  0.00    +0.000 A 
ATOM     17  C   UNL     1       0.031  10.810  20.402  0.00  0.00    +0.000 A 
ATOM     18  C   UNL     1      -0.064  10.918  21.789  0.00  0.00    +0.000 A 
ATOM     19  C   UNL     1       0.466   9.919  22.604  0.00  0.00    +0.000 A 
ATOM     20  C   UNL     1       1.066   8.796  22.033  0.00  0.00    +0.000 A 
ENDBRANCH   4  15
BRANCH   3  21
ATOM     21  O   UNL     1       2.703   8.616  18.199  0.00  0.00    +0.000 OA
ATOM     22  H   UNL     1       2.437   8.414  17.276  0.00  0.00    +0.000 HD
ENDBRANCH   3  21
TORSDOF 2
ENDMDL
