MODEL 1
REMARK VINA RESULT:      -8.1      0.000      0.000
REMARK  Name = 
REMARK  7 active torsions:
REMARK  status: ('A' for Active; 'I' for Inactive)
REMARK    1  A    between atoms: C_1  and  S_2
REMARK    2  A    between atoms: S_2  and  N_5
REMARK    3  A    between atoms: N_5  and  C_6
REMARK    4  A    between atoms: C_9  and  N_10
REMARK    5  A    between atoms: N_13  and  C_14
REMARK    6  A    between atoms: C_14  and  C_15
REMARK    7  A    between atoms: N_17  and  C_18
REMARK                            x       y       z     vdW  Elec       q    Type
REMARK                         _______ _______ _______ _____ _____    ______ ____
ROOT
ATOM      1  N   UNL     1       4.021   5.848  17.813  0.00  0.00    +0.000 N 
ATOM      2  N   UNL     1       3.585   4.646  17.309  0.00  0.00    +0.000 NA
ATOM      3  N   UNL     1       4.534   4.091  16.672  0.00  0.00    +0.000 NA
ATOM      4  N   UNL     1       5.629   4.901  16.717  0.00  0.00    +0.000 N 
ATOM      5  C   UNL     1       5.354   6.030  17.463  0.00  0.00    +0.000 A 
ATOM      6  O   UNL     1       6.123   6.945  17.708  0.00  0.00    +0.000 OA
ENDROOT
BRANCH   1  10
ATOM      7  C   UNL     1       1.485   8.739  19.533  0.00  0.00    +0.000 A 
ATOM      8  C   UNL     1       1.799   7.582  20.235  0.00  0.00    +0.000 A 
ATOM      9  C   UNL     1       2.584   6.593  19.638  0.00  0.00    +0.000 A 
ATOM     10  C   UNL     1       3.105   6.771  18.349  0.00  0.00    +0.000 A 
ATOM     11  C   UNL     1       2.753   7.930  17.640  0.00  0.00    +0.000 A 
ATOM     12  C   UNL     1       1.940   8.908  18.226  0.00  0.00    +0.000 A 
BRANCH   7  13
ATOM     13  N   UNL     1       0.789   9.784  20.205  0.00  0.00    +0.000 N 
ATOM     14  H   UNL     1       1.240  10.701  20.170  0.00  0.00    +0.000 HD
BRANCH  13  16
ATOM     15  C   UNL     1      -0.558  10.968  22.218  0.00  0.00    +0.000 C 
ATOM     16  S   UNL     1       0.313   9.472  21.803  0.00  0.00    +0.000 S 
ATOM     17  O   UNL     1       1.539   9.449  22.573  0.00  0.00    +0.000 OA
ATOM     18  O   UNL     1      -0.614   8.362  21.842  0.00  0.00    +0.000 OA
ENDBRANCH  13  16
ENDBRANCH   7  13
ENDBRANCH   1  10
BRANCH   4  19
ATOM     19  C   UNL     1       6.898   4.551  16.136  0.00  0.00    +0.000 C 
BRANCH  19  20
ATOM     20  C   UNL     1       6.966   4.552  14.608  0.00  0.00    +0.000 C 
ATOM     21  O   UNL     1       7.674   5.374  14.024  0.00  0.00    +0.000 OA
ATOM     22  N   UNL     1       6.207   3.620  13.933  0.00  0.00    +0.000 N 
ATOM     23  H   UNL     1       5.580   3.017  14.449  0.00  0.00    +0.000 HD
BRANCH  22  24
ATOM     24  C   UNL     1       6.151   3.611  12.499  0.00  0.00    +0.000 C 
ATOM     25  C   UNL     1       6.101   2.311  11.742  0.00  0.00    +0.000 C 
ATOM     26  C   UNL     1       4.907   3.217  11.753  0.00  0.00    +0.000 C 
ENDBRANCH  22  24
ENDBRANCH  19  20
ENDBRANCH   4  19
TORSDOF 6
ENDMDL
MODEL 2
REMARK VINA RESULT:      -8.0      0.345      1.042
REMARK  Name = 
REMARK  7 active torsions:
REMARK  status: ('A' for Active; 'I' for Inactive)
REMARK    1  A    between atoms: C_1  and  S_2
REMARK    2  A    between atoms: S_2  and  N_5
REMARK    3  A    between atoms: N_5  and  C_6
REMARK    4  A    between atoms: C_9  and  N_10
REMARK    5  A    between atoms: N_13  and  C_14
REMARK    6  A    between atoms: C_14  and  C_15
REMARK    7  A    between atoms: N_17  and  C_18
REMARK                            x       y       z     vdW  Elec       q    Type
REMARK                         _______ _______ _______ _____ _____    ______ ____
ROOT
ATOM      1  N   UNL     1       4.145   5.912  17.818  0.00  0.00    +0.000 N 
ATOM      2  N   UNL     1       3.637   4.709  17.388  0.00  0.00    +0.000 NA
ATOM      3  N   UNL     1       4.516   4.107  16.696  0.00  0.00    +0.000 NA
ATOM      4  N   UNL     1       5.633   4.886  16.628  0.00  0.00    +0.000 N 
ATOM      5  C   UNL     1       5.451   6.044  17.358  0.00  0.00    +0.000 A 
ATOM      6  O   UNL     1       6.262   6.941  17.513  0.00  0.00    +0.000 OA
ENDROOT
BRANCH   1  10
ATOM      7  C   UNL     1       1.412   8.688  19.421  0.00  0.00    +0.000 A 
ATOM      8  C   UNL     1       2.038   8.948  18.207  0.00  0.00    +0.000 A 
ATOM      9  C   UNL     1       2.994   8.060  17.710  0.00  0.00    +0.000 A 
ATOM     10  C   UNL     1       3.301   6.877  18.396  0.00  0.00    +0.000 A 
ATOM     11  C   UNL     1       2.685   6.644  19.636  0.00  0.00    +0.000 A 
ATOM     12  C   UNL     1       1.749   7.550  20.151  0.00  0.00    +0.000 A 
BRANCH   7  13
ATOM     13  N   UNL     1       0.354   9.542  19.846  0.00  0.00    +0.000 N 
ATOM     14  H   UNL     1       0.329  10.460  19.396  0.00  0.00    +0.000 HD
BRANCH  13  16
ATOM     15  C   UNL     1      -0.851  11.203  21.593  0.00  0.00    +0.000 C 
ATOM     16  S   UNL     1       0.173   9.750  21.520  0.00  0.00    +0.000 S 
ATOM     17  O   UNL     1       1.486  10.112  22.007  0.00  0.00    +0.000 OA
ATOM     18  O   UNL     1      -0.553   8.633  22.087  0.00  0.00    +0.000 OA
ENDBRANCH  13  16
ENDBRANCH   7  13
ENDBRANCH   1  10
BRANCH   4  19
ATOM     19  C   UNL     1       6.841   4.481  15.960  0.00  0.00    +0.000 C 
BRANCH  19  20
ATOM     20  C   UNL     1       6.808   4.501  14.430  0.00  0.00    +0.000 C 
ATOM     21  O   UNL     1       7.377   5.403  13.815  0.00  0.00    +0.000 OA
ATOM     22  N   UNL     1       6.117   3.492  13.792  0.00  0.00    +0.000 N 
ATOM     23  H   UNL     1       5.598   2.818  14.339  0.00  0.00    +0.000 HD
BRANCH  22  24
ATOM     24  C   UNL     1       5.968   3.488  12.365  0.00  0.00    +0.000 C 
ATOM     25  C   UNL     1       5.741   2.198  11.623  0.00  0.00    +0.000 C 
ATOM     26  C   UNL     1       4.645   3.220  11.704  0.00  0.00    +0.000 C 
ENDBRANCH  22  24
ENDBRANCH  19  20
ENDBRANCH   4  19
TORSDOF 6
ENDMDL
MODEL 3
REMARK VINA RESULT:      -7.7      1.561      1.601
REMARK  Name = 
REMARK  7 active torsions:
REMARK  status: ('A' for Active; 'I' for Inactive)
REMARK    1  A    between atoms: C_1  and  S_2
REMARK    2  A    between atoms: S_2  and  N_5
REMARK    3  A    between atoms: N_5  and  C_6
REMARK    4  A    between atoms: C_9  and  N_10
REMARK    5  A    between atoms: N_13  and  C_14
REMARK    6  A    between atoms: C_14  and  C_15
REMARK    7  A    between atoms: N_17  and  C_18
REMARK                            x       y       z     vdW  Elec       q    Type
REMARK                         _______ _______ _______ _____ _____    ______ ____
ROOT
ATOM      1  N   UNL     1       3.443   6.029  18.000  0.00  0.00    +0.000 N 
ATOM      2  N   UNL     1       2.836   4.832  17.704  0.00  0.00    +0.000 NA
ATOM      3  N   UNL     1       3.662   4.084  17.094  0.00  0.00    +0.000 NA
ATOM      4  N   UNL     1       4.842   4.753  16.952  0.00  0.00    +0.000 N 
ATOM      5  C   UNL     1       4.757   5.998  17.543  0.00  0.00    +0.000 A 
ATOM      6  O   UNL     1       5.640   6.836  17.604  0.00  0.00    +0.000 OA
ENDROOT
BRANCH   1  10
ATOM      7  C   UNL     1       1.393   9.409  19.457  0.00  0.00    +0.000 A 
ATOM      8  C   UNL     1       1.575   8.299  20.274  0.00  0.00    +0.000 A 
ATOM      9  C   UNL     1       2.195   7.154  19.768  0.00  0.00    +0.000 A 
ATOM     10  C   UNL     1       2.683   7.121  18.455  0.00  0.00    +0.000 A 
ATOM     11  C   UNL     1       2.463   8.237  17.632  0.00  0.00    +0.000 A 
ATOM     12  C   UNL     1       1.814   9.375  18.128  0.00  0.00    +0.000 A 
BRANCH   7  13
ATOM     13  N   UNL     1       0.872  10.605  20.028  0.00  0.00    +0.000 N 
ATOM     14  H   UNL     1       0.972  10.682  21.042  0.00  0.00    +0.000 HD
BRANCH  13  16
ATOM     15  C   UNL     1      -0.453  12.410  18.528  0.00  0.00    +0.000 C 
ATOM     16  S   UNL     1      -0.718  11.017  19.604  0.00  0.00    +0.000 S 
ATOM     17  O   UNL     1      -1.326  11.512  20.821  0.00  0.00    +0.000 OA
ATOM     18  O   UNL     1      -1.328   9.946  18.845  0.00  0.00    +0.000 OA
ENDBRANCH  13  16
ENDBRANCH   7  13
ENDBRANCH   1  10
BRANCH   4  19
ATOM     19  C   UNL     1       6.013   4.175  16.348  0.00  0.00    +0.000 C 
BRANCH  19  20
ATOM     20  C   UNL     1       6.180   4.401  14.844  0.00  0.00    +0.000 C 
ATOM     21  O   UNL     1       6.404   5.533  14.413  0.00  0.00    +0.000 OA
ATOM     22  N   UNL     1       6.060   3.305  14.015  0.00  0.00    +0.000 N 
ATOM     23  H   UNL     1       5.797   2.410  14.405  0.00  0.00    +0.000 HD
BRANCH  22  24
ATOM     24  C   UNL     1       6.118   3.448  12.589  0.00  0.00    +0.000 C 
ATOM     25  C   UNL     1       5.957   2.250  11.691  0.00  0.00    +0.000 C 
ATOM     26  C   UNL     1       4.897   3.311  11.723  0.00  0.00    +0.000 C 
ENDBRANCH  22  24
ENDBRANCH  19  20
ENDBRANCH   4  19
TORSDOF 6
ENDMDL
MODEL 4
REMARK VINA RESULT:      -7.7      1.259      1.528
REMARK  Name = 
REMARK  7 active torsions:
REMARK  status: ('A' for Active; 'I' for Inactive)
REMARK    1  A    between atoms: C_1  and  S_2
REMARK    2  A    between atoms: S_2  and  N_5
REMARK    3  A    between atoms: N_5  and  C_6
REMARK    4  A    between atoms: C_9  and  N_10
REMARK    5  A    between atoms: N_13  and  C_14
REMARK    6  A    between atoms: C_14  and  C_15
REMARK    7  A    between atoms: N_17  and  C_18
REMARK                            x       y       z     vdW  Elec       q    Type
REMARK                         _______ _______ _______ _____ _____    ______ ____
ROOT
ATOM      1  N   UNL     1       4.300   6.672  17.506  0.00  0.00    +0.000 N 
ATOM      2  N   UNL     1       5.397   7.481  17.326  0.00  0.00    +0.000 NA
ATOM      3  N   UNL     1       6.340   6.800  16.814  0.00  0.00    +0.000 NA
ATOM      4  N   UNL     1       5.914   5.516  16.644  0.00  0.00    +0.000 N 
ATOM      5  C   UNL     1       4.600   5.393  17.051  0.00  0.00    +0.000 A 
ATOM      6  O   UNL     1       3.921   4.381  17.016  0.00  0.00    +0.000 OA
ENDROOT
BRANCH   1  10
ATOM      7  C   UNL     1       1.201   8.124  19.963  0.00  0.00    +0.000 A 
ATOM      8  C   UNL     1       1.841   6.932  20.280  0.00  0.00    +0.000 A 
ATOM      9  C   UNL     1       2.821   6.417  19.429  0.00  0.00    +0.000 A 
ATOM     10  C   UNL     1       3.208   7.112  18.275  0.00  0.00    +0.000 A 
ATOM     11  C   UNL     1       2.530   8.298  17.951  0.00  0.00    +0.000 A 
ATOM     12  C   UNL     1       1.526   8.799  18.787  0.00  0.00    +0.000 A 
BRANCH   7  13
ATOM     13  N   UNL     1       0.296   8.691  20.905  0.00  0.00    +0.000 N 
ATOM     14  H   UNL     1      -0.581   9.036  20.512  0.00  0.00    +0.000 HD
BRANCH  13  16
ATOM     15  C   UNL     1      -0.456  10.177  23.025  0.00  0.00    +0.000 C 
ATOM     16  S   UNL     1       0.928   9.871  21.948  0.00  0.00    +0.000 S 
ATOM     17  O   UNL     1       1.116  11.049  21.128  0.00  0.00    +0.000 OA
ATOM     18  O   UNL     1       2.017   9.320  22.726  0.00  0.00    +0.000 OA
ENDBRANCH  13  16
ENDBRANCH   7  13
ENDBRANCH   1  10
BRANCH   4  19
ATOM     19  C   UNL     1       6.720   4.489  16.040  0.00  0.00    +0.000 C 
BRANCH  19  20
ATOM     20  C   UNL     1       6.786   4.492  14.511  0.00  0.00    +0.000 C 
ATOM     21  O   UNL     1       7.405   5.380  13.924  0.00  0.00    +0.000 OA
ATOM     22  N   UNL     1       6.125   3.484  13.840  0.00  0.00    +0.000 N 
ATOM     23  H   UNL     1       5.563   2.822  14.359  0.00  0.00    +0.000 HD
BRANCH  22  24
ATOM     24  C   UNL     1       6.069   3.466  12.406  0.00  0.00    +0.000 C 
ATOM     25  C   UNL     1       5.793   2.184  11.667  0.00  0.00    +0.000 C 
ATOM     26  C   UNL     1       4.775   3.285  11.663  0.00  0.00    +0.000 C 
ENDBRANCH  22  24
ENDBRANCH  19  20
ENDBRANCH   4  19
TORSDOF 6
ENDMDL
MODEL 5
REMARK VINA RESULT:      -7.4      1.012      1.247
REMARK  Name = 
REMARK  7 active torsions:
REMARK  status: ('A' for Active; 'I' for Inactive)
REMARK    1  A    between atoms: C_1  and  S_2
REMARK    2  A    between atoms: S_2  and  N_5
REMARK    3  A    between atoms: N_5  and  C_6
REMARK    4  A    between atoms: C_9  and  N_10
REMARK    5  A    between atoms: N_13  and  C_14
REMARK    6  A    between atoms: C_14  and  C_15
REMARK    7  A    between atoms: N_17  and  C_18
REMARK                            x       y       z     vdW  Elec       q    Type
REMARK                         _______ _______ _______ _____ _____    ______ ____
ROOT
ATOM      1  N   UNL     1       4.065   5.146  18.199  0.00  0.00    +0.000 N 
ATOM      2  N   UNL     1       3.781   4.004  17.488  0.00  0.00    +0.000 NA
ATOM      3  N   UNL     1       4.775   3.710  16.754  0.00  0.00    +0.000 NA
ATOM      4  N   UNL     1       5.751   4.644  16.936  0.00  0.00    +0.000 N 
ATOM      5  C   UNL     1       5.349   5.573  17.877  0.00  0.00    +0.000 A 
ATOM      6  O   UNL     1       5.994   6.527  18.277  0.00  0.00    +0.000 OA
ENDROOT
BRANCH   1  10
ATOM      7  C   UNL     1       1.213   7.247  20.478  0.00  0.00    +0.000 A 
ATOM      8  C   UNL     1       1.494   5.918  20.769  0.00  0.00    +0.000 A 
ATOM      9  C   UNL     1       2.390   5.202  19.970  0.00  0.00    +0.000 A 
ATOM     10  C   UNL     1       3.051   5.821  18.901  0.00  0.00    +0.000 A 
ATOM     11  C   UNL     1       2.732   7.154  18.599  0.00  0.00    +0.000 A 
ATOM     12  C   UNL     1       1.811   7.863  19.379  0.00  0.00    +0.000 A 
BRANCH   7  13
ATOM     13  N   UNL     1       0.394   7.989  21.376  0.00  0.00    +0.000 N 
ATOM     14  H   UNL     1      -0.582   8.092  21.091  0.00  0.00    +0.000 HD
BRANCH  13  16
ATOM     15  C   UNL     1      -0.295  10.044  22.979  0.00  0.00    +0.000 C 
ATOM     16  S   UNL     1       0.983   9.504  21.864  0.00  0.00    +0.000 S 
ATOM     17  O   UNL     1       0.919  10.340  20.684  0.00  0.00    +0.000 OA
ATOM     18  O   UNL     1       2.217   9.347  22.603  0.00  0.00    +0.000 OA
ENDBRANCH  13  16
ENDBRANCH   7  13
ENDBRANCH   1  10
BRANCH   4  19
ATOM     19  C   UNL     1       7.035   4.585  16.291  0.00  0.00    +0.000 C 
BRANCH  19  20
ATOM     20  C   UNL     1       7.027   4.624  14.762  0.00  0.00    +0.000 C 
ATOM     21  O   UNL     1       7.629   5.519  14.167  0.00  0.00    +0.000 OA
ATOM     22  N   UNL     1       6.323   3.641  14.100  0.00  0.00    +0.000 N 
ATOM     23  H   UNL     1       5.779   2.973  14.630  0.00  0.00    +0.000 HD
BRANCH  22  24
ATOM     24  C   UNL     1       6.197   3.658  12.671  0.00  0.00    +0.000 C 
ATOM     25  C   UNL     1       5.932   2.386  11.910  0.00  0.00    +0.000 C 
ATOM     26  C   UNL     1       4.876   3.448  11.985  0.00  0.00    +0.000 C 
ENDBRANCH  22  24
ENDBRANCH  19  20
ENDBRANCH   4  19
TORSDOF 6
ENDMDL
MODEL 6
REMARK VINA RESULT:      -7.4      3.342      8.425
REMARK  Name = 
REMARK  7 active torsions:
REMARK  status: ('A' for Active; 'I' for Inactive)
REMARK    1  A    between atoms: C_1  and  S_2
REMARK    2  A    between atoms: S_2  and  N_5
REMARK    3  A    between atoms: N_5  and  C_6
REMARK    4  A    between atoms: C_9  and  N_10
REMARK    5  A    between atoms: N_13  and  C_14
REMARK    6  A    between atoms: C_14  and  C_15
REMARK    7  A    between atoms: N_17  and  C_18
REMARK                            x       y       z     vdW  Elec       q    Type
REMARK                         _______ _______ _______ _____ _____    ______ ____
ROOT
ATOM      1  N   UNL     1       2.013   7.495  19.505  0.00  0.00    +0.000 N 
ATOM      2  N   UNL     1       1.470   7.390  20.763  0.00  0.00    +0.000 NA
ATOM      3  N   UNL     1       0.963   8.506  21.095  0.00  0.00    +0.000 NA
ATOM      4  N   UNL     1       1.155   9.397  20.080  0.00  0.00    +0.000 N 
ATOM      5  C   UNL     1       1.803   8.784  19.026  0.00  0.00    +0.000 A 
ATOM      6  O   UNL     1       2.110   9.298  17.964  0.00  0.00    +0.000 OA
ENDROOT
BRANCH   1  10
ATOM      7  C   UNL     1       4.615   4.640  17.826  0.00  0.00    +0.000 A 
ATOM      8  C   UNL     1       3.360   4.850  17.268  0.00  0.00    +0.000 A 
ATOM      9  C   UNL     1       2.472   5.748  17.866  0.00  0.00    +0.000 A 
ATOM     10  C   UNL     1       2.846   6.481  19.000  0.00  0.00    +0.000 A 
ATOM     11  C   UNL     1       4.105   6.233  19.570  0.00  0.00    +0.000 A 
ATOM     12  C   UNL     1       4.984   5.311  18.990  0.00  0.00    +0.000 A 
BRANCH   7  13
ATOM     13  N   UNL     1       5.546   3.815  17.131  0.00  0.00    +0.000 N 
ATOM     14  H   UNL     1       6.032   3.126  17.708  0.00  0.00    +0.000 HD
BRANCH  13  16
ATOM     15  C   UNL     1       6.394   3.856  14.573  0.00  0.00    +0.000 C 
ATOM     16  S   UNL     1       6.685   4.611  16.158  0.00  0.00    +0.000 S 
ATOM     17  O   UNL     1       7.977   4.160  16.629  0.00  0.00    +0.000 OA
ATOM     18  O   UNL     1       6.371   6.022  16.072  0.00  0.00    +0.000 OA
ENDBRANCH  13  16
ENDBRANCH   7  13
ENDBRANCH   1  10
BRANCH   4  19
ATOM     19  C   UNL     1       0.658  10.747  20.107  0.00  0.00    +0.000 C 
BRANCH  19  20
ATOM     20  C   UNL     1      -0.697  10.983  19.437  0.00  0.00    +0.000 C 
ATOM     21  O   UNL     1      -1.630  11.457  20.087  0.00  0.00    +0.000 OA
ATOM     22  N   UNL     1      -0.823  10.638  18.108  0.00  0.00    +0.000 N 
ATOM     23  H   UNL     1      -0.055  10.179  17.636  0.00  0.00    +0.000 HD
BRANCH  22  24
ATOM     24  C   UNL     1      -2.083  10.749  17.432  0.00  0.00    +0.000 C 
ATOM     25  C   UNL     1      -2.381   9.904  16.222  0.00  0.00    +0.000 C 
ATOM     26  C   UNL     1      -3.123   9.666  17.503  0.00  0.00    +0.000 C 
ENDBRANCH  22  24
ENDBRANCH  19  20
ENDBRANCH   4  19
TORSDOF 6
ENDMDL
MODEL 7
REMARK VINA RESULT:      -7.3      1.691      2.030
REMARK  Name = 
REMARK  7 active torsions:
REMARK  status: ('A' for Active; 'I' for Inactive)
REMARK    1  A    between atoms: C_1  and  S_2
REMARK    2  A    between atoms: S_2  and  N_5
REMARK    3  A    between atoms: N_5  and  C_6
REMARK    4  A    between atoms: C_9  and  N_10
REMARK    5  A    between atoms: N_13  and  C_14
REMARK    6  A    between atoms: C_14  and  C_15
REMARK    7  A    between atoms: N_17  and  C_18
REMARK                            x       y       z     vdW  Elec       q    Type
REMARK                         _______ _______ _______ _____ _____    ______ ____
ROOT
ATOM      1  N   UNL     1       3.437   6.260  18.091  0.00  0.00    +0.000 N 
ATOM      2  N   UNL     1       2.816   5.052  17.880  0.00  0.00    +0.000 NA
ATOM      3  N   UNL     1       3.635   4.249  17.334  0.00  0.00    +0.000 NA
ATOM      4  N   UNL     1       4.825   4.891  17.150  0.00  0.00    +0.000 N 
ATOM      5  C   UNL     1       4.752   6.177  17.646  0.00  0.00    +0.000 A 
ATOM      6  O   UNL     1       5.646   7.007  17.649  0.00  0.00    +0.000 OA
ENDROOT
BRANCH   1  10
ATOM      7  C   UNL     1       0.975   9.525  19.103  0.00  0.00    +0.000 A 
ATOM      8  C   UNL     1       1.532   9.440  17.832  0.00  0.00    +0.000 A 
ATOM      9  C   UNL     1       2.402   8.393  17.519  0.00  0.00    +0.000 A 
ATOM     10  C   UNL     1       2.689   7.392  18.457  0.00  0.00    +0.000 A 
ATOM     11  C   UNL     1       2.145   7.509  19.747  0.00  0.00    +0.000 A 
ATOM     12  C   UNL     1       1.298   8.576  20.071  0.00  0.00    +0.000 A 
BRANCH   7  13
ATOM     13  N   UNL     1      -0.002  10.528  19.360  0.00  0.00    +0.000 N 
ATOM     14  H   UNL     1      -0.699  10.655  18.623  0.00  0.00    +0.000 HD
BRANCH  13  16
ATOM     15  C   UNL     1      -0.332  13.133  18.748  0.00  0.00    +0.000 C 
ATOM     16  S   UNL     1       0.579  12.052  19.829  0.00  0.00    +0.000 S 
ATOM     17  O   UNL     1       1.965  12.080  19.412  0.00  0.00    +0.000 OA
ATOM     18  O   UNL     1       0.205  12.330  21.199  0.00  0.00    +0.000 OA
ENDBRANCH  13  16
ENDBRANCH   7  13
ENDBRANCH   1  10
BRANCH   4  19
ATOM     19  C   UNL     1       5.991   4.254  16.598  0.00  0.00    +0.000 C 
BRANCH  19  20
ATOM     20  C   UNL     1       6.252   4.492  15.109  0.00  0.00    +0.000 C 
ATOM     21  O   UNL     1       6.844   5.507  14.743  0.00  0.00    +0.000 OA
ATOM     22  N   UNL     1       5.792   3.543  14.220  0.00  0.00    +0.000 N 
ATOM     23  H   UNL     1       5.241   2.765  14.559  0.00  0.00    +0.000 HD
BRANCH  22  24
ATOM     24  C   UNL     1       5.922   3.734  12.804  0.00  0.00    +0.000 C 
ATOM     25  C   UNL     1       6.109   2.556  11.886  0.00  0.00    +0.000 C 
ATOM     26  C   UNL     1       4.833   3.343  11.845  0.00  0.00    +0.000 C 
ENDBRANCH  22  24
ENDBRANCH  19  20
ENDBRANCH   4  19
TORSDOF 6
ENDMDL
MODEL 8
REMARK VINA RESULT:      -7.2      2.225      3.332
REMARK  Name = 
REMARK  7 active torsions:
REMARK  status: ('A' for Active; 'I' for Inactive)
REMARK    1  A    between atoms: C_1  and  S_2
REMARK    2  A    between atoms: S_2  and  N_5
REMARK    3  A    between atoms: N_5  and  C_6
REMARK    4  A    between atoms: C_9  and  N_10
REMARK    5  A    between atoms: N_13  and  C_14
REMARK    6  A    between atoms: C_14  and  C_15
REMARK    7  A    between atoms: N_17  and  C_18
REMARK                            x       y       z     vdW  Elec       q    Type
REMARK                         _______ _______ _______ _____ _____    ______ ____
ROOT
ATOM      1  N   UNL     1       2.441   7.438  18.893  0.00  0.00    +0.000 N 
ATOM      2  N   UNL     1       3.275   7.645  17.820  0.00  0.00    +0.000 NA
ATOM      3  N   UNL     1       4.052   6.647  17.695  0.00  0.00    +0.000 NA
ATOM      4  N   UNL     1       3.775   5.747  18.680  0.00  0.00    +0.000 N 
ATOM      5  C   UNL     1       2.728   6.201  19.458  0.00  0.00    +0.000 A 
ATOM      6  O   UNL     1       2.228   5.627  20.411  0.00  0.00    +0.000 OA
ENDROOT
BRANCH   1  10
ATOM      7  C   UNL     1      -0.137  10.439  20.340  0.00  0.00    +0.000 A 
ATOM      8  C   UNL     1       0.251  10.439  19.005  0.00  0.00    +0.000 A 
ATOM      9  C   UNL     1       1.159   9.484  18.542  0.00  0.00    +0.000 A 
ATOM     10  C   UNL     1       1.653   8.489  19.396  0.00  0.00    +0.000 A 
ATOM     11  C   UNL     1       1.277   8.522  20.749  0.00  0.00    +0.000 A 
ATOM     12  C   UNL     1       0.391   9.497  21.221  0.00  0.00    +0.000 A 
BRANCH   7  13
ATOM     13  N   UNL     1      -1.155  11.343  20.759  0.00  0.00    +0.000 N 
ATOM     14  H   UNL     1      -1.570  11.906  20.015  0.00  0.00    +0.000 HD
BRANCH  13  16
ATOM     15  C   UNL     1      -1.954  13.674  21.849  0.00  0.00    +0.000 C 
ATOM     16  S   UNL     1      -0.778  12.357  22.066  0.00  0.00    +0.000 S 
ATOM     17  O   UNL     1       0.537  12.888  21.773  0.00  0.00    +0.000 OA
ATOM     18  O   UNL     1      -1.050  11.683  23.317  0.00  0.00    +0.000 OA
ENDBRANCH  13  16
ENDBRANCH   7  13
ENDBRANCH   1  10
BRANCH   4  19
ATOM     19  C   UNL     1       4.438   4.476  18.802  0.00  0.00    +0.000 C 
BRANCH  19  20
ATOM     20  C   UNL     1       5.623   4.239  17.864  0.00  0.00    +0.000 C 
ATOM     21  O   UNL     1       6.774   4.339  18.290  0.00  0.00    +0.000 OA
ATOM     22  N   UNL     1       5.346   3.926  16.549  0.00  0.00    +0.000 N 
ATOM     23  H   UNL     1       4.388   3.933  16.225  0.00  0.00    +0.000 HD
BRANCH  22  24
ATOM     24  C   UNL     1       6.401   3.773  15.589  0.00  0.00    +0.000 C 
ATOM     25  C   UNL     1       6.118   3.895  14.115  0.00  0.00    +0.000 C 
ATOM     26  C   UNL     1       6.943   4.938  14.809  0.00  0.00    +0.000 C 
ENDBRANCH  22  24
ENDBRANCH  19  20
ENDBRANCH   4  19
TORSDOF 6
ENDMDL
MODEL 9
REMARK VINA RESULT:      -7.2      4.510      8.309
REMARK  Name = 
REMARK  7 active torsions:
REMARK  status: ('A' for Active; 'I' for Inactive)
REMARK    1  A    between atoms: C_1  and  S_2
REMARK    2  A    between atoms: S_2  and  N_5
REMARK    3  A    between atoms: N_5  and  C_6
REMARK    4  A    between atoms: C_9  and  N_10
REMARK    5  A    between atoms: N_13  and  C_14
REMARK    6  A    between atoms: C_14  and  C_15
REMARK    7  A    between atoms: N_17  and  C_18
REMARK                            x       y       z     vdW  Elec       q    Type
REMARK                         _______ _______ _______ _____ _____    ______ ____
ROOT
ATOM      1  N   UNL     1       1.373   8.599  19.929  0.00  0.00    +0.000 N 
ATOM      2  N   UNL     1       1.153   9.151  21.168  0.00  0.00    +0.000 NA
ATOM      3  N   UNL     1       0.724  10.338  21.027  0.00  0.00    +0.000 NA
ATOM      4  N   UNL     1       0.652  10.626  19.696  0.00  0.00    +0.000 N 
ATOM      5  C   UNL     1       1.034   9.528  18.951  0.00  0.00    +0.000 A 
ATOM      6  O   UNL     1       1.068   9.451  17.735  0.00  0.00    +0.000 OA
ENDROOT
BRANCH   1  10
ATOM      7  C   UNL     1       3.270   4.875  19.397  0.00  0.00    +0.000 A 
ATOM      8  C   UNL     1       2.397   5.066  20.462  0.00  0.00    +0.000 A 
ATOM      9  C   UNL     1       1.821   6.320  20.676  0.00  0.00    +0.000 A 
ATOM     10  C   UNL     1       2.074   7.386  19.802  0.00  0.00    +0.000 A 
ATOM     11  C   UNL     1       2.983   7.187  18.751  0.00  0.00    +0.000 A 
ATOM     12  C   UNL     1       3.585   5.938  18.553  0.00  0.00    +0.000 A 
BRANCH   7  13
ATOM     13  N   UNL     1       3.746   3.560  19.127  0.00  0.00    +0.000 N 
ATOM     14  H   UNL     1       4.704   3.509  18.774  0.00  0.00    +0.000 HD
BRANCH  13  16
ATOM     15  C   UNL     1       1.558   2.001  19.345  0.00  0.00    +0.000 C 
ATOM     16  S   UNL     1       2.755   2.579  18.161  0.00  0.00    +0.000 S 
ATOM     17  O   UNL     1       3.580   1.451  17.784  0.00  0.00    +0.000 OA
ATOM     18  O   UNL     1       2.080   3.379  17.161  0.00  0.00    +0.000 OA
ENDBRANCH  13  16
ENDBRANCH   7  13
ENDBRANCH   1  10
BRANCH   4  19
ATOM     19  C   UNL     1       0.157  11.875  19.182  0.00  0.00    +0.000 C 
BRANCH  19  20
ATOM     20  C   UNL     1      -1.244  11.847  18.569  0.00  0.00    +0.000 C 
ATOM     21  O   UNL     1      -2.215  12.203  19.238  0.00  0.00    +0.000 OA
ATOM     22  N   UNL     1      -1.366  11.404  17.268  0.00  0.00    +0.000 N 
ATOM     23  H   UNL     1      -0.552  11.047  16.784  0.00  0.00    +0.000 HD
BRANCH  22  24
ATOM     24  C   UNL     1      -2.654  11.267  16.652  0.00  0.00    +0.000 C 
ATOM     25  C   UNL     1      -2.800  10.558  15.332  0.00  0.00    +0.000 C 
ATOM     26  C   UNL     1      -3.365   9.946  16.578  0.00  0.00    +0.000 C 
ENDBRANCH  22  24
ENDBRANCH  19  20
ENDBRANCH   4  19
TORSDOF 6
ENDMDL
