MODEL 1
REMARK VINA RESULT:      -7.7      0.000      0.000
REMARK  Name = 
REMARK  9 active torsions:
REMARK  status: ('A' for Active; 'I' for Inactive)
REMARK    1  A    between atoms: C_1  and  C_2
REMARK    2  A    between atoms: C_2  and  C_3
REMARK    3  A    between atoms: C_3  and  O_4
REMARK    4  A    between atoms: O_4  and  C_5
REMARK    5  A    between atoms: C_9  and  C_10
REMARK    6  A    between atoms: C_10  and  C_11
REMARK    7  A    between atoms: C_10  and  N_12
REMARK    8  A    between atoms: C_13  and  C_15
REMARK    9  A    between atoms: C_18  and  C_19
REMARK                            x       y       z     vdW  Elec       q    Type
REMARK                         _______ _______ _______ _____ _____    ______ ____
ROOT
ATOM      1  N   UNL     1       5.214   5.397  17.282  0.00  0.00    +0.000 N 
ATOM      2  C   UNL     1       4.355   5.221  18.350  0.00  0.00    +0.000 C 
ATOM      3  O   UNL     1       4.372   4.243  19.088  0.00  0.00    +0.000 OA
ATOM      4  H   UNL     1       5.249   6.298  16.829  0.00  0.00    +0.000 HD
ENDROOT
BRANCH   2   5
ATOM      5  C   UNL     1       3.410   6.342  18.595  0.00  0.00    +0.000 A 
ATOM      6  C   UNL     1       3.256   7.366  17.656  0.00  0.00    +0.000 A 
ATOM      7  C   UNL     1       2.438   8.463  17.941  0.00  0.00    +0.000 A 
ATOM      8  C   UNL     1       1.704   8.545  19.138  0.00  0.00    +0.000 A 
ATOM      9  C   UNL     1       1.841   7.481  20.050  0.00  0.00    +0.000 A 
ATOM     10  C   UNL     1       2.684   6.391  19.786  0.00  0.00    +0.000 A 
BRANCH   8  11
ATOM     11  C   UNL     1       0.815   9.698  19.407  0.00  0.00    +0.000 A 
ATOM     12  C   UNL     1       0.843  10.372  20.639  0.00  0.00    +0.000 A 
ATOM     13  C   UNL     1      -0.009  11.443  20.855  0.00  0.00    +0.000 A 
ATOM     14  N   UNL     1      -0.882  11.901  19.940  0.00  0.00    +0.000 NA
ATOM     15  C   UNL     1      -0.903  11.257  18.757  0.00  0.00    +0.000 A 
ATOM     16  C   UNL     1      -0.094  10.171  18.452  0.00  0.00    +0.000 A 
ENDBRANCH   8  11
ENDBRANCH   2   5
BRANCH   1  17
ATOM     17  C   UNL     1       6.262   4.445  16.953  0.00  0.00    +0.000 C 
ATOM     18  C   UNL     1       7.549   4.754  17.721  0.00  0.00    +0.000 C 
BRANCH  17  23
ATOM     19  C   UNL     1       5.886   3.749  13.190  0.00  0.00    +0.000 A 
ATOM     20  C   UNL     1       6.977   4.452  12.679  0.00  0.00    +0.000 A 
ATOM     21  C   UNL     1       7.833   5.142  13.538  0.00  0.00    +0.000 A 
ATOM     22  C   UNL     1       7.604   5.132  14.916  0.00  0.00    +0.000 A 
ATOM     23  C   UNL     1       6.514   4.437  15.450  0.00  0.00    +0.000 A 
ATOM     24  C   UNL     1       5.667   3.737  14.572  0.00  0.00    +0.000 A 
BRANCH  19  25
ATOM     25  O   UNL     1       5.137   3.064  12.272  0.00  0.00    +0.000 OA
BRANCH  25  26
ATOM     26  C   UNL     1       4.618   3.844  11.192  0.00  0.00    +0.000 C 
BRANCH  26  28
ATOM     27  C   UNL     1       2.779   3.927   9.484  0.00  0.00    +0.000 C 
ATOM     28  C   UNL     1       3.343   3.180  10.681  0.00  0.00    +0.000 C 
ENDBRANCH  26  28
ENDBRANCH  25  26
ENDBRANCH  19  25
ENDBRANCH  17  23
ENDBRANCH   1  17
TORSDOF 7
ENDMDL
MODEL 2
REMARK VINA RESULT:      -7.6      0.500      1.057
REMARK  Name = 
REMARK  9 active torsions:
REMARK  status: ('A' for Active; 'I' for Inactive)
REMARK    1  A    between atoms: C_1  and  C_2
REMARK    2  A    between atoms: C_2  and  C_3
REMARK    3  A    between atoms: C_3  and  O_4
REMARK    4  A    between atoms: O_4  and  C_5
REMARK    5  A    between atoms: C_9  and  C_10
REMARK    6  A    between atoms: C_10  and  C_11
REMARK    7  A    between atoms: C_10  and  N_12
REMARK    8  A    between atoms: C_13  and  C_15
REMARK    9  A    between atoms: C_18  and  C_19
REMARK                            x       y       z     vdW  Elec       q    Type
REMARK                         _______ _______ _______ _____ _____    ______ ____
ROOT
ATOM      1  N   UNL     1       5.315   5.350  16.927  0.00  0.00    +0.000 N 
ATOM      2  C   UNL     1       4.490   5.215  18.027  0.00  0.00    +0.000 C 
ATOM      3  O   UNL     1       4.489   4.238  18.766  0.00  0.00    +0.000 OA
ATOM      4  H   UNL     1       5.374   6.248  16.470  0.00  0.00    +0.000 HD
ENDROOT
BRANCH   2   5
ATOM      5  C   UNL     1       3.607   6.379  18.303  0.00  0.00    +0.000 A 
ATOM      6  C   UNL     1       2.839   6.434  19.469  0.00  0.00    +0.000 A 
ATOM      7  C   UNL     1       1.941   7.487  19.670  0.00  0.00    +0.000 A 
ATOM      8  C   UNL     1       1.825   8.543  18.749  0.00  0.00    +0.000 A 
ATOM      9  C   UNL     1       2.640   8.488  17.602  0.00  0.00    +0.000 A 
ATOM     10  C   UNL     1       3.521   7.421  17.377  0.00  0.00    +0.000 A 
BRANCH   8  11
ATOM     11  C   UNL     1       0.893   9.668  18.996  0.00  0.00    +0.000 A 
ATOM     12  C   UNL     1       1.055  10.522  20.099  0.00  0.00    +0.000 A 
ATOM     13  C   UNL     1       0.159  11.560  20.300  0.00  0.00    +0.000 A 
ATOM     14  N   UNL     1      -0.880  11.820  19.487  0.00  0.00    +0.000 NA
ATOM     15  C   UNL     1      -1.029  11.003  18.425  0.00  0.00    +0.000 A 
ATOM     16  C   UNL     1      -0.188   9.934  18.147  0.00  0.00    +0.000 A 
ENDBRANCH   8  11
ENDBRANCH   2   5
BRANCH   1  17
ATOM     17  C   UNL     1       6.305   4.350  16.561  0.00  0.00    +0.000 C 
ATOM     18  C   UNL     1       7.594   4.530  17.366  0.00  0.00    +0.000 C 
BRANCH  17  23
ATOM     19  C   UNL     1       6.146   3.642  12.785  0.00  0.00    +0.000 A 
ATOM     20  C   UNL     1       7.094   4.545  12.305  0.00  0.00    +0.000 A 
ATOM     21  C   UNL     1       7.786   5.374  13.188  0.00  0.00    +0.000 A 
ATOM     22  C   UNL     1       7.535   5.303  14.561  0.00  0.00    +0.000 A 
ATOM     23  C   UNL     1       6.585   4.408  15.064  0.00  0.00    +0.000 A 
ATOM     24  C   UNL     1       5.904   3.571  14.162  0.00  0.00    +0.000 A 
BRANCH  19  25
ATOM     25  O   UNL     1       5.559   2.839  11.845  0.00  0.00    +0.000 OA
BRANCH  25  26
ATOM     26  C   UNL     1       4.147   3.004  11.684  0.00  0.00    +0.000 C 
BRANCH  26  28
ATOM     27  C   UNL     1       2.862   3.658   9.628  0.00  0.00    +0.000 C 
ATOM     28  C   UNL     1       3.900   4.096  10.648  0.00  0.00    +0.000 C 
ENDBRANCH  26  28
ENDBRANCH  25  26
ENDBRANCH  19  25
ENDBRANCH  17  23
ENDBRANCH   1  17
TORSDOF 7
ENDMDL
MODEL 3
REMARK VINA RESULT:      -7.6      2.067      3.755
REMARK  Name = 
REMARK  9 active torsions:
REMARK  status: ('A' for Active; 'I' for Inactive)
REMARK    1  A    between atoms: C_1  and  C_2
REMARK    2  A    between atoms: C_2  and  C_3
REMARK    3  A    between atoms: C_3  and  O_4
REMARK    4  A    between atoms: O_4  and  C_5
REMARK    5  A    between atoms: C_9  and  C_10
REMARK    6  A    between atoms: C_10  and  C_11
REMARK    7  A    between atoms: C_10  and  N_12
REMARK    8  A    between atoms: C_13  and  C_15
REMARK    9  A    between atoms: C_18  and  C_19
REMARK                            x       y       z     vdW  Elec       q    Type
REMARK                         _______ _______ _______ _____ _____    ______ ____
ROOT
ATOM      1  N   UNL     1       2.412   6.109  18.572  0.00  0.00    +0.000 N 
ATOM      2  C   UNL     1       2.548   7.430  18.191  0.00  0.00    +0.000 C 
ATOM      3  O   UNL     1       3.176   7.797  17.205  0.00  0.00    +0.000 OA
ATOM      4  H   UNL     1       1.746   5.876  19.293  0.00  0.00    +0.000 HD
ENDROOT
BRANCH   2   5
ATOM      5  C   UNL     1       1.825   8.412  19.042  0.00  0.00    +0.000 A 
ATOM      6  C   UNL     1       1.383   9.628  18.514  0.00  0.00    +0.000 A 
ATOM      7  C   UNL     1       0.792  10.582  19.347  0.00  0.00    +0.000 A 
ATOM      8  C   UNL     1       0.570  10.333  20.713  0.00  0.00    +0.000 A 
ATOM      9  C   UNL     1       0.985   9.084  21.214  0.00  0.00    +0.000 A 
ATOM     10  C   UNL     1       1.607   8.133  20.392  0.00  0.00    +0.000 A 
BRANCH   8  11
ATOM     11  C   UNL     1      -0.090  11.342  21.573  0.00  0.00    +0.000 A 
ATOM     12  C   UNL     1      -1.015  10.969  22.560  0.00  0.00    +0.000 A 
ATOM     13  C   UNL     1      -1.617  11.943  23.341  0.00  0.00    +0.000 A 
ATOM     14  N   UNL     1      -1.365  13.259  23.221  0.00  0.00    +0.000 NA
ATOM     15  C   UNL     1      -0.471  13.614  22.277  0.00  0.00    +0.000 A 
ATOM     16  C   UNL     1       0.175  12.711  21.444  0.00  0.00    +0.000 A 
ENDBRANCH   8  11
ENDBRANCH   2   5
BRANCH   1  17
ATOM     17  C   UNL     1       2.976   5.009  17.805  0.00  0.00    +0.000 C 
ATOM     18  C   UNL     1       2.441   3.663  18.299  0.00  0.00    +0.000 C 
BRANCH  17  23
ATOM     19  C   UNL     1       6.676   4.970  16.764  0.00  0.00    +0.000 A 
ATOM     20  C   UNL     1       7.302   5.143  17.999  0.00  0.00    +0.000 A 
ATOM     21  C   UNL     1       6.541   5.267  19.161  0.00  0.00    +0.000 A 
ATOM     22  C   UNL     1       5.146   5.215  19.096  0.00  0.00    +0.000 A 
ATOM     23  C   UNL     1       4.497   5.047  17.869  0.00  0.00    +0.000 A 
ATOM     24  C   UNL     1       5.279   4.913  16.707  0.00  0.00    +0.000 A 
BRANCH  19  25
ATOM     25  O   UNL     1       7.511   4.809  15.691  0.00  0.00    +0.000 OA
BRANCH  25  26
ATOM     26  C   UNL     1       6.905   4.970  14.406  0.00  0.00    +0.000 C 
BRANCH  26  28
ATOM     27  C   UNL     1       5.612   3.727  12.648  0.00  0.00    +0.000 C 
ATOM     28  C   UNL     1       6.461   3.600  13.902  0.00  0.00    +0.000 C 
ENDBRANCH  26  28
ENDBRANCH  25  26
ENDBRANCH  19  25
ENDBRANCH  17  23
ENDBRANCH   1  17
TORSDOF 7
ENDMDL
MODEL 4
REMARK VINA RESULT:      -7.5      2.396      4.088
REMARK  Name = 
REMARK  9 active torsions:
REMARK  status: ('A' for Active; 'I' for Inactive)
REMARK    1  A    between atoms: C_1  and  C_2
REMARK    2  A    between atoms: C_2  and  C_3
REMARK    3  A    between atoms: C_3  and  O_4
REMARK    4  A    between atoms: O_4  and  C_5
REMARK    5  A    between atoms: C_9  and  C_10
REMARK    6  A    between atoms: C_10  and  C_11
REMARK    7  A    between atoms: C_10  and  N_12
REMARK    8  A    between atoms: C_13  and  C_15
REMARK    9  A    between atoms: C_18  and  C_19
REMARK                            x       y       z     vdW  Elec       q    Type
REMARK                         _______ _______ _______ _____ _____    ______ ____
ROOT
ATOM      1  N   UNL     1       2.913   5.110  17.848  0.00  0.00    +0.000 N 
ATOM      2  C   UNL     1       3.198   5.842  18.985  0.00  0.00    +0.000 C 
ATOM      3  O   UNL     1       4.066   5.538  19.795  0.00  0.00    +0.000 OA
ATOM      4  H   UNL     1       2.305   5.512  17.150  0.00  0.00    +0.000 HD
ENDROOT
BRANCH   2   5
ATOM      5  C   UNL     1       2.402   7.086  19.154  0.00  0.00    +0.000 A 
ATOM      6  C   UNL     1       2.231   7.976  18.091  0.00  0.00    +0.000 A 
ATOM      7  C   UNL     1       1.563   9.188  18.290  0.00  0.00    +0.000 A 
ATOM      8  C   UNL     1       0.995   9.522  19.532  0.00  0.00    +0.000 A 
ATOM      9  C   UNL     1       1.142   8.590  20.578  0.00  0.00    +0.000 A 
ATOM     10  C   UNL     1       1.837   7.386  20.395  0.00  0.00    +0.000 A 
BRANCH   8  11
ATOM     11  C   UNL     1       0.260  10.794  19.715  0.00  0.00    +0.000 A 
ATOM     12  C   UNL     1       0.791  11.842  20.484  0.00  0.00    +0.000 A 
ATOM     13  C   UNL     1       0.070  13.016  20.636  0.00  0.00    +0.000 A 
ATOM     14  N   UNL     1      -1.134  13.232  20.078  0.00  0.00    +0.000 NA
ATOM     15  C   UNL     1      -1.639  12.228  19.335  0.00  0.00    +0.000 A 
ATOM     16  C   UNL     1      -0.995  11.015  19.132  0.00  0.00    +0.000 A 
ENDBRANCH   8  11
ENDBRANCH   2   5
BRANCH   1  17
ATOM     17  C   UNL     1       3.655   3.916  17.477  0.00  0.00    +0.000 C 
ATOM     18  C   UNL     1       4.074   3.120  18.715  0.00  0.00    +0.000 C 
BRANCH  17  23
ATOM     19  C   UNL     1       6.842   5.676  16.240  0.00  0.00    +0.000 A 
ATOM     20  C   UNL     1       7.115   4.949  15.082  0.00  0.00    +0.000 A 
ATOM     21  C   UNL     1       6.278   3.902  14.696  0.00  0.00    +0.000 A 
ATOM     22  C   UNL     1       5.159   3.576  15.466  0.00  0.00    +0.000 A 
ATOM     23  C   UNL     1       4.868   4.289  16.634  0.00  0.00    +0.000 A 
ATOM     24  C   UNL     1       5.715   5.349  17.004  0.00  0.00    +0.000 A 
BRANCH  19  25
ATOM     25  O   UNL     1       7.693   6.714  16.506  0.00  0.00    +0.000 OA
BRANCH  25  26
ATOM     26  C   UNL     1       7.199   7.703  17.414  0.00  0.00    +0.000 C 
BRANCH  26  28
ATOM     27  C   UNL     1       8.561   9.643  18.242  0.00  0.00    +0.000 C 
ATOM     28  C   UNL     1       8.341   8.142  18.325  0.00  0.00    +0.000 C 
ENDBRANCH  26  28
ENDBRANCH  25  26
ENDBRANCH  19  25
ENDBRANCH  17  23
ENDBRANCH   1  17
TORSDOF 7
ENDMDL
MODEL 5
REMARK VINA RESULT:      -7.5      1.504      1.975
REMARK  Name = 
REMARK  9 active torsions:
REMARK  status: ('A' for Active; 'I' for Inactive)
REMARK    1  A    between atoms: C_1  and  C_2
REMARK    2  A    between atoms: C_2  and  C_3
REMARK    3  A    between atoms: C_3  and  O_4
REMARK    4  A    between atoms: O_4  and  C_5
REMARK    5  A    between atoms: C_9  and  C_10
REMARK    6  A    between atoms: C_10  and  C_11
REMARK    7  A    between atoms: C_10  and  N_12
REMARK    8  A    between atoms: C_13  and  C_15
REMARK    9  A    between atoms: C_18  and  C_19
REMARK                            x       y       z     vdW  Elec       q    Type
REMARK                         _______ _______ _______ _____ _____    ______ ____
ROOT
ATOM      1  N   UNL     1       4.134   6.016  18.149  0.00  0.00    +0.000 N 
ATOM      2  C   UNL     1       2.953   6.042  18.866  0.00  0.00    +0.000 C 
ATOM      3  O   UNL     1       2.481   5.069  19.441  0.00  0.00    +0.000 OA
ATOM      4  H   UNL     1       4.540   6.889  17.848  0.00  0.00    +0.000 HD
ENDROOT
BRANCH   2   5
ATOM      5  C   UNL     1       2.289   7.369  18.945  0.00  0.00    +0.000 A 
ATOM      6  C   UNL     1       2.206   8.197  17.822  0.00  0.00    +0.000 A 
ATOM      7  C   UNL     1       1.667   9.481  17.933  0.00  0.00    +0.000 A 
ATOM      8  C   UNL     1       1.141   9.958  19.148  0.00  0.00    +0.000 A 
ATOM      9  C   UNL     1       1.197   9.091  20.256  0.00  0.00    +0.000 A 
ATOM     10  C   UNL     1       1.764   7.812  20.161  0.00  0.00    +0.000 A 
BRANCH   8  11
ATOM     11  C   UNL     1       0.541  11.309  19.239  0.00  0.00    +0.000 A 
ATOM     12  C   UNL     1       1.192  12.353  19.914  0.00  0.00    +0.000 A 
ATOM     13  C   UNL     1       0.596  13.603  19.983  0.00  0.00    +0.000 A 
ATOM     14  N   UNL     1      -0.593  13.896  19.426  0.00  0.00    +0.000 NA
ATOM     15  C   UNL     1      -1.212  12.893  18.773  0.00  0.00    +0.000 A 
ATOM     16  C   UNL     1      -0.697  11.609  18.658  0.00  0.00    +0.000 A 
ENDBRANCH   8  11
ENDBRANCH   2   5
BRANCH   1  17
ATOM     17  C   UNL     1       4.962   4.825  18.043  0.00  0.00    +0.000 C 
ATOM     18  C   UNL     1       5.980   4.757  19.185  0.00  0.00    +0.000 C 
BRANCH  17  23
ATOM     19  C   UNL     1       5.649   4.261  14.302  0.00  0.00    +0.000 A 
ATOM     20  C   UNL     1       6.952   4.747  14.195  0.00  0.00    +0.000 A 
ATOM     21  C   UNL     1       7.609   5.249  15.318  0.00  0.00    +0.000 A 
ATOM     22  C   UNL     1       6.968   5.266  16.559  0.00  0.00    +0.000 A 
ATOM     23  C   UNL     1       5.661   4.787  16.689  0.00  0.00    +0.000 A 
ATOM     24  C   UNL     1       5.014   4.274  15.550  0.00  0.00    +0.000 A 
BRANCH  19  25
ATOM     25  O   UNL     1       5.109   3.744  13.155  0.00  0.00    +0.000 OA
BRANCH  25  26
ATOM     26  C   UNL     1       6.048   3.359  12.148  0.00  0.00    +0.000 C 
BRANCH  26  28
ATOM     27  C   UNL     1       6.768   1.250  10.991  0.00  0.00    +0.000 C 
ATOM     28  C   UNL     1       5.590   2.040  11.534  0.00  0.00    +0.000 C 
ENDBRANCH  26  28
ENDBRANCH  25  26
ENDBRANCH  19  25
ENDBRANCH  17  23
ENDBRANCH   1  17
TORSDOF 7
ENDMDL
MODEL 6
REMARK VINA RESULT:      -7.5      2.349      4.350
REMARK  Name = 
REMARK  9 active torsions:
REMARK  status: ('A' for Active; 'I' for Inactive)
REMARK    1  A    between atoms: C_1  and  C_2
REMARK    2  A    between atoms: C_2  and  C_3
REMARK    3  A    between atoms: C_3  and  O_4
REMARK    4  A    between atoms: O_4  and  C_5
REMARK    5  A    between atoms: C_9  and  C_10
REMARK    6  A    between atoms: C_10  and  C_11
REMARK    7  A    between atoms: C_10  and  N_12
REMARK    8  A    between atoms: C_13  and  C_15
REMARK    9  A    between atoms: C_18  and  C_19
REMARK                            x       y       z     vdW  Elec       q    Type
REMARK                         _______ _______ _______ _____ _____    ______ ____
ROOT
ATOM      1  N   UNL     1       2.266   6.782  18.772  0.00  0.00    +0.000 N 
ATOM      2  C   UNL     1       2.210   8.077  18.295  0.00  0.00    +0.000 C 
ATOM      3  O   UNL     1       2.607   8.416  17.186  0.00  0.00    +0.000 OA
ATOM      4  H   UNL     1       1.770   6.553  19.620  0.00  0.00    +0.000 HD
ENDROOT
BRANCH   2   5
ATOM      5  C   UNL     1       1.576   9.062  19.210  0.00  0.00    +0.000 A 
ATOM      6  C   UNL     1       1.302   8.731  20.540  0.00  0.00    +0.000 A 
ATOM      7  C   UNL     1       0.619   9.631  21.362  0.00  0.00    +0.000 A 
ATOM      8  C   UNL     1       0.241  10.907  20.905  0.00  0.00    +0.000 A 
ATOM      9  C   UNL     1       0.565  11.235  19.574  0.00  0.00    +0.000 A 
ATOM     10  C   UNL     1       1.223  10.326  18.733  0.00  0.00    +0.000 A 
BRANCH   8  11
ATOM     11  C   UNL     1      -0.452  11.860  21.801  0.00  0.00    +0.000 A 
ATOM     12  C   UNL     1      -0.076  13.212  21.862  0.00  0.00    +0.000 A 
ATOM     13  C   UNL     1      -0.744  14.073  22.718  0.00  0.00    +0.000 A 
ATOM     14  N   UNL     1      -1.762  13.697  23.513  0.00  0.00    +0.000 NA
ATOM     15  C   UNL     1      -2.125  12.401  23.448  0.00  0.00    +0.000 A 
ATOM     16  C   UNL     1      -1.511  11.464  22.628  0.00  0.00    +0.000 A 
ENDBRANCH   8  11
ENDBRANCH   2   5
BRANCH   1  17
ATOM     17  C   UNL     1       2.771   5.674  17.976  0.00  0.00    +0.000 C 
ATOM     18  C   UNL     1       2.174   4.343  18.443  0.00  0.00    +0.000 C 
BRANCH  17  23
ATOM     19  C   UNL     1       6.466   5.813  16.926  0.00  0.00    +0.000 A 
ATOM     20  C   UNL     1       7.099   5.589  18.148  0.00  0.00    +0.000 A 
ATOM     21  C   UNL     1       6.344   5.388  19.304  0.00  0.00    +0.000 A 
ATOM     22  C   UNL     1       4.949   5.408  19.244  0.00  0.00    +0.000 A 
ATOM     23  C   UNL     1       4.293   5.636  18.030  0.00  0.00    +0.000 A 
ATOM     24  C   UNL     1       5.068   5.826  16.871  0.00  0.00    +0.000 A 
BRANCH  19  25
ATOM     25  O   UNL     1       7.293   5.949  15.843  0.00  0.00    +0.000 OA
BRANCH  25  26
ATOM     26  C   UNL     1       7.504   4.762  15.073  0.00  0.00    +0.000 C 
BRANCH  26  28
ATOM     27  C   UNL     1       5.814   3.761  13.509  0.00  0.00    +0.000 C 
ATOM     28  C   UNL     1       6.778   4.913  13.740  0.00  0.00    +0.000 C 
ENDBRANCH  26  28
ENDBRANCH  25  26
ENDBRANCH  19  25
ENDBRANCH  17  23
ENDBRANCH   1  17
TORSDOF 7
ENDMDL
MODEL 7
REMARK VINA RESULT:      -7.4      1.292      2.475
REMARK  Name = 
REMARK  9 active torsions:
REMARK  status: ('A' for Active; 'I' for Inactive)
REMARK    1  A    between atoms: C_1  and  C_2
REMARK    2  A    between atoms: C_2  and  C_3
REMARK    3  A    between atoms: C_3  and  O_4
REMARK    4  A    between atoms: O_4  and  C_5
REMARK    5  A    between atoms: C_9  and  C_10
REMARK    6  A    between atoms: C_10  and  C_11
REMARK    7  A    between atoms: C_10  and  N_12
REMARK    8  A    between atoms: C_13  and  C_15
REMARK    9  A    between atoms: C_18  and  C_19
REMARK                            x       y       z     vdW  Elec       q    Type
REMARK                         _______ _______ _______ _____ _____    ______ ____
ROOT
ATOM      1  N   UNL     1       3.334   5.459  18.469  0.00  0.00    +0.000 N 
ATOM      2  C   UNL     1       2.677   5.780  19.641  0.00  0.00    +0.000 C 
ATOM      3  O   UNL     1       2.579   5.024  20.600  0.00  0.00    +0.000 OA
ATOM      4  H   UNL     1       3.515   6.189  17.796  0.00  0.00    +0.000 HD
ENDROOT
BRANCH   2   5
ATOM      5  C   UNL     1       2.118   7.156  19.697  0.00  0.00    +0.000 A 
ATOM      6  C   UNL     1       1.479   7.623  20.848  0.00  0.00    +0.000 A 
ATOM      7  C   UNL     1       0.874   8.883  20.855  0.00  0.00    +0.000 A 
ATOM      8  C   UNL     1       0.937   9.737  19.739  0.00  0.00    +0.000 A 
ATOM      9  C   UNL     1       1.623   9.262  18.604  0.00  0.00    +0.000 A 
ATOM     10  C   UNL     1       2.207   7.988  18.579  0.00  0.00    +0.000 A 
BRANCH   8  11
ATOM     11  C   UNL     1       0.319  11.083  19.776  0.00  0.00    +0.000 A 
ATOM     12  C   UNL     1      -0.406  11.584  18.683  0.00  0.00    +0.000 A 
ATOM     13  C   UNL     1      -0.965  12.851  18.753  0.00  0.00    +0.000 A 
ATOM     14  N   UNL     1      -0.863  13.655  19.827  0.00  0.00    +0.000 NA
ATOM     15  C   UNL     1      -0.172  13.168  20.876  0.00  0.00    +0.000 A 
ATOM     16  C   UNL     1       0.428  11.916  20.895  0.00  0.00    +0.000 A 
ENDBRANCH   8  11
ENDBRANCH   2   5
BRANCH   1  17
ATOM     17  C   UNL     1       4.018   4.190  18.275  0.00  0.00    +0.000 C 
ATOM     18  C   UNL     1       4.689   3.721  19.568  0.00  0.00    +0.000 C 
BRANCH  17  23
ATOM     19  C   UNL     1       5.585   4.270  14.764  0.00  0.00    +0.000 A 
ATOM     20  C   UNL     1       6.916   4.549  15.074  0.00  0.00    +0.000 A 
ATOM     21  C   UNL     1       7.311   4.705  16.402  0.00  0.00    +0.000 A 
ATOM     22  C   UNL     1       6.376   4.581  17.433  0.00  0.00    +0.000 A 
ATOM     23  C   UNL     1       5.035   4.306  17.146  0.00  0.00    +0.000 A 
ATOM     24  C   UNL     1       4.654   4.140  15.802  0.00  0.00    +0.000 A 
BRANCH  19  25
ATOM     25  O   UNL     1       5.308   4.084  13.437  0.00  0.00    +0.000 OA
BRANCH  25  26
ATOM     26  C   UNL     1       6.256   3.298  12.711  0.00  0.00    +0.000 C 
BRANCH  26  28
ATOM     27  C   UNL     1       4.184   3.232  11.295  0.00  0.00    +0.000 C 
ATOM     28  C   UNL     1       5.530   2.585  11.575  0.00  0.00    +0.000 C 
ENDBRANCH  26  28
ENDBRANCH  25  26
ENDBRANCH  19  25
ENDBRANCH  17  23
ENDBRANCH   1  17
TORSDOF 7
ENDMDL
MODEL 8
REMARK VINA RESULT:      -7.4      4.335      7.946
REMARK  Name = 
REMARK  9 active torsions:
REMARK  status: ('A' for Active; 'I' for Inactive)
REMARK    1  A    between atoms: C_1  and  C_2
REMARK    2  A    between atoms: C_2  and  C_3
REMARK    3  A    between atoms: C_3  and  O_4
REMARK    4  A    between atoms: O_4  and  C_5
REMARK    5  A    between atoms: C_9  and  C_10
REMARK    6  A    between atoms: C_10  and  C_11
REMARK    7  A    between atoms: C_10  and  N_12
REMARK    8  A    between atoms: C_13  and  C_15
REMARK    9  A    between atoms: C_18  and  C_19
REMARK                            x       y       z     vdW  Elec       q    Type
REMARK                         _______ _______ _______ _____ _____    ______ ____
ROOT
ATOM      1  N   UNL     1       5.382   5.073  18.219  0.00  0.00    +0.000 N 
ATOM      2  C   UNL     1       6.650   5.263  17.706  0.00  0.00    +0.000 C 
ATOM      3  O   UNL     1       7.245   4.436  17.027  0.00  0.00    +0.000 OA
ATOM      4  H   UNL     1       4.896   5.860  18.622  0.00  0.00    +0.000 HD
ENDROOT
BRANCH   2   5
ATOM      5  C   UNL     1       7.256   6.591  17.990  0.00  0.00    +0.000 A 
ATOM      6  C   UNL     1       6.910   7.713  17.233  0.00  0.00    +0.000 A 
ATOM      7  C   UNL     1       7.558   8.933  17.447  0.00  0.00    +0.000 A 
ATOM      8  C   UNL     1       8.524   9.088  18.458  0.00  0.00    +0.000 A 
ATOM      9  C   UNL     1       8.825   7.954  19.237  0.00  0.00    +0.000 A 
ATOM     10  C   UNL     1       8.202   6.719  19.009  0.00  0.00    +0.000 A 
BRANCH   8  11
ATOM     11  C   UNL     1       9.174  10.397  18.694  0.00  0.00    +0.000 A 
ATOM     12  C   UNL     1       9.886  10.657  19.876  0.00  0.00    +0.000 A 
ATOM     13  C   UNL     1      10.477  11.897  20.063  0.00  0.00    +0.000 A 
ATOM     14  N   UNL     1      10.420  12.896  19.164  0.00  0.00    +0.000 NA
ATOM     15  C   UNL     1       9.741  12.641  18.028  0.00  0.00    +0.000 A 
ATOM     16  C   UNL     1       9.111  11.434  17.755  0.00  0.00    +0.000 A 
ENDBRANCH   8  11
ENDBRANCH   2   5
BRANCH   1  17
ATOM     17  C   UNL     1       4.604   3.871  17.962  0.00  0.00    +0.000 C 
ATOM     18  C   UNL     1       4.199   3.780  16.489  0.00  0.00    +0.000 C 
BRANCH  17  23
ATOM     19  C   UNL     1       1.769   4.963  20.319  0.00  0.00    +0.000 A 
ATOM     20  C   UNL     1       1.102   3.753  20.512  0.00  0.00    +0.000 A 
ATOM     21  C   UNL     1       1.562   2.591  19.892  0.00  0.00    +0.000 A 
ATOM     22  C   UNL     1       2.696   2.631  19.077  0.00  0.00    +0.000 A 
ATOM     23  C   UNL     1       3.378   3.834  18.867  0.00  0.00    +0.000 A 
ATOM     24  C   UNL     1       2.908   4.995  19.507  0.00  0.00    +0.000 A 
BRANCH  19  25
ATOM     25  O   UNL     1       1.269   6.034  21.009  0.00  0.00    +0.000 OA
BRANCH  25  26
ATOM     26  C   UNL     1       1.639   7.321  20.506  0.00  0.00    +0.000 C 
BRANCH  26  28
ATOM     27  C   UNL     1      -0.162   8.783  21.469  0.00  0.00    +0.000 C 
ATOM     28  C   UNL     1       1.298   8.371  21.559  0.00  0.00    +0.000 C 
ENDBRANCH  26  28
ENDBRANCH  25  26
ENDBRANCH  19  25
ENDBRANCH  17  23
ENDBRANCH   1  17
TORSDOF 7
ENDMDL
MODEL 9
REMARK VINA RESULT:      -7.4      4.297     10.226
REMARK  Name = 
REMARK  9 active torsions:
REMARK  status: ('A' for Active; 'I' for Inactive)
REMARK    1  A    between atoms: C_1  and  C_2
REMARK    2  A    between atoms: C_2  and  C_3
REMARK    3  A    between atoms: C_3  and  O_4
REMARK    4  A    between atoms: O_4  and  C_5
REMARK    5  A    between atoms: C_9  and  C_10
REMARK    6  A    between atoms: C_10  and  C_11
REMARK    7  A    between atoms: C_10  and  N_12
REMARK    8  A    between atoms: C_13  and  C_15
REMARK    9  A    between atoms: C_18  and  C_19
REMARK                            x       y       z     vdW  Elec       q    Type
REMARK                         _______ _______ _______ _____ _____    ______ ____
ROOT
ATOM      1  N   UNL     1      -0.855  11.122  20.474  0.00  0.00    +0.000 N 
ATOM      2  C   UNL     1       0.524  11.040  20.486  0.00  0.00    +0.000 C 
ATOM      3  O   UNL     1       1.255  11.871  21.011  0.00  0.00    +0.000 OA
ATOM      4  H   UNL     1      -1.388  10.320  20.173  0.00  0.00    +0.000 HD
ENDROOT
BRANCH   2   5
ATOM      5  C   UNL     1       1.091   9.821  19.850  0.00  0.00    +0.000 A 
ATOM      6  C   UNL     1       1.321   8.664  20.598  0.00  0.00    +0.000 A 
ATOM      7  C   UNL     1       1.944   7.559  20.010  0.00  0.00    +0.000 A 
ATOM      8  C   UNL     1       2.302   7.552  18.650  0.00  0.00    +0.000 A 
ATOM      9  C   UNL     1       2.022   8.714  17.905  0.00  0.00    +0.000 A 
ATOM     10  C   UNL     1       1.425   9.837  18.494  0.00  0.00    +0.000 A 
BRANCH   8  11
ATOM     11  C   UNL     1       2.929   6.359  18.035  0.00  0.00    +0.000 A 
ATOM     12  C   UNL     1       2.299   5.105  18.066  0.00  0.00    +0.000 A 
ATOM     13  C   UNL     1       2.921   4.010  17.485  0.00  0.00    +0.000 A 
ATOM     14  N   UNL     1       4.116   4.067  16.871  0.00  0.00    +0.000 NA
ATOM     15  C   UNL     1       4.715   5.274  16.838  0.00  0.00    +0.000 A 
ATOM     16  C   UNL     1       4.174   6.423  17.398  0.00  0.00    +0.000 A 
ENDBRANCH   8  11
ENDBRANCH   2   5
BRANCH   1  17
ATOM     17  C   UNL     1      -1.583  12.198  21.129  0.00  0.00    +0.000 C 
ATOM     18  C   UNL     1      -1.751  11.919  22.624  0.00  0.00    +0.000 C 
BRANCH  17  23
ATOM     19  C   UNL     1      -4.530  11.888  18.679  0.00  0.00    +0.000 A 
ATOM     20  C   UNL     1      -5.443  12.775  19.248  0.00  0.00    +0.000 A 
ATOM     21  C   UNL     1      -5.114  13.473  20.410  0.00  0.00    +0.000 A 
ATOM     22  C   UNL     1      -3.866  13.291  21.010  0.00  0.00    +0.000 A 
ATOM     23  C   UNL     1      -2.936  12.404  20.458  0.00  0.00    +0.000 A 
ATOM     24  C   UNL     1      -3.278  11.715  19.281  0.00  0.00    +0.000 A 
BRANCH  19  25
ATOM     25  O   UNL     1      -4.927  11.290  17.513  0.00  0.00    +0.000 OA
BRANCH  25  26
ATOM     26  C   UNL     1      -4.102  11.546  16.374  0.00  0.00    +0.000 C 
BRANCH  26  28
ATOM     27  C   UNL     1      -2.269   9.834  16.499  0.00  0.00    +0.000 C 
ATOM     28  C   UNL     1      -3.584  10.214  15.840  0.00  0.00    +0.000 C 
ENDBRANCH  26  28
ENDBRANCH  25  26
ENDBRANCH  19  25
ENDBRANCH  17  23
ENDBRANCH   1  17
TORSDOF 7
ENDMDL
