MODEL 1
REMARK VINA RESULT:      -8.3      0.000      0.000
REMARK  Name = 
REMARK  3 active torsions:
REMARK  status: ('A' for Active; 'I' for Inactive)
REMARK    1  A    between atoms: C_2  and  C_10
REMARK    2  A    between atoms: C_11  and  O_12
REMARK    3  A    between atoms: C_14  and  C_15
REMARK                            x       y       z     vdW  Elec       q    Type
REMARK                         _______ _______ _______ _____ _____    ______ ____
ROOT
ATOM      1  C   UNL     1       2.442   7.575  18.741  0.00  0.00    +0.000 A 
ATOM      2  C   UNL     1       2.142   7.145  19.981  0.00  0.00    +0.000 A 
ATOM      3  C   UNL     1       1.390   7.956  20.893  0.00  0.00    +0.000 A 
ATOM      4  C   UNL     1       0.959   9.163  20.509  0.00  0.00    +0.000 A 
ATOM      5  O   UNL     1       1.210   9.641  19.204  0.00  0.00    +0.000 OA
ATOM      6  C   UNL     1       1.947   8.906  18.320  0.00  0.00    +0.000 A 
ATOM      7  O   UNL     1       2.206   9.339  17.197  0.00  0.00    +0.000 OA
ENDROOT
BRANCH   1   9
ATOM      8  O   UNL     1       2.849   5.601  17.516  0.00  0.00    +0.000 OA
ATOM      9  C   UNL     1       3.278   6.706  17.852  0.00  0.00    +0.000 C 
ATOM     10  N   UNL     1       4.508   7.208  17.528  0.00  0.00    +0.000 N 
ATOM     11  C   UNL     1       5.417   6.542  16.758  0.00  0.00    +0.000 A 
ATOM     12  N   UNL     1       6.666   6.896  16.551  0.00  0.00    +0.000 NA
ATOM     13  N   UNL     1       7.195   5.961  15.685  0.00  0.00    +0.000 NA
ATOM     14  C   UNL     1       6.219   5.122  15.405  0.00  0.00    +0.000 A 
ATOM     15 BR   UNL     1       6.383   3.710  14.192  0.00  0.00    +0.000 Br
ATOM     16  O   UNL     1       5.062   5.421  16.070  0.00  0.00    +0.000 OA
ATOM     17  H   UNL     1       4.822   8.109  17.886  0.00  0.00    +0.000 HD
ENDBRANCH   1   9
BRANCH   4  18
ATOM     18  C   UNL     1       0.192  10.074  21.380  0.00  0.00    +0.000 A 
ATOM     19  C   UNL     1      -0.414   9.616  22.557  0.00  0.00    +0.000 A 
ATOM     20  C   UNL     1      -1.147  10.483  23.371  0.00  0.00    +0.000 A 
ATOM     21  C   UNL     1      -1.278  11.826  23.022  0.00  0.00    +0.000 A 
ATOM     22  C   UNL     1      -0.663  12.301  21.866  0.00  0.00    +0.000 A 
ATOM     23  C   UNL     1       0.073  11.434  21.054  0.00  0.00    +0.000 A 
ENDBRANCH   4  18
BRANCH   2  24
ATOM     24  O   UNL     1       2.518   5.938  20.529  0.00  0.00    +0.000 OA
ATOM     25  H   UNL     1       1.748   5.325  20.509  0.00  0.00    +0.000 HD
ENDBRANCH   2  24
TORSDOF 3
ENDMDL
MODEL 2
REMARK VINA RESULT:      -8.2      0.116      1.010
REMARK  Name = 
REMARK  3 active torsions:
REMARK  status: ('A' for Active; 'I' for Inactive)
REMARK    1  A    between atoms: C_2  and  C_10
REMARK    2  A    between atoms: C_11  and  O_12
REMARK    3  A    between atoms: C_14  and  C_15
REMARK                            x       y       z     vdW  Elec       q    Type
REMARK                         _______ _______ _______ _____ _____    ______ ____
ROOT
ATOM      1  C   UNL     1       2.447   7.490  18.703  0.00  0.00    +0.000 A 
ATOM      2  C   UNL     1       2.183   7.069  19.955  0.00  0.00    +0.000 A 
ATOM      3  C   UNL     1       1.444   7.880  20.877  0.00  0.00    +0.000 A 
ATOM      4  C   UNL     1       0.988   9.078  20.492  0.00  0.00    +0.000 A 
ATOM      5  O   UNL     1       1.201   9.546  19.177  0.00  0.00    +0.000 OA
ATOM      6  C   UNL     1       1.925   8.811  18.282  0.00  0.00    +0.000 A 
ATOM      7  O   UNL     1       2.151   9.236  17.149  0.00  0.00    +0.000 OA
ENDROOT
BRANCH   1   9
ATOM      8  O   UNL     1       2.835   5.522  17.463  0.00  0.00    +0.000 OA
ATOM      9  C   UNL     1       3.272   6.623  17.803  0.00  0.00    +0.000 C 
ATOM     10  N   UNL     1       4.502   7.121  17.472  0.00  0.00    +0.000 N 
ATOM     11  C   UNL     1       5.401   6.455  16.691  0.00  0.00    +0.000 A 
ATOM     12  N   UNL     1       6.651   6.804  16.477  0.00  0.00    +0.000 NA
ATOM     13  N   UNL     1       7.168   5.872  15.601  0.00  0.00    +0.000 NA
ATOM     14  C   UNL     1       6.186   5.040  15.323  0.00  0.00    +0.000 A 
ATOM     15 BR   UNL     1       6.334   3.634  14.100  0.00  0.00    +0.000 Br
ATOM     16  O   UNL     1       5.035   5.340  15.999  0.00  0.00    +0.000 OA
ATOM     17  H   UNL     1       4.823   8.018  17.834  0.00  0.00    +0.000 HD
ENDBRANCH   1   9
BRANCH   4  18
ATOM     18  C   UNL     1       0.232   9.988  21.373  0.00  0.00    +0.000 A 
ATOM     19  C   UNL     1       0.014  11.327  21.021  0.00  0.00    +0.000 A 
ATOM     20  C   UNL     1      -0.693  12.185  21.865  0.00  0.00    +0.000 A 
ATOM     21  C   UNL     1      -1.201  11.715  23.075  0.00  0.00    +0.000 A 
ATOM     22  C   UNL     1      -1.010  10.380  23.430  0.00  0.00    +0.000 A 
ATOM     23  C   UNL     1      -0.306   9.521  22.582  0.00  0.00    +0.000 A 
ENDBRANCH   4  18
BRANCH   2  24
ATOM     24  O   UNL     1       2.588   5.873  20.505  0.00  0.00    +0.000 OA
ATOM     25  H   UNL     1       2.438   5.902  21.478  0.00  0.00    +0.000 HD
ENDBRANCH   2  24
TORSDOF 3
ENDMDL
MODEL 3
REMARK VINA RESULT:      -7.7      4.508      8.487
REMARK  Name = 
REMARK  3 active torsions:
REMARK  status: ('A' for Active; 'I' for Inactive)
REMARK    1  A    between atoms: C_2  and  C_10
REMARK    2  A    between atoms: C_11  and  O_12
REMARK    3  A    between atoms: C_14  and  C_15
REMARK                            x       y       z     vdW  Elec       q    Type
REMARK                         _______ _______ _______ _____ _____    ______ ____
ROOT
ATOM      1  C   UNL     1       1.621   8.630  19.161  0.00  0.00    +0.000 A 
ATOM      2  C   UNL     1       2.220   8.964  18.002  0.00  0.00    +0.000 A 
ATOM      3  C   UNL     1       3.222   8.128  17.410  0.00  0.00    +0.000 A 
ATOM      4  C   UNL     1       3.568   6.980  18.005  0.00  0.00    +0.000 A 
ATOM      5  O   UNL     1       2.938   6.564  19.199  0.00  0.00    +0.000 OA
ATOM      6  C   UNL     1       1.999   7.350  19.804  0.00  0.00    +0.000 A 
ATOM      7  O   UNL     1       1.482   7.012  20.869  0.00  0.00    +0.000 OA
ENDROOT
BRANCH   1   9
ATOM      8  O   UNL     1      -0.080  10.256  19.016  0.00  0.00    +0.000 OA
ATOM      9  C   UNL     1       0.622   9.571  19.761  0.00  0.00    +0.000 C 
ATOM     10  N   UNL     1       0.615   9.629  21.127  0.00  0.00    +0.000 N 
ATOM     11  C   UNL     1      -0.202  10.453  21.844  0.00  0.00    +0.000 A 
ATOM     12  N   UNL     1      -0.140  10.674  23.138  0.00  0.00    +0.000 NA
ATOM     13  N   UNL     1      -1.175  11.536  23.434  0.00  0.00    +0.000 NA
ATOM     14  C   UNL     1      -1.812  11.754  22.302  0.00  0.00    +0.000 A 
ATOM     15 BR   UNL     1      -3.363  12.788  22.167  0.00  0.00    +0.000 Br
ATOM     16  O   UNL     1      -1.233  11.111  21.242  0.00  0.00    +0.000 OA
ATOM     17  H   UNL     1       1.263   9.072  21.682  0.00  0.00    +0.000 HD
ENDBRANCH   1   9
BRANCH   4  18
ATOM     18  C   UNL     1       4.597   6.063  17.480  0.00  0.00    +0.000 A 
ATOM     19  C   UNL     1       5.953   6.419  17.470  0.00  0.00    +0.000 A 
ATOM     20  C   UNL     1       6.920   5.550  16.961  0.00  0.00    +0.000 A 
ATOM     21  C   UNL     1       6.546   4.304  16.460  0.00  0.00    +0.000 A 
ATOM     22  C   UNL     1       5.204   3.926  16.482  0.00  0.00    +0.000 A 
ATOM     23  C   UNL     1       4.238   4.796  16.995  0.00  0.00    +0.000 A 
ENDBRANCH   4  18
BRANCH   2  24
ATOM     24  O   UNL     1       1.985  10.109  17.274  0.00  0.00    +0.000 OA
ATOM     25  H   UNL     1       1.319   9.913  16.576  0.00  0.00    +0.000 HD
ENDBRANCH   2  24
TORSDOF 3
ENDMDL
MODEL 4
REMARK VINA RESULT:      -7.7      4.489      8.453
REMARK  Name = 
REMARK  3 active torsions:
REMARK  status: ('A' for Active; 'I' for Inactive)
REMARK    1  A    between atoms: C_2  and  C_10
REMARK    2  A    between atoms: C_11  and  O_12
REMARK    3  A    between atoms: C_14  and  C_15
REMARK                            x       y       z     vdW  Elec       q    Type
REMARK                         _______ _______ _______ _____ _____    ______ ____
ROOT
ATOM      1  C   UNL     1       1.642   8.629  19.131  0.00  0.00    +0.000 A 
ATOM      2  C   UNL     1       2.231   8.972  17.970  0.00  0.00    +0.000 A 
ATOM      3  C   UNL     1       3.227   8.140  17.362  0.00  0.00    +0.000 A 
ATOM      4  C   UNL     1       3.577   6.987  17.945  0.00  0.00    +0.000 A 
ATOM      5  O   UNL     1       2.957   6.562  19.141  0.00  0.00    +0.000 OA
ATOM      6  C   UNL     1       2.024   7.344  19.761  0.00  0.00    +0.000 A 
ATOM      7  O   UNL     1       1.515   6.999  20.827  0.00  0.00    +0.000 OA
ENDROOT
BRANCH   1   9
ATOM      8  O   UNL     1      -0.052  10.267  19.013  0.00  0.00    +0.000 OA
ATOM      9  C   UNL     1       0.648   9.567  19.747  0.00  0.00    +0.000 C 
ATOM     10  N   UNL     1       0.645   9.605  21.114  0.00  0.00    +0.000 N 
ATOM     11  C   UNL     1      -0.167  10.423  21.844  0.00  0.00    +0.000 A 
ATOM     12  N   UNL     1      -0.100  10.625  23.142  0.00  0.00    +0.000 NA
ATOM     13  N   UNL     1      -1.131  11.488  23.453  0.00  0.00    +0.000 NA
ATOM     14  C   UNL     1      -1.768  11.725  22.325  0.00  0.00    +0.000 A 
ATOM     15 BR   UNL     1      -3.315  12.769  22.209  0.00  0.00    +0.000 Br
ATOM     16  O   UNL     1      -1.196  11.095  21.255  0.00  0.00    +0.000 OA
ATOM     17  H   UNL     1       1.291   9.036  21.659  0.00  0.00    +0.000 HD
ENDBRANCH   1   9
BRANCH   4  18
ATOM     18  C   UNL     1       4.601   6.073  17.404  0.00  0.00    +0.000 A 
ATOM     19  C   UNL     1       4.272   4.775  16.991  0.00  0.00    +0.000 A 
ATOM     20  C   UNL     1       5.249   3.912  16.490  0.00  0.00    +0.000 A 
ATOM     21  C   UNL     1       6.572   4.338  16.388  0.00  0.00    +0.000 A 
ATOM     22  C   UNL     1       6.911   5.633  16.775  0.00  0.00    +0.000 A 
ATOM     23  C   UNL     1       5.932   6.497  17.273  0.00  0.00    +0.000 A 
ENDBRANCH   4  18
BRANCH   2  24
ATOM     24  O   UNL     1       1.991  10.123  17.252  0.00  0.00    +0.000 OA
ATOM     25  H   UNL     1       2.712  10.768  17.433  0.00  0.00    +0.000 HD
ENDBRANCH   2  24
TORSDOF 3
ENDMDL
MODEL 5
REMARK VINA RESULT:      -7.7      0.683      2.016
REMARK  Name = 
REMARK  3 active torsions:
REMARK  status: ('A' for Active; 'I' for Inactive)
REMARK    1  A    between atoms: C_2  and  C_10
REMARK    2  A    between atoms: C_11  and  O_12
REMARK    3  A    between atoms: C_14  and  C_15
REMARK                            x       y       z     vdW  Elec       q    Type
REMARK                         _______ _______ _______ _____ _____    ______ ____
ROOT
ATOM      1  C   UNL     1       2.533   7.396  18.674  0.00  0.00    +0.000 A 
ATOM      2  C   UNL     1       2.129   8.617  18.274  0.00  0.00    +0.000 A 
ATOM      3  C   UNL     1       1.319   9.449  19.113  0.00  0.00    +0.000 A 
ATOM      4  C   UNL     1       0.963   9.021  20.330  0.00  0.00    +0.000 A 
ATOM      5  O   UNL     1       1.397   7.766  20.812  0.00  0.00    +0.000 OA
ATOM      6  C   UNL     1       2.146   6.936  20.028  0.00  0.00    +0.000 A 
ATOM      7  O   UNL     1       2.487   5.824  20.428  0.00  0.00    +0.000 OA
ENDROOT
BRANCH   1   9
ATOM      8  O   UNL     1       2.862   5.478  17.341  0.00  0.00    +0.000 OA
ATOM      9  C   UNL     1       3.331   6.549  17.730  0.00  0.00    +0.000 C 
ATOM     10  N   UNL     1       4.574   7.027  17.419  0.00  0.00    +0.000 N 
ATOM     11  C   UNL     1       5.451   6.374  16.604  0.00  0.00    +0.000 A 
ATOM     12  N   UNL     1       6.710   6.696  16.401  0.00  0.00    +0.000 NA
ATOM     13  N   UNL     1       7.198   5.793  15.480  0.00  0.00    +0.000 NA
ATOM     14  C   UNL     1       6.191   5.003  15.167  0.00  0.00    +0.000 A 
ATOM     15 BR   UNL     1       6.296   3.653  13.878  0.00  0.00    +0.000 Br
ATOM     16  O   UNL     1       5.052   5.303  15.861  0.00  0.00    +0.000 OA
ATOM     17  H   UNL     1       4.921   7.896  17.821  0.00  0.00    +0.000 HD
ENDBRANCH   1   9
BRANCH   4  18
ATOM     18  C   UNL     1       0.120   9.799  21.258  0.00  0.00    +0.000 A 
ATOM     19  C   UNL     1      -0.467  11.009  20.867  0.00  0.00    +0.000 A 
ATOM     20  C   UNL     1      -1.255  11.745  21.755  0.00  0.00    +0.000 A 
ATOM     21  C   UNL     1      -1.473  11.276  23.049  0.00  0.00    +0.000 A 
ATOM     22  C   UNL     1      -0.913  10.063  23.447  0.00  0.00    +0.000 A 
ATOM     23  C   UNL     1      -0.128   9.326  22.556  0.00  0.00    +0.000 A 
ENDBRANCH   4  18
BRANCH   2  24
ATOM     24  O   UNL     1       2.402   9.197  17.054  0.00  0.00    +0.000 OA
ATOM     25  H   UNL     1       2.888  10.040  17.204  0.00  0.00    +0.000 HD
ENDBRANCH   2  24
TORSDOF 3
ENDMDL
MODEL 6
REMARK VINA RESULT:      -7.7      0.710      1.777
REMARK  Name = 
REMARK  3 active torsions:
REMARK  status: ('A' for Active; 'I' for Inactive)
REMARK    1  A    between atoms: C_2  and  C_10
REMARK    2  A    between atoms: C_11  and  O_12
REMARK    3  A    between atoms: C_14  and  C_15
REMARK                            x       y       z     vdW  Elec       q    Type
REMARK                         _______ _______ _______ _____ _____    ______ ____
ROOT
ATOM      1  C   UNL     1       2.576   7.348  18.656  0.00  0.00    +0.000 A 
ATOM      2  C   UNL     1       2.169   8.570  18.264  0.00  0.00    +0.000 A 
ATOM      3  C   UNL     1       1.362   9.398  19.112  0.00  0.00    +0.000 A 
ATOM      4  C   UNL     1       1.011   8.962  20.328  0.00  0.00    +0.000 A 
ATOM      5  O   UNL     1       1.449   7.706  20.802  0.00  0.00    +0.000 OA
ATOM      6  C   UNL     1       2.196   6.881  20.010  0.00  0.00    +0.000 A 
ATOM      7  O   UNL     1       2.541   5.767  20.403  0.00  0.00    +0.000 OA
ENDROOT
BRANCH   1   9
ATOM      8  O   UNL     1       2.906   5.432  17.321  0.00  0.00    +0.000 OA
ATOM      9  C   UNL     1       3.370   6.507  17.705  0.00  0.00    +0.000 C 
ATOM     10  N   UNL     1       4.605   6.995  17.379  0.00  0.00    +0.000 N 
ATOM     11  C   UNL     1       5.480   6.348  16.555  0.00  0.00    +0.000 A 
ATOM     12  N   UNL     1       6.733   6.681  16.339  0.00  0.00    +0.000 NA
ATOM     13  N   UNL     1       7.219   5.781  15.413  0.00  0.00    +0.000 NA
ATOM     14  C   UNL     1       6.215   4.982  15.111  0.00  0.00    +0.000 A 
ATOM     15 BR   UNL     1       6.317   3.632  13.822  0.00  0.00    +0.000 Br
ATOM     16  O   UNL     1       5.081   5.274  15.817  0.00  0.00    +0.000 OA
ATOM     17  H   UNL     1       4.950   7.867  17.777  0.00  0.00    +0.000 HD
ENDBRANCH   1   9
BRANCH   4  18
ATOM     18  C   UNL     1       0.172   9.734  21.265  0.00  0.00    +0.000 A 
ATOM     19  C   UNL     1      -0.028   9.306  22.584  0.00  0.00    +0.000 A 
ATOM     20  C   UNL     1      -0.833  10.037  23.461  0.00  0.00    +0.000 A 
ATOM     21  C   UNL     1      -1.444  11.214  23.033  0.00  0.00    +0.000 A 
ATOM     22  C   UNL     1      -1.237  11.664  21.730  0.00  0.00    +0.000 A 
ATOM     23  C   UNL     1      -0.429  10.934  20.854  0.00  0.00    +0.000 A 
ENDBRANCH   4  18
BRANCH   2  24
ATOM     24  O   UNL     1       2.435   9.157  17.047  0.00  0.00    +0.000 OA
ATOM     25  H   UNL     1       2.283  10.127  17.120  0.00  0.00    +0.000 HD
ENDBRANCH   2  24
TORSDOF 3
ENDMDL
MODEL 7
REMARK VINA RESULT:      -7.5      4.481      8.276
REMARK  Name = 
REMARK  3 active torsions:
REMARK  status: ('A' for Active; 'I' for Inactive)
REMARK    1  A    between atoms: C_2  and  C_10
REMARK    2  A    between atoms: C_11  and  O_12
REMARK    3  A    between atoms: C_14  and  C_15
REMARK                            x       y       z     vdW  Elec       q    Type
REMARK                         _______ _______ _______ _____ _____    ______ ____
ROOT
ATOM      1  C   UNL     1       1.881   8.397  19.351  0.00  0.00    +0.000 A 
ATOM      2  C   UNL     1       2.200   7.184  19.844  0.00  0.00    +0.000 A 
ATOM      3  C   UNL     1       3.003   6.261  19.098  0.00  0.00    +0.000 A 
ATOM      4  C   UNL     1       3.464   6.605  17.890  0.00  0.00    +0.000 A 
ATOM      5  O   UNL     1       3.194   7.882  17.348  0.00  0.00    +0.000 OA
ATOM      6  C   UNL     1       2.409   8.775  18.021  0.00  0.00    +0.000 A 
ATOM      7  O   UNL     1       2.135   9.870  17.531  0.00  0.00    +0.000 OA
ENDROOT
BRANCH   1   9
ATOM      8  O   UNL     1       1.071   9.279  21.383  0.00  0.00    +0.000 OA
ATOM      9  C   UNL     1       0.992   9.297  20.154  0.00  0.00    +0.000 C 
ATOM     10  N   UNL     1       0.103  10.042  19.430  0.00  0.00    +0.000 N 
ATOM     11  C   UNL     1      -0.805  10.890  19.993  0.00  0.00    +0.000 A 
ATOM     12  N   UNL     1      -1.787  11.502  19.368  0.00  0.00    +0.000 NA
ATOM     13  N   UNL     1      -2.421  12.282  20.312  0.00  0.00    +0.000 NA
ATOM     14  C   UNL     1      -1.760  12.111  21.439  0.00  0.00    +0.000 A 
ATOM     15 BR   UNL     1      -2.155  13.023  23.021  0.00  0.00    +0.000 Br
ATOM     16  O   UNL     1      -0.729  11.221  21.313  0.00  0.00    +0.000 OA
ATOM     17  H   UNL     1       0.055   9.967  18.415  0.00  0.00    +0.000 HD
ENDBRANCH   1   9
BRANCH   4  18
ATOM     18  C   UNL     1       4.284   5.719  17.042  0.00  0.00    +0.000 A 
ATOM     19  C   UNL     1       4.265   4.328  17.213  0.00  0.00    +0.000 A 
ATOM     20  C   UNL     1       5.052   3.496  16.413  0.00  0.00    +0.000 A 
ATOM     21  C   UNL     1       5.866   4.044  15.424  0.00  0.00    +0.000 A 
ATOM     22  C   UNL     1       5.881   5.424  15.228  0.00  0.00    +0.000 A 
ATOM     23  C   UNL     1       5.089   6.255  16.026  0.00  0.00    +0.000 A 
ENDBRANCH   4  18
BRANCH   2  24
ATOM     24  O   UNL     1       1.798   6.677  21.060  0.00  0.00    +0.000 OA
ATOM     25  H   UNL     1       2.430   5.975  21.338  0.00  0.00    +0.000 HD
ENDBRANCH   2  24
TORSDOF 3
ENDMDL
MODEL 8
REMARK VINA RESULT:      -7.5      4.489      8.337
REMARK  Name = 
REMARK  3 active torsions:
REMARK  status: ('A' for Active; 'I' for Inactive)
REMARK    1  A    between atoms: C_2  and  C_10
REMARK    2  A    between atoms: C_11  and  O_12
REMARK    3  A    between atoms: C_14  and  C_15
REMARK                            x       y       z     vdW  Elec       q    Type
REMARK                         _______ _______ _______ _____ _____    ______ ____
ROOT
ATOM      1  C   UNL     1       1.877   8.422  19.355  0.00  0.00    +0.000 A 
ATOM      2  C   UNL     1       2.203   7.213  19.850  0.00  0.00    +0.000 A 
ATOM      3  C   UNL     1       3.011   6.292  19.104  0.00  0.00    +0.000 A 
ATOM      4  C   UNL     1       3.468   6.637  17.894  0.00  0.00    +0.000 A 
ATOM      5  O   UNL     1       3.189   7.911  17.350  0.00  0.00    +0.000 OA
ATOM      6  C   UNL     1       2.400   8.801  18.022  0.00  0.00    +0.000 A 
ATOM      7  O   UNL     1       2.117   9.893  17.531  0.00  0.00    +0.000 OA
ENDROOT
BRANCH   1   9
ATOM      8  O   UNL     1       1.060   9.298  21.387  0.00  0.00    +0.000 OA
ATOM      9  C   UNL     1       0.983   9.318  20.157  0.00  0.00    +0.000 C 
ATOM     10  N   UNL     1       0.094  10.062  19.433  0.00  0.00    +0.000 N 
ATOM     11  C   UNL     1      -0.818  10.907  19.995  0.00  0.00    +0.000 A 
ATOM     12  N   UNL     1      -1.800  11.518  19.369  0.00  0.00    +0.000 NA
ATOM     13  N   UNL     1      -2.438  12.294  20.314  0.00  0.00    +0.000 NA
ATOM     14  C   UNL     1      -1.778  12.123  21.441  0.00  0.00    +0.000 A 
ATOM     15 BR   UNL     1      -2.180  13.031  23.024  0.00  0.00    +0.000 Br
ATOM     16  O   UNL     1      -0.745  11.235  21.316  0.00  0.00    +0.000 OA
ATOM     17  H   UNL     1       0.049   9.990  18.417  0.00  0.00    +0.000 HD
ENDBRANCH   1   9
BRANCH   4  18
ATOM     18  C   UNL     1       4.292   5.754  17.047  0.00  0.00    +0.000 A 
ATOM     19  C   UNL     1       5.110   6.273  16.035  0.00  0.00    +0.000 A 
ATOM     20  C   UNL     1       5.878   5.429  15.230  0.00  0.00    +0.000 A 
ATOM     21  C   UNL     1       5.845   4.051  15.431  0.00  0.00    +0.000 A 
ATOM     22  C   UNL     1       5.053   3.520  16.447  0.00  0.00    +0.000 A 
ATOM     23  C   UNL     1       4.287   4.366  17.255  0.00  0.00    +0.000 A 
ENDBRANCH   4  18
BRANCH   2  24
ATOM     24  O   UNL     1       1.808   6.705  21.068  0.00  0.00    +0.000 OA
ATOM     25  H   UNL     1       2.388   7.075  21.771  0.00  0.00    +0.000 HD
ENDBRANCH   2  24
TORSDOF 3
ENDMDL
MODEL 9
REMARK VINA RESULT:      -7.4      4.574      8.219
REMARK  Name = 
REMARK  3 active torsions:
REMARK  status: ('A' for Active; 'I' for Inactive)
REMARK    1  A    between atoms: C_2  and  C_10
REMARK    2  A    between atoms: C_11  and  O_12
REMARK    3  A    between atoms: C_14  and  C_15
REMARK                            x       y       z     vdW  Elec       q    Type
REMARK                         _______ _______ _______ _____ _____    ______ ____
ROOT
ATOM      1  C   UNL     1       1.592   8.785  19.453  0.00  0.00    +0.000 A 
ATOM      2  C   UNL     1       1.933   7.617  20.031  0.00  0.00    +0.000 A 
ATOM      3  C   UNL     1       2.738   6.650  19.345  0.00  0.00    +0.000 A 
ATOM      4  C   UNL     1       3.180   6.909  18.108  0.00  0.00    +0.000 A 
ATOM      5  O   UNL     1       2.886   8.137  17.476  0.00  0.00    +0.000 OA
ATOM      6  C   UNL     1       2.098   9.069  18.090  0.00  0.00    +0.000 A 
ATOM      7  O   UNL     1       1.803  10.121  17.524  0.00  0.00    +0.000 OA
ENDROOT
BRANCH   1   9
ATOM      8  O   UNL     1      -0.464   9.405  20.428  0.00  0.00    +0.000 OA
ATOM      9  C   UNL     1       0.702   9.732  20.198  0.00  0.00    +0.000 C 
ATOM     10  N   UNL     1       1.262  10.937  20.518  0.00  0.00    +0.000 N 
ATOM     11  C   UNL     1       0.592  11.934  21.165  0.00  0.00    +0.000 A 
ATOM     12  N   UNL     1       1.019  13.163  21.351  0.00  0.00    +0.000 NA
ATOM     13  N   UNL     1       0.041  13.807  22.080  0.00  0.00    +0.000 NA
ATOM     14  C   UNL     1      -0.898  12.913  22.311  0.00  0.00    +0.000 A 
ATOM     15 BR   UNL     1      -2.416  13.249  23.349  0.00  0.00    +0.000 Br
ATOM     16  O   UNL     1      -0.622  11.702  21.739  0.00  0.00    +0.000 OA
ATOM     17  H   UNL     1       2.219  11.163  20.249  0.00  0.00    +0.000 HD
ENDBRANCH   1   9
BRANCH   4  18
ATOM     18  C   UNL     1       4.000   5.971  17.318  0.00  0.00    +0.000 A 
ATOM     19  C   UNL     1       3.862   4.584  17.462  0.00  0.00    +0.000 A 
ATOM     20  C   UNL     1       4.650   3.703  16.718  0.00  0.00    +0.000 A 
ATOM     21  C   UNL     1       5.586   4.198  15.812  0.00  0.00    +0.000 A 
ATOM     22  C   UNL     1       5.721   5.574  15.641  0.00  0.00    +0.000 A 
ATOM     23  C   UNL     1       4.928   6.455  16.384  0.00  0.00    +0.000 A 
ENDBRANCH   4  18
BRANCH   2  24
ATOM     24  O   UNL     1       1.553   7.197  21.287  0.00  0.00    +0.000 OA
ATOM     25  H   UNL     1       0.773   6.603  21.203  0.00  0.00    +0.000 HD
ENDBRANCH   2  24
TORSDOF 3
ENDMDL
