MODEL 1
REMARK VINA RESULT:      -8.3      0.000      0.000
REMARK  Name = 
REMARK  4 active torsions:
REMARK  status: ('A' for Active; 'I' for Inactive)
REMARK    1  A    between atoms: C_2  and  C_11
REMARK    2  A    between atoms: N_3  and  C_4
REMARK    3  A    between atoms: C_4  and  C_5
REMARK    4  A    between atoms: C_13  and  N_14
REMARK                            x       y       z     vdW  Elec       q    Type
REMARK                         _______ _______ _______ _____ _____    ______ ____
ROOT
ATOM      1  C   UNL     1       2.659   4.223  20.067  0.00  0.00    +0.000 A 
ATOM      2  C   UNL     1       3.538   4.599  19.028  0.00  0.00    +0.000 A 
ATOM      3  C   UNL     1       4.637   3.808  18.663  0.00  0.00    +0.000 A 
ATOM      4  C   UNL     1       4.827   2.601  19.351  0.00  0.00    +0.000 A 
ATOM      5  C   UNL     1       3.956   2.207  20.372  0.00  0.00    +0.000 A 
ATOM      6  C   UNL     1       2.867   3.009  20.730  0.00  0.00    +0.000 A 
ATOM      7 CL   UNL     1       1.873   2.434  22.019  0.00  0.00    +0.000 Cl
ENDROOT
BRANCH   3   8
ATOM      8  N   UNL     1       5.525   4.186  17.601  0.00  0.00    +0.000 N 
ATOM      9  N   UNL     1       4.987   4.005  16.337  0.00  0.00    +0.000 NA
ATOM     10  C   UNL     1       5.674   4.404  15.318  0.00  0.00    +0.000 A 
ATOM     11  C   UNL     1       7.029   5.017  15.438  0.00  0.00    +0.000 A 
ATOM     12  O   UNL     1       7.625   5.376  14.434  0.00  0.00    +0.000 OA
ATOM     13  N   UNL     1       7.496   5.117  16.708  0.00  0.00    +0.000 N 
ATOM     14  C   UNL     1       6.810   4.715  17.823  0.00  0.00    +0.000 A 
ATOM     15  O   UNL     1       7.373   4.822  18.912  0.00  0.00    +0.000 OA
ATOM     16  H   UNL     1       8.418   5.496  16.850  0.00  0.00    +0.000 HD
ENDBRANCH   3   8
BRANCH   1  18
ATOM     17  O   UNL     1       0.362   4.737  20.365  0.00  0.00    +0.000 OA
ATOM     18  C   UNL     1       1.520   5.131  20.395  0.00  0.00    +0.000 C 
ATOM     19  N   UNL     1       1.867   6.432  20.710  0.00  0.00    +0.000 N 
ATOM     20  H   UNL     1       2.843   6.694  20.776  0.00  0.00    +0.000 HD
BRANCH  19  21
ATOM     21  C   UNL     1       0.888   7.423  21.117  0.00  0.00    +0.000 C 
BRANCH  21  22
ATOM     22  C   UNL     1       1.510   8.821  21.309  0.00  0.00    +0.000 C 
ATOM     23  C   UNL     1       0.910   9.884  20.372  0.00  0.00    +0.000 C 
ATOM     24  C   UNL     1      -0.540  10.224  20.712  0.00  0.00    +0.000 C 
ATOM     25  C   UNL     1      -0.703  10.634  22.175  0.00  0.00    +0.000 C 
ATOM     26  C   UNL     1      -0.078   9.631  23.140  0.00  0.00    +0.000 C 
ATOM     27  C   UNL     1       1.367   9.299  22.766  0.00  0.00    +0.000 C 
ENDBRANCH  21  22
ENDBRANCH  19  21
ENDBRANCH   1  18
TORSDOF 4
ENDMDL
MODEL 2
REMARK VINA RESULT:      -8.3      1.715      2.178
REMARK  Name = 
REMARK  4 active torsions:
REMARK  status: ('A' for Active; 'I' for Inactive)
REMARK    1  A    between atoms: C_2  and  C_11
REMARK    2  A    between atoms: N_3  and  C_4
REMARK    3  A    between atoms: C_4  and  C_5
REMARK    4  A    between atoms: C_13  and  N_14
REMARK                            x       y       z     vdW  Elec       q    Type
REMARK                         _______ _______ _______ _____ _____    ______ ____
ROOT
ATOM      1  C   UNL     1       2.844   6.105  18.780  0.00  0.00    +0.000 A 
ATOM      2  C   UNL     1       3.840   6.115  17.781  0.00  0.00    +0.000 A 
ATOM      3  C   UNL     1       4.416   4.933  17.294  0.00  0.00    +0.000 A 
ATOM      4  C   UNL     1       3.948   3.718  17.816  0.00  0.00    +0.000 A 
ATOM      5  C   UNL     1       2.949   3.691  18.796  0.00  0.00    +0.000 A 
ATOM      6  C   UNL     1       2.389   4.878  19.277  0.00  0.00    +0.000 A 
ATOM      7 CL   UNL     1       1.181   4.724  20.500  0.00  0.00    +0.000 Cl
ENDROOT
BRANCH   3   8
ATOM      8  N   UNL     1       5.422   4.943  16.271  0.00  0.00    +0.000 N 
ATOM      9  N   UNL     1       5.054   4.263  15.122  0.00  0.00    +0.000 NA
ATOM     10  C   UNL     1       5.855   4.296  14.109  0.00  0.00    +0.000 A 
ATOM     11  C   UNL     1       7.170   5.002  14.132  0.00  0.00    +0.000 A 
ATOM     12  O   UNL     1       7.880   4.996  13.138  0.00  0.00    +0.000 OA
ATOM     13  N   UNL     1       7.470   5.603  15.310  0.00  0.00    +0.000 N 
ATOM     14  C   UNL     1       6.657   5.605  16.412  0.00  0.00    +0.000 A 
ATOM     15  O   UNL     1       7.075   6.152  17.433  0.00  0.00    +0.000 OA
ATOM     16  H   UNL     1       8.357   6.071  15.396  0.00  0.00    +0.000 HD
ENDBRANCH   3   8
BRANCH   1  18
ATOM     17  O   UNL     1       2.011   8.303  18.456  0.00  0.00    +0.000 OA
ATOM     18  C   UNL     1       2.293   7.412  19.246  0.00  0.00    +0.000 C 
ATOM     19  N   UNL     1       2.149   7.542  20.616  0.00  0.00    +0.000 N 
ATOM     20  H   UNL     1       2.344   6.755  21.222  0.00  0.00    +0.000 HD
BRANCH  19  21
ATOM     21  C   UNL     1       1.566   8.722  21.228  0.00  0.00    +0.000 C 
BRANCH  21  22
ATOM     22  C   UNL     1       0.028   8.743  21.119  0.00  0.00    +0.000 C 
ATOM     23  C   UNL     1      -0.675   8.755  22.488  0.00  0.00    +0.000 C 
ATOM     24  C   UNL     1      -0.476  10.066  23.247  0.00  0.00    +0.000 C 
ATOM     25  C   UNL     1      -0.889  11.277  22.412  0.00  0.00    +0.000 C 
ATOM     26  C   UNL     1      -0.253  11.282  21.025  0.00  0.00    +0.000 C 
ATOM     27  C   UNL     1      -0.455   9.952  20.297  0.00  0.00    +0.000 C 
ENDBRANCH  21  22
ENDBRANCH  19  21
ENDBRANCH   1  18
TORSDOF 4
ENDMDL
MODEL 3
REMARK VINA RESULT:      -8.2      1.793      2.095
REMARK  Name = 
REMARK  4 active torsions:
REMARK  status: ('A' for Active; 'I' for Inactive)
REMARK    1  A    between atoms: C_2  and  C_11
REMARK    2  A    between atoms: N_3  and  C_4
REMARK    3  A    between atoms: C_4  and  C_5
REMARK    4  A    between atoms: C_13  and  N_14
REMARK                            x       y       z     vdW  Elec       q    Type
REMARK                         _______ _______ _______ _____ _____    ______ ____
ROOT
ATOM      1  C   UNL     1       2.705   5.260  19.259  0.00  0.00    +0.000 A 
ATOM      2  C   UNL     1       3.738   5.431  18.314  0.00  0.00    +0.000 A 
ATOM      3  C   UNL     1       4.387   4.339  17.718  0.00  0.00    +0.000 A 
ATOM      4  C   UNL     1       3.956   3.053  18.073  0.00  0.00    +0.000 A 
ATOM      5  C   UNL     1       2.921   2.868  18.997  0.00  0.00    +0.000 A 
ATOM      6  C   UNL     1       2.288   3.966  19.588  0.00  0.00    +0.000 A 
ATOM      7 CL   UNL     1       1.041   3.617  20.730  0.00  0.00    +0.000 Cl
ENDROOT
BRANCH   3   8
ATOM      8  N   UNL     1       5.431   4.513  16.750  0.00  0.00    +0.000 N 
ATOM      9  N   UNL     1       4.971   4.602  15.446  0.00  0.00    +0.000 NA
ATOM     10  C   UNL     1       5.827   4.854  14.512  0.00  0.00    +0.000 A 
ATOM     11  C   UNL     1       7.288   5.018  14.767  0.00  0.00    +0.000 A 
ATOM     12  O   UNL     1       8.045   5.257  13.838  0.00  0.00    +0.000 OA
ATOM     13  N   UNL     1       7.657   4.872  16.064  0.00  0.00    +0.000 N 
ATOM     14  C   UNL     1       6.793   4.611  17.094  0.00  0.00    +0.000 A 
ATOM     15  O   UNL     1       7.270   4.457  18.219  0.00  0.00    +0.000 OA
ATOM     16  H   UNL     1       8.635   4.944  16.295  0.00  0.00    +0.000 HD
ENDBRANCH   3   8
BRANCH   1  18
ATOM     17  O   UNL     1       1.601   6.468  20.978  0.00  0.00    +0.000 OA
ATOM     18  C   UNL     1       2.076   6.479  19.850  0.00  0.00    +0.000 C 
ATOM     19  N   UNL     1       2.054   7.594  19.031  0.00  0.00    +0.000 N 
ATOM     20  H   UNL     1       2.510   7.567  18.128  0.00  0.00    +0.000 HD
BRANCH  19  21
ATOM     21  C   UNL     1       1.540   8.876  19.475  0.00  0.00    +0.000 C 
BRANCH  21  22
ATOM     22  C   UNL     1       1.160   9.797  18.298  0.00  0.00    +0.000 C 
ATOM     23  C   UNL     1      -0.360   9.930  18.099  0.00  0.00    +0.000 C 
ATOM     24  C   UNL     1      -1.041  10.701  19.229  0.00  0.00    +0.000 C 
ATOM     25  C   UNL     1      -0.400  12.069  19.455  0.00  0.00    +0.000 C 
ATOM     26  C   UNL     1       1.116  11.991  19.608  0.00  0.00    +0.000 C 
ATOM     27  C   UNL     1       1.768  11.202  18.472  0.00  0.00    +0.000 C 
ENDBRANCH  21  22
ENDBRANCH  19  21
ENDBRANCH   1  18
TORSDOF 4
ENDMDL
MODEL 4
REMARK VINA RESULT:      -8.2      1.410      2.069
REMARK  Name = 
REMARK  4 active torsions:
REMARK  status: ('A' for Active; 'I' for Inactive)
REMARK    1  A    between atoms: C_2  and  C_11
REMARK    2  A    between atoms: N_3  and  C_4
REMARK    3  A    between atoms: C_4  and  C_5
REMARK    4  A    between atoms: C_13  and  N_14
REMARK                            x       y       z     vdW  Elec       q    Type
REMARK                         _______ _______ _______ _____ _____    ______ ____
ROOT
ATOM      1  C   UNL     1       2.648   4.759  19.383  0.00  0.00    +0.000 A 
ATOM      2  C   UNL     1       3.672   5.043  18.454  0.00  0.00    +0.000 A 
ATOM      3  C   UNL     1       4.338   4.029  17.750  0.00  0.00    +0.000 A 
ATOM      4  C   UNL     1       3.933   2.705  17.977  0.00  0.00    +0.000 A 
ATOM      5  C   UNL     1       2.909   2.409  18.882  0.00  0.00    +0.000 A 
ATOM      6  C   UNL     1       2.258   3.430  19.583  0.00  0.00    +0.000 A 
ATOM      7 CL   UNL     1       1.025   2.945  20.690  0.00  0.00    +0.000 Cl
ENDROOT
BRANCH   3   8
ATOM      8  N   UNL     1       5.373   4.318  16.799  0.00  0.00    +0.000 N 
ATOM      9  N   UNL     1       4.921   4.390  15.492  0.00  0.00    +0.000 NA
ATOM     10  C   UNL     1       5.761   4.739  14.573  0.00  0.00    +0.000 A 
ATOM     11  C   UNL     1       7.197   5.033  14.851  0.00  0.00    +0.000 A 
ATOM     12  O   UNL     1       7.939   5.360  13.938  0.00  0.00    +0.000 OA
ATOM     13  N   UNL     1       7.563   4.896  16.151  0.00  0.00    +0.000 N 
ATOM     14  C   UNL     1       6.715   4.535  17.164  0.00  0.00    +0.000 A 
ATOM     15  O   UNL     1       7.192   4.404  18.291  0.00  0.00    +0.000 OA
ATOM     16  H   UNL     1       8.527   5.054  16.396  0.00  0.00    +0.000 HD
ENDBRANCH   3   8
BRANCH   1  18
ATOM     17  O   UNL     1       1.241   5.715  21.036  0.00  0.00    +0.000 OA
ATOM     18  C   UNL     1       2.000   5.900  20.095  0.00  0.00    +0.000 C 
ATOM     19  N   UNL     1       2.304   7.157  19.604  0.00  0.00    +0.000 N 
ATOM     20  H   UNL     1       2.982   7.259  18.859  0.00  0.00    +0.000 HD
BRANCH  19  21
ATOM     21  C   UNL     1       1.811   8.374  20.222  0.00  0.00    +0.000 C 
BRANCH  21  22
ATOM     22  C   UNL     1       0.666   9.022  19.415  0.00  0.00    +0.000 C 
ATOM     23  C   UNL     1       0.058  10.252  20.112  0.00  0.00    +0.000 C 
ATOM     24  C   UNL     1       1.015  11.442  20.157  0.00  0.00    +0.000 C 
ATOM     25  C   UNL     1       1.540  11.806  18.770  0.00  0.00    +0.000 C 
ATOM     26  C   UNL     1       2.110  10.604  18.022  0.00  0.00    +0.000 C 
ATOM     27  C   UNL     1       1.137   9.425  18.006  0.00  0.00    +0.000 C 
ENDBRANCH  21  22
ENDBRANCH  19  21
ENDBRANCH   1  18
TORSDOF 4
ENDMDL
MODEL 5
REMARK VINA RESULT:      -8.2      1.054      1.505
REMARK  Name = 
REMARK  4 active torsions:
REMARK  status: ('A' for Active; 'I' for Inactive)
REMARK    1  A    between atoms: C_2  and  C_11
REMARK    2  A    between atoms: N_3  and  C_4
REMARK    3  A    between atoms: C_4  and  C_5
REMARK    4  A    between atoms: C_13  and  N_14
REMARK                            x       y       z     vdW  Elec       q    Type
REMARK                         _______ _______ _______ _____ _____    ______ ____
ROOT
ATOM      1  C   UNL     1       2.773   4.649  19.884  0.00  0.00    +0.000 A 
ATOM      2  C   UNL     1       3.651   4.943  18.819  0.00  0.00    +0.000 A 
ATOM      3  C   UNL     1       4.647   4.045  18.408  0.00  0.00    +0.000 A 
ATOM      4  C   UNL     1       4.729   2.814  19.077  0.00  0.00    +0.000 A 
ATOM      5  C   UNL     1       3.855   2.502  20.124  0.00  0.00    +0.000 A 
ATOM      6  C   UNL     1       2.872   3.411  20.528  0.00  0.00    +0.000 A 
ATOM      7 CL   UNL     1       1.865   2.927  21.844  0.00  0.00    +0.000 Cl
ENDROOT
BRANCH   3   8
ATOM      8  N   UNL     1       5.534   4.340  17.320  0.00  0.00    +0.000 N 
ATOM      9  N   UNL     1       4.911   4.347  16.082  0.00  0.00    +0.000 NA
ATOM     10  C   UNL     1       5.606   4.695  15.050  0.00  0.00    +0.000 A 
ATOM     11  C   UNL     1       7.053   5.055  15.125  0.00  0.00    +0.000 A 
ATOM     12  O   UNL     1       7.653   5.377  14.112  0.00  0.00    +0.000 OA
ATOM     13  N   UNL     1       7.592   4.979  16.368  0.00  0.00    +0.000 N 
ATOM     14  C   UNL     1       6.902   4.621  17.495  0.00  0.00    +0.000 A 
ATOM     15  O   UNL     1       7.528   4.550  18.553  0.00  0.00    +0.000 OA
ATOM     16  H   UNL     1       8.572   5.182  16.477  0.00  0.00    +0.000 HD
ENDBRANCH   3   8
BRANCH   1  18
ATOM     17  O   UNL     1       0.606   5.345  20.555  0.00  0.00    +0.000 OA
ATOM     18  C   UNL     1       1.749   5.668  20.261  0.00  0.00    +0.000 C 
ATOM     19  N   UNL     1       2.179   6.983  20.232  0.00  0.00    +0.000 N 
ATOM     20  H   UNL     1       3.150   7.193  20.037  0.00  0.00    +0.000 HD
BRANCH  19  21
ATOM     21  C   UNL     1       1.330   8.089  20.634  0.00  0.00    +0.000 C 
BRANCH  21  22
ATOM     22  C   UNL     1       1.730   9.415  19.955  0.00  0.00    +0.000 C 
ATOM     23  C   UNL     1       1.738   9.329  18.418  0.00  0.00    +0.000 C 
ATOM     24  C   UNL     1       0.338   9.175  17.825  0.00  0.00    +0.000 C 
ATOM     25  C   UNL     1      -0.609  10.273  18.304  0.00  0.00    +0.000 C 
ATOM     26  C   UNL     1      -0.612  10.428  19.822  0.00  0.00    +0.000 C 
ATOM     27  C   UNL     1       0.802  10.564  20.388  0.00  0.00    +0.000 C 
ENDBRANCH  21  22
ENDBRANCH  19  21
ENDBRANCH   1  18
TORSDOF 4
ENDMDL
MODEL 6
REMARK VINA RESULT:      -7.9      1.446      1.793
REMARK  Name = 
REMARK  4 active torsions:
REMARK  status: ('A' for Active; 'I' for Inactive)
REMARK    1  A    between atoms: C_2  and  C_11
REMARK    2  A    between atoms: N_3  and  C_4
REMARK    3  A    between atoms: C_4  and  C_5
REMARK    4  A    between atoms: C_13  and  N_14
REMARK                            x       y       z     vdW  Elec       q    Type
REMARK                         _______ _______ _______ _____ _____    ______ ____
ROOT
ATOM      1  C   UNL     1       2.610   4.806  19.104  0.00  0.00    +0.000 A 
ATOM      2  C   UNL     1       3.711   5.127  18.282  0.00  0.00    +0.000 A 
ATOM      3  C   UNL     1       4.190   4.243  17.304  0.00  0.00    +0.000 A 
ATOM      4  C   UNL     1       3.516   3.023  17.143  0.00  0.00    +0.000 A 
ATOM      5  C   UNL     1       2.413   2.698  17.940  0.00  0.00    +0.000 A 
ATOM      6  C   UNL     1       1.951   3.586  18.917  0.00  0.00    +0.000 A 
ATOM      7 CL   UNL     1       0.597   3.069  19.855  0.00  0.00    +0.000 Cl
ENDROOT
BRANCH   3   8
ATOM      8  N   UNL     1       5.303   4.573  16.461  0.00  0.00    +0.000 N 
ATOM      9  N   UNL     1       5.170   4.117  15.160  0.00  0.00    +0.000 NA
ATOM     10  C   UNL     1       6.077   4.446  14.301  0.00  0.00    +0.000 A 
ATOM     11  C   UNL     1       7.276   5.263  14.654  0.00  0.00    +0.000 A 
ATOM     12  O   UNL     1       8.097   5.541  13.793  0.00  0.00    +0.000 OA
ATOM     13  N   UNL     1       7.348   5.629  15.958  0.00  0.00    +0.000 N 
ATOM     14  C   UNL     1       6.414   5.314  16.908  0.00  0.00    +0.000 A 
ATOM     15  O   UNL     1       6.629   5.673  18.066  0.00  0.00    +0.000 OA
ATOM     16  H   UNL     1       8.149   6.158  16.263  0.00  0.00    +0.000 HD
ENDBRANCH   3   8
BRANCH   1  18
ATOM     17  O   UNL     1       1.910   5.468  21.273  0.00  0.00    +0.000 OA
ATOM     18  C   UNL     1       2.174   5.804  20.126  0.00  0.00    +0.000 C 
ATOM     19  N   UNL     1       2.072   7.109  19.679  0.00  0.00    +0.000 N 
ATOM     20  H   UNL     1       2.356   7.343  18.735  0.00  0.00    +0.000 HD
BRANCH  19  21
ATOM     21  C   UNL     1       1.726   8.209  20.559  0.00  0.00    +0.000 C 
BRANCH  21  22
ATOM     22  C   UNL     1       0.220   8.540  20.523  0.00  0.00    +0.000 C 
ATOM     23  C   UNL     1      -0.462   8.399  21.896  0.00  0.00    +0.000 C 
ATOM     24  C   UNL     1      -0.012   9.465  22.894  0.00  0.00    +0.000 C 
ATOM     25  C   UNL     1      -0.188  10.877  22.340  0.00  0.00    +0.000 C 
ATOM     26  C   UNL     1       0.432  11.050  20.957  0.00  0.00    +0.000 C 
ATOM     27  C   UNL     1      -0.025   9.961  19.985  0.00  0.00    +0.000 C 
ENDBRANCH  21  22
ENDBRANCH  19  21
ENDBRANCH   1  18
TORSDOF 4
ENDMDL
MODEL 7
REMARK VINA RESULT:      -7.7      1.943      2.622
REMARK  Name = 
REMARK  4 active torsions:
REMARK  status: ('A' for Active; 'I' for Inactive)
REMARK    1  A    between atoms: C_2  and  C_11
REMARK    2  A    between atoms: N_3  and  C_4
REMARK    3  A    between atoms: C_4  and  C_5
REMARK    4  A    between atoms: C_13  and  N_14
REMARK                            x       y       z     vdW  Elec       q    Type
REMARK                         _______ _______ _______ _____ _____    ______ ____
ROOT
ATOM      1  C   UNL     1       2.730   6.231  18.940  0.00  0.00    +0.000 A 
ATOM      2  C   UNL     1       3.776   6.277  17.994  0.00  0.00    +0.000 A 
ATOM      3  C   UNL     1       4.367   5.111  17.483  0.00  0.00    +0.000 A 
ATOM      4  C   UNL     1       3.863   3.879  17.924  0.00  0.00    +0.000 A 
ATOM      5  C   UNL     1       2.815   3.818  18.850  0.00  0.00    +0.000 A 
ATOM      6  C   UNL     1       2.241   4.988  19.356  0.00  0.00    +0.000 A 
ATOM      7 CL   UNL     1       0.970   4.790  20.509  0.00  0.00    +0.000 Cl
ENDROOT
BRANCH   3   8
ATOM      8  N   UNL     1       5.424   5.158  16.514  0.00  0.00    +0.000 N 
ATOM      9  N   UNL     1       5.131   4.484  15.340  0.00  0.00    +0.000 NA
ATOM     10  C   UNL     1       5.982   4.548  14.370  0.00  0.00    +0.000 A 
ATOM     11  C   UNL     1       7.277   5.284  14.469  0.00  0.00    +0.000 A 
ATOM     12  O   UNL     1       8.038   5.307  13.514  0.00  0.00    +0.000 OA
ATOM     13  N   UNL     1       7.502   5.877  15.668  0.00  0.00    +0.000 N 
ATOM     14  C   UNL     1       6.634   5.845  16.727  0.00  0.00    +0.000 A 
ATOM     15  O   UNL     1       6.986   6.389  17.774  0.00  0.00    +0.000 OA
ATOM     16  H   UNL     1       8.373   6.364  15.805  0.00  0.00    +0.000 HD
ENDBRANCH   3   8
BRANCH   1  18
ATOM     17  O   UNL     1       2.039   7.742  20.634  0.00  0.00    +0.000 OA
ATOM     18  C   UNL     1       2.167   7.521  19.438  0.00  0.00    +0.000 C 
ATOM     19  N   UNL     1       1.790   8.422  18.458  0.00  0.00    +0.000 N 
ATOM     20  H   UNL     1       1.969   8.215  17.483  0.00  0.00    +0.000 HD
BRANCH  19  21
ATOM     21  C   UNL     1       1.287   9.747  18.771  0.00  0.00    +0.000 C 
BRANCH  21  22
ATOM     22  C   UNL     1      -0.191   9.726  19.215  0.00  0.00    +0.000 C 
ATOM     23  C   UNL     1      -0.403  10.277  20.636  0.00  0.00    +0.000 C 
ATOM     24  C   UNL     1      -0.150  11.781  20.733  0.00  0.00    +0.000 C 
ATOM     25  C   UNL     1      -0.976  12.566  19.716  0.00  0.00    +0.000 C 
ATOM     26  C   UNL     1      -0.834  12.023  18.297  0.00  0.00    +0.000 C 
ATOM     27  C   UNL     1      -1.078  10.515  18.233  0.00  0.00    +0.000 C 
ENDBRANCH  21  22
ENDBRANCH  19  21
ENDBRANCH   1  18
TORSDOF 4
ENDMDL
MODEL 8
REMARK VINA RESULT:      -7.7      3.170      5.141
REMARK  Name = 
REMARK  4 active torsions:
REMARK  status: ('A' for Active; 'I' for Inactive)
REMARK    1  A    between atoms: C_2  and  C_11
REMARK    2  A    between atoms: N_3  and  C_4
REMARK    3  A    between atoms: C_4  and  C_5
REMARK    4  A    between atoms: C_13  and  N_14
REMARK                            x       y       z     vdW  Elec       q    Type
REMARK                         _______ _______ _______ _____ _____    ______ ____
ROOT
ATOM      1  C   UNL     1       1.464   8.683  20.319  0.00  0.00    +0.000 A 
ATOM      2  C   UNL     1       1.971   7.375  20.477  0.00  0.00    +0.000 A 
ATOM      3  C   UNL     1       2.435   6.623  19.388  0.00  0.00    +0.000 A 
ATOM      4  C   UNL     1       2.409   7.226  18.122  0.00  0.00    +0.000 A 
ATOM      5  C   UNL     1       1.924   8.527  17.952  0.00  0.00    +0.000 A 
ATOM      6  C   UNL     1       1.457   9.263  19.046  0.00  0.00    +0.000 A 
ATOM      7 CL   UNL     1       0.863  10.850  18.714  0.00  0.00    +0.000 Cl
ENDROOT
BRANCH   3   8
ATOM      8  N   UNL     1       2.959   5.297  19.549  0.00  0.00    +0.000 N 
ATOM      9  N   UNL     1       4.271   5.163  19.126  0.00  0.00    +0.000 NA
ATOM     10  C   UNL     1       4.862   4.030  19.317  0.00  0.00    +0.000 A 
ATOM     11  C   UNL     1       4.187   2.853  19.940  0.00  0.00    +0.000 A 
ATOM     12  O   UNL     1       4.803   1.810  20.095  0.00  0.00    +0.000 OA
ATOM     13  N   UNL     1       2.891   3.060  20.285  0.00  0.00    +0.000 N 
ATOM     14  C   UNL     1       2.218   4.239  20.110  0.00  0.00    +0.000 A 
ATOM     15  O   UNL     1       1.029   4.274  20.426  0.00  0.00    +0.000 OA
ATOM     16  H   UNL     1       2.374   2.293  20.684  0.00  0.00    +0.000 HD
ENDBRANCH   3   8
BRANCH   1  18
ATOM     17  O   UNL     1       1.719   9.616  22.486  0.00  0.00    +0.000 OA
ATOM     18  C   UNL     1       0.981   9.408  21.532  0.00  0.00    +0.000 C 
ATOM     19  N   UNL     1      -0.345   9.798  21.503  0.00  0.00    +0.000 N 
ATOM     20  H   UNL     1      -0.898   9.651  20.667  0.00  0.00    +0.000 HD
BRANCH  19  21
ATOM     21  C   UNL     1      -0.954  10.569  22.571  0.00  0.00    +0.000 C 
BRANCH  21  22
ATOM     22  C   UNL     1      -0.820  12.090  22.350  0.00  0.00    +0.000 C 
ATOM     23  C   UNL     1      -1.264  12.537  20.946  0.00  0.00    +0.000 C 
ATOM     24  C   UNL     1      -2.770  12.400  20.727  0.00  0.00    +0.000 C 
ATOM     25  C   UNL     1      -3.572  13.123  21.808  0.00  0.00    +0.000 C 
ATOM     26  C   UNL     1      -3.132  12.746  23.220  0.00  0.00    +0.000 C 
ATOM     27  C   UNL     1      -1.620  12.878  23.403  0.00  0.00    +0.000 C 
ENDBRANCH  21  22
ENDBRANCH  19  21
ENDBRANCH   1  18
TORSDOF 4
ENDMDL
MODEL 9
REMARK VINA RESULT:      -7.7      1.772      2.072
REMARK  Name = 
REMARK  4 active torsions:
REMARK  status: ('A' for Active; 'I' for Inactive)
REMARK    1  A    between atoms: C_2  and  C_11
REMARK    2  A    between atoms: N_3  and  C_4
REMARK    3  A    between atoms: C_4  and  C_5
REMARK    4  A    between atoms: C_13  and  N_14
REMARK                            x       y       z     vdW  Elec       q    Type
REMARK                         _______ _______ _______ _____ _____    ______ ____
ROOT
ATOM      1  C   UNL     1       2.625   5.031  19.014  0.00  0.00    +0.000 A 
ATOM      2  C   UNL     1       3.713   5.322  18.164  0.00  0.00    +0.000 A 
ATOM      3  C   UNL     1       4.260   4.360  17.302  0.00  0.00    +0.000 A 
ATOM      4  C   UNL     1       3.669   3.088  17.287  0.00  0.00    +0.000 A 
ATOM      5  C   UNL     1       2.580   2.789  18.113  0.00  0.00    +0.000 A 
ATOM      6  C   UNL     1       2.049   3.756  18.973  0.00  0.00    +0.000 A 
ATOM      7 CL   UNL     1       0.720   3.268  19.960  0.00  0.00    +0.000 Cl
ENDROOT
BRANCH   3   8
ATOM      8  N   UNL     1       5.360   4.659  16.430  0.00  0.00    +0.000 N 
ATOM      9  N   UNL     1       5.190   4.187  15.139  0.00  0.00    +0.000 NA
ATOM     10  C   UNL     1       6.084   4.488  14.256  0.00  0.00    +0.000 A 
ATOM     11  C   UNL     1       7.304   5.288  14.570  0.00  0.00    +0.000 A 
ATOM     12  O   UNL     1       8.110   5.540  13.689  0.00  0.00    +0.000 OA
ATOM     13  N   UNL     1       7.411   5.672  15.867  0.00  0.00    +0.000 N 
ATOM     14  C   UNL     1       6.493   5.386  16.842  0.00  0.00    +0.000 A 
ATOM     15  O   UNL     1       6.739   5.759  17.990  0.00  0.00    +0.000 OA
ATOM     16  H   UNL     1       8.228   6.191  16.147  0.00  0.00    +0.000 HD
ENDBRANCH   3   8
BRANCH   1  18
ATOM     17  O   UNL     1       1.865   5.903  21.085  0.00  0.00    +0.000 OA
ATOM     18  C   UNL     1       2.112   6.113  19.906  0.00  0.00    +0.000 C 
ATOM     19  N   UNL     1       1.923   7.343  19.301  0.00  0.00    +0.000 N 
ATOM     20  H   UNL     1       2.196   7.479  18.336  0.00  0.00    +0.000 HD
BRANCH  19  21
ATOM     21  C   UNL     1       1.494   8.516  20.040  0.00  0.00    +0.000 C 
BRANCH  21  22
ATOM     22  C   UNL     1       1.605   9.809  19.206  0.00  0.00    +0.000 C 
ATOM     23  C   UNL     1       0.977   9.681  17.806  0.00  0.00    +0.000 C 
ATOM     24  C   UNL     1      -0.545   9.558  17.847  0.00  0.00    +0.000 C 
ATOM     25  C   UNL     1      -1.190  10.700  18.631  0.00  0.00    +0.000 C 
ATOM     26  C   UNL     1      -0.565  10.895  20.009  0.00  0.00    +0.000 C 
ATOM     27  C   UNL     1       0.959  11.000  19.938  0.00  0.00    +0.000 C 
ENDBRANCH  21  22
ENDBRANCH  19  21
ENDBRANCH   1  18
TORSDOF 4
ENDMDL
