MODEL 1
REMARK VINA RESULT:      -8.1      0.000      0.000
REMARK  Name = 
REMARK  5 active torsions:
REMARK  status: ('A' for Active; 'I' for Inactive)
REMARK    1  A    between atoms: C_1  and  C_2
REMARK    2  A    between atoms: C_4  and  C_5
REMARK    3  A    between atoms: C_8  and  S_9
REMARK    4  A    between atoms: S_9  and  C_10
REMARK    5  A    between atoms: C_10  and  C_11
REMARK                            x       y       z     vdW  Elec       q    Type
REMARK                         _______ _______ _______ _____ _____    ______ ____
ROOT
ATOM      1  S   UNL     1       3.144   2.568  19.583  0.00  0.00    +0.000 S 
ENDROOT
BRANCH   1   5
ATOM      2  C   UNL     1       5.775   4.213  17.352  0.00  0.00    +0.000 A 
ATOM      3  N   UNL     1       6.230   4.607  18.533  0.00  0.00    +0.000 NA
ATOM      4  N   UNL     1       5.392   4.065  19.479  0.00  0.00    +0.000 NA
ATOM      5  C   UNL     1       4.477   3.380  18.832  0.00  0.00    +0.000 A 
ATOM      6  O   UNL     1       4.659   3.419  17.476  0.00  0.00    +0.000 OA
BRANCH   2  10
ATOM      7  C   UNL     1       7.212   4.539  12.473  0.00  0.00    +0.000 C 
ATOM      8  C   UNL     1       6.964   4.635  13.922  0.00  0.00    +0.000 A 
ATOM      9  C   UNL     1       6.189   3.934  14.812  0.00  0.00    +0.000 A 
ATOM     10  C   UNL     1       6.407   4.578  16.051  0.00  0.00    +0.000 A 
ATOM     11  N   UNL     1       7.268   5.598  15.922  0.00  0.00    +0.000 NA
ATOM     12  O   UNL     1       7.618   5.628  14.584  0.00  0.00    +0.000 OA
ENDBRANCH   2  10
ENDBRANCH   1   5
BRANCH   1  13
ATOM     13  C   UNL     1       2.821   3.662  20.996  0.00  0.00    +0.000 C 
BRANCH  13  14
ATOM     14  C   UNL     1       2.166   4.959  20.556  0.00  0.00    +0.000 C 
ATOM     15  O   UNL     1       0.953   5.126  20.665  0.00  0.00    +0.000 OA
ATOM     16  N   UNL     1       3.046   5.882  20.020  0.00  0.00    +0.000 N 
ATOM     17  C   UNL     1       2.596   7.064  19.432  0.00  0.00    +0.000 A 
ATOM     18  C   UNL     1       1.727   7.917  20.098  0.00  0.00    +0.000 A 
ATOM     19  C   UNL     1       1.296   9.069  19.448  0.00  0.00    +0.000 A 
ATOM     20  C   UNL     1       1.718   9.306  18.145  0.00  0.00    +0.000 A 
ATOM     21  C   UNL     1       2.597   8.404  17.568  0.00  0.00    +0.000 A 
ATOM     22  N   UNL     1       3.081   7.313  18.199  0.00  0.00    +0.000 NA
ATOM     23  H   UNL     1       3.879   5.521  19.563  0.00  0.00    +0.000 HD
ENDBRANCH  13  14
ENDBRANCH   1  13
TORSDOF 4
ENDMDL
MODEL 2
REMARK VINA RESULT:      -7.9      4.703      6.235
REMARK  Name = 
REMARK  5 active torsions:
REMARK  status: ('A' for Active; 'I' for Inactive)
REMARK    1  A    between atoms: C_1  and  C_2
REMARK    2  A    between atoms: C_4  and  C_5
REMARK    3  A    between atoms: C_8  and  S_9
REMARK    4  A    between atoms: S_9  and  C_10
REMARK    5  A    between atoms: C_10  and  C_11
REMARK                            x       y       z     vdW  Elec       q    Type
REMARK                         _______ _______ _______ _____ _____    ______ ____
ROOT
ATOM      1  S   UNL     1       7.490   5.049  18.186  0.00  0.00    +0.000 S 
ENDROOT
BRANCH   1   5
ATOM      2  C   UNL     1       8.313   8.781  18.204  0.00  0.00    +0.000 A 
ATOM      3  N   UNL     1       7.431   8.769  17.215  0.00  0.00    +0.000 NA
ATOM      4  N   UNL     1       6.999   7.469  17.088  0.00  0.00    +0.000 NA
ATOM      5  C   UNL     1       7.637   6.764  17.994  0.00  0.00    +0.000 A 
ATOM      6  O   UNL     1       8.483   7.530  18.749  0.00  0.00    +0.000 OA
BRANCH   2  10
ATOM      7  C   UNL     1      10.521  12.475  20.934  0.00  0.00    +0.000 C 
ATOM      8  C   UNL     1       9.947  11.550  19.942  0.00  0.00    +0.000 A 
ATOM      9  C   UNL     1       9.243  10.374  20.020  0.00  0.00    +0.000 A 
ATOM     10  C   UNL     1       9.022  10.006  18.673  0.00  0.00    +0.000 A 
ATOM     11  N   UNL     1       9.549  10.910  17.833  0.00  0.00    +0.000 NA
ATOM     12  O   UNL     1      10.124  11.878  18.633  0.00  0.00    +0.000 OA
ENDBRANCH   2  10
ENDBRANCH   1   5
BRANCH   1  13
ATOM     13  C   UNL     1       6.021   4.710  17.174  0.00  0.00    +0.000 C 
BRANCH  13  14
ATOM     14  C   UNL     1       4.751   4.759  18.005  0.00  0.00    +0.000 C 
ATOM     15  O   UNL     1       4.185   5.827  18.235  0.00  0.00    +0.000 OA
ATOM     16  N   UNL     1       4.333   3.526  18.472  0.00  0.00    +0.000 N 
ATOM     17  C   UNL     1       3.273   3.406  19.369  0.00  0.00    +0.000 A 
ATOM     18  C   UNL     1       2.042   3.999  19.117  0.00  0.00    +0.000 A 
ATOM     19  C   UNL     1       1.032   3.861  20.064  0.00  0.00    +0.000 A 
ATOM     20  C   UNL     1       1.299   3.173  21.241  0.00  0.00    +0.000 A 
ATOM     21  C   UNL     1       2.552   2.604  21.396  0.00  0.00    +0.000 A 
ATOM     22  N   UNL     1       3.530   2.667  20.467  0.00  0.00    +0.000 NA
ATOM     23  H   UNL     1       5.048   2.821  18.628  0.00  0.00    +0.000 HD
ENDBRANCH  13  14
ENDBRANCH   1  13
TORSDOF 4
ENDMDL
MODEL 3
REMARK VINA RESULT:      -7.8      2.935      4.595
REMARK  Name = 
REMARK  5 active torsions:
REMARK  status: ('A' for Active; 'I' for Inactive)
REMARK    1  A    between atoms: C_1  and  C_2
REMARK    2  A    between atoms: C_4  and  C_5
REMARK    3  A    between atoms: C_8  and  S_9
REMARK    4  A    between atoms: S_9  and  C_10
REMARK    5  A    between atoms: C_10  and  C_11
REMARK                            x       y       z     vdW  Elec       q    Type
REMARK                         _______ _______ _______ _____ _____    ______ ____
ROOT
ATOM      1  S   UNL     1       7.437   4.618  17.560  0.00  0.00    +0.000 S 
ENDROOT
BRANCH   1   5
ATOM      2  C   UNL     1       6.409   4.199  13.904  0.00  0.00    +0.000 A 
ATOM      3  N   UNL     1       7.173   5.275  13.781  0.00  0.00    +0.000 NA
ATOM      4  N   UNL     1       7.661   5.557  15.036  0.00  0.00    +0.000 NA
ATOM      5  C   UNL     1       7.171   4.649  15.849  0.00  0.00    +0.000 A 
ATOM      6  O   UNL     1       6.374   3.746  15.201  0.00  0.00    +0.000 OA
BRANCH   2  10
ATOM      7  C   UNL     1       3.164   2.957  10.174  0.00  0.00    +0.000 C 
ATOM      8  C   UNL     1       4.227   3.102  11.184  0.00  0.00    +0.000 A 
ATOM      9  C   UNL     1       4.471   3.993  12.201  0.00  0.00    +0.000 A 
ATOM     10  C   UNL     1       5.689   3.554  12.767  0.00  0.00    +0.000 A 
ATOM     11  N   UNL     1       6.148   2.461  12.141  0.00  0.00    +0.000 NA
ATOM     12  O   UNL     1       5.226   2.179  11.151  0.00  0.00    +0.000 OA
ENDBRANCH   2  10
ENDBRANCH   1   5
BRANCH   1  13
ATOM     13  C   UNL     1       5.956   5.484  18.158  0.00  0.00    +0.000 C 
BRANCH  13  14
ATOM     14  C   UNL     1       5.095   4.578  19.020  0.00  0.00    +0.000 C 
ATOM     15  O   UNL     1       5.528   3.510  19.449  0.00  0.00    +0.000 OA
ATOM     16  N   UNL     1       3.816   5.057  19.240  0.00  0.00    +0.000 N 
ATOM     17  C   UNL     1       2.848   4.287  19.885  0.00  0.00    +0.000 A 
ATOM     18  C   UNL     1       3.099   3.693  21.115  0.00  0.00    +0.000 A 
ATOM     19  C   UNL     1       2.100   2.918  21.695  0.00  0.00    +0.000 A 
ATOM     20  C   UNL     1       0.906   2.733  21.009  0.00  0.00    +0.000 A 
ATOM     21  C   UNL     1       0.742   3.378  19.794  0.00  0.00    +0.000 A 
ATOM     22  N   UNL     1       1.670   4.188  19.238  0.00  0.00    +0.000 NA
ATOM     23  H   UNL     1       3.414   5.657  18.525  0.00  0.00    +0.000 HD
ENDBRANCH  13  14
ENDBRANCH   1  13
TORSDOF 4
ENDMDL
MODEL 4
REMARK VINA RESULT:      -7.7      4.671      6.209
REMARK  Name = 
REMARK  5 active torsions:
REMARK  status: ('A' for Active; 'I' for Inactive)
REMARK    1  A    between atoms: C_1  and  C_2
REMARK    2  A    between atoms: C_4  and  C_5
REMARK    3  A    between atoms: C_8  and  S_9
REMARK    4  A    between atoms: S_9  and  C_10
REMARK    5  A    between atoms: C_10  and  C_11
REMARK                            x       y       z     vdW  Elec       q    Type
REMARK                         _______ _______ _______ _____ _____    ______ ____
ROOT
ATOM      1  S   UNL     1       7.554   5.098  18.382  0.00  0.00    +0.000 S 
ENDROOT
BRANCH   1   5
ATOM      2  C   UNL     1       8.367   8.830  18.256  0.00  0.00    +0.000 A 
ATOM      3  N   UNL     1       7.492   8.776  17.262  0.00  0.00    +0.000 NA
ATOM      4  N   UNL     1       7.064   7.470  17.185  0.00  0.00    +0.000 NA
ATOM      5  C   UNL     1       7.698   6.804  18.123  0.00  0.00    +0.000 A 
ATOM      6  O   UNL     1       8.537   7.602  18.852  0.00  0.00    +0.000 OA
BRANCH   2  10
ATOM      7  C   UNL     1      10.569  12.624  20.851  0.00  0.00    +0.000 C 
ATOM      8  C   UNL     1       9.993  11.665  19.893  0.00  0.00    +0.000 A 
ATOM      9  C   UNL     1       9.301  10.485  20.014  0.00  0.00    +0.000 A 
ATOM     10  C   UNL     1       9.070  10.075  18.681  0.00  0.00    +0.000 A 
ATOM     11  N   UNL     1       9.578  10.958  17.808  0.00  0.00    +0.000 NA
ATOM     12  O   UNL     1      10.153  11.955  18.573  0.00  0.00    +0.000 OA
ENDBRANCH   2  10
ENDBRANCH   1   5
BRANCH   1  13
ATOM     13  C   UNL     1       6.439   4.632  17.027  0.00  0.00    +0.000 C 
BRANCH  13  14
ATOM     14  C   UNL     1       5.114   4.110  17.553  0.00  0.00    +0.000 C 
ATOM     15  O   UNL     1       4.343   3.487  16.825  0.00  0.00    +0.000 OA
ATOM     16  N   UNL     1       4.871   4.421  18.879  0.00  0.00    +0.000 N 
ATOM     17  C   UNL     1       3.643   4.148  19.480  0.00  0.00    +0.000 A 
ATOM     18  C   UNL     1       3.074   2.882  19.420  0.00  0.00    +0.000 A 
ATOM     19  C   UNL     1       1.835   2.681  20.020  0.00  0.00    +0.000 A 
ATOM     20  C   UNL     1       1.194   3.757  20.622  0.00  0.00    +0.000 A 
ATOM     21  C   UNL     1       1.847   4.978  20.644  0.00  0.00    +0.000 A 
ATOM     22  N   UNL     1       3.077   5.187  20.126  0.00  0.00    +0.000 NA
ATOM     23  H   UNL     1       5.296   5.269  19.244  0.00  0.00    +0.000 HD
ENDBRANCH  13  14
ENDBRANCH   1  13
TORSDOF 4
ENDMDL
MODEL 5
REMARK VINA RESULT:      -7.6      4.680      6.004
REMARK  Name = 
REMARK  5 active torsions:
REMARK  status: ('A' for Active; 'I' for Inactive)
REMARK    1  A    between atoms: C_1  and  C_2
REMARK    2  A    between atoms: C_4  and  C_5
REMARK    3  A    between atoms: C_8  and  S_9
REMARK    4  A    between atoms: S_9  and  C_10
REMARK    5  A    between atoms: C_10  and  C_11
REMARK                            x       y       z     vdW  Elec       q    Type
REMARK                         _______ _______ _______ _____ _____    ______ ____
ROOT
ATOM      1  S   UNL     1       5.874   6.138  16.292  0.00  0.00    +0.000 S 
ENDROOT
BRANCH   1   5
ATOM      2  C   UNL     1       8.151   8.573  18.160  0.00  0.00    +0.000 A 
ATOM      3  N   UNL     1       8.457   7.461  18.815  0.00  0.00    +0.000 NA
ATOM      4  N   UNL     1       7.725   6.450  18.236  0.00  0.00    +0.000 NA
ATOM      5  C   UNL     1       7.017   6.994  17.273  0.00  0.00    +0.000 A 
ATOM      6  O   UNL     1       7.241   8.338  17.157  0.00  0.00    +0.000 OA
BRANCH   2  10
ATOM      7  C   UNL     1      10.630  12.532  20.200  0.00  0.00    +0.000 C 
ATOM      8  C   UNL     1       9.837  11.556  19.433  0.00  0.00    +0.000 A 
ATOM      9  C   UNL     1       9.520  10.231  19.602  0.00  0.00    +0.000 A 
ATOM     10  C   UNL     1       8.736   9.909  18.470  0.00  0.00    +0.000 A 
ATOM     11  N   UNL     1       8.580  10.975  17.672  0.00  0.00    +0.000 NA
ATOM     12  O   UNL     1       9.269  12.007  18.282  0.00  0.00    +0.000 OA
ENDBRANCH   2  10
ENDBRANCH   1   5
BRANCH   1  13
ATOM     13  C   UNL     1       6.067   4.447  16.926  0.00  0.00    +0.000 C 
BRANCH  13  14
ATOM     14  C   UNL     1       5.065   4.150  18.027  0.00  0.00    +0.000 C 
ATOM     15  O   UNL     1       5.438   3.830  19.155  0.00  0.00    +0.000 OA
ATOM     16  N   UNL     1       3.744   4.252  17.631  0.00  0.00    +0.000 N 
ATOM     17  C   UNL     1       2.698   3.871  18.472  0.00  0.00    +0.000 A 
ATOM     18  C   UNL     1       2.600   4.357  19.769  0.00  0.00    +0.000 A 
ATOM     19  C   UNL     1       1.546   3.921  20.565  0.00  0.00    +0.000 A 
ATOM     20  C   UNL     1       0.654   2.988  20.051  0.00  0.00    +0.000 A 
ATOM     21  C   UNL     1       0.825   2.572  18.740  0.00  0.00    +0.000 A 
ATOM     22  N   UNL     1       1.800   3.027  17.925  0.00  0.00    +0.000 NA
ATOM     23  H   UNL     1       3.535   4.068  16.654  0.00  0.00    +0.000 HD
ENDBRANCH  13  14
ENDBRANCH   1  13
TORSDOF 4
ENDMDL
MODEL 6
REMARK VINA RESULT:      -7.6      4.336      5.941
REMARK  Name = 
REMARK  5 active torsions:
REMARK  status: ('A' for Active; 'I' for Inactive)
REMARK    1  A    between atoms: C_1  and  C_2
REMARK    2  A    between atoms: C_4  and  C_5
REMARK    3  A    between atoms: C_8  and  S_9
REMARK    4  A    between atoms: S_9  and  C_10
REMARK    5  A    between atoms: C_10  and  C_11
REMARK                            x       y       z     vdW  Elec       q    Type
REMARK                         _______ _______ _______ _____ _____    ______ ____
ROOT
ATOM      1  S   UNL     1       6.159   5.711  16.098  0.00  0.00    +0.000 S 
ENDROOT
BRANCH   1   5
ATOM      2  C   UNL     1       8.126   8.321  18.080  0.00  0.00    +0.000 A 
ATOM      3  N   UNL     1       8.375   7.259  18.833  0.00  0.00    +0.000 NA
ATOM      4  N   UNL     1       7.747   6.193  18.231  0.00  0.00    +0.000 NA
ATOM      5  C   UNL     1       7.150   6.657  17.158  0.00  0.00    +0.000 A 
ATOM      6  O   UNL     1       7.353   8.000  16.989  0.00  0.00    +0.000 OA
BRANCH   2  10
ATOM      7  C   UNL     1       9.242  13.293  18.053  0.00  0.00    +0.000 C 
ATOM      8  C   UNL     1       9.063  11.848  18.273  0.00  0.00    +0.000 A 
ATOM      9  C   UNL     1       8.434  10.842  17.582  0.00  0.00    +0.000 A 
ATOM     10  C   UNL     1       8.634   9.691  18.378  0.00  0.00    +0.000 A 
ATOM     11  N   UNL     1       9.348   9.980  19.476  0.00  0.00    +0.000 NA
ATOM     12  O   UNL     1       9.618  11.334  19.404  0.00  0.00    +0.000 OA
ENDBRANCH   2  10
ENDBRANCH   1   5
BRANCH   1  13
ATOM     13  C   UNL     1       5.921   4.209  17.093  0.00  0.00    +0.000 C 
BRANCH  13  14
ATOM     14  C   UNL     1       4.602   4.244  17.842  0.00  0.00    +0.000 C 
ATOM     15  O   UNL     1       3.874   5.235  17.800  0.00  0.00    +0.000 OA
ATOM     16  N   UNL     1       4.332   3.095  18.564  0.00  0.00    +0.000 N 
ATOM     17  C   UNL     1       3.238   3.014  19.425  0.00  0.00    +0.000 A 
ATOM     18  C   UNL     1       1.957   3.338  18.998  0.00  0.00    +0.000 A 
ATOM     19  C   UNL     1       0.911   3.258  19.913  0.00  0.00    +0.000 A 
ATOM     20  C   UNL     1       1.189   2.897  21.226  0.00  0.00    +0.000 A 
ATOM     21  C   UNL     1       2.497   2.578  21.554  0.00  0.00    +0.000 A 
ATOM     22  N   UNL     1       3.519   2.585  20.672  0.00  0.00    +0.000 NA
ATOM     23  H   UNL     1       5.127   2.561  18.904  0.00  0.00    +0.000 HD
ENDBRANCH  13  14
ENDBRANCH   1  13
TORSDOF 4
ENDMDL
MODEL 7
REMARK VINA RESULT:      -7.6      3.070      4.540
REMARK  Name = 
REMARK  5 active torsions:
REMARK  status: ('A' for Active; 'I' for Inactive)
REMARK    1  A    between atoms: C_1  and  C_2
REMARK    2  A    between atoms: C_4  and  C_5
REMARK    3  A    between atoms: C_8  and  S_9
REMARK    4  A    between atoms: S_9  and  C_10
REMARK    5  A    between atoms: C_10  and  C_11
REMARK                            x       y       z     vdW  Elec       q    Type
REMARK                         _______ _______ _______ _____ _____    ______ ____
ROOT
ATOM      1  S   UNL     1       6.913   5.790  17.267  0.00  0.00    +0.000 S 
ENDROOT
BRANCH   1   5
ATOM      2  C   UNL     1       6.382   4.394  13.750  0.00  0.00    +0.000 A 
ATOM      3  N   UNL     1       7.524   5.035  13.547  0.00  0.00    +0.000 NA
ATOM      4  N   UNL     1       7.885   5.589  14.754  0.00  0.00    +0.000 NA
ATOM      5  C   UNL     1       6.951   5.264  15.618  0.00  0.00    +0.000 A 
ATOM      6  O   UNL     1       5.967   4.496  15.056  0.00  0.00    +0.000 OA
BRANCH   2  10
ATOM      7  C   UNL     1       3.097   2.806  10.191  0.00  0.00    +0.000 C 
ATOM      8  C   UNL     1       4.170   3.045  11.172  0.00  0.00    +0.000 A 
ATOM      9  C   UNL     1       4.427   4.031  12.092  0.00  0.00    +0.000 A 
ATOM     10  C   UNL     1       5.648   3.644  12.690  0.00  0.00    +0.000 A 
ATOM     11  N   UNL     1       6.096   2.490  12.172  0.00  0.00    +0.000 NA
ATOM     12  O   UNL     1       5.163   2.116  11.223  0.00  0.00    +0.000 OA
ENDBRANCH   2  10
ENDBRANCH   1   5
BRANCH   1  13
ATOM     13  C   UNL     1       5.247   6.506  17.367  0.00  0.00    +0.000 C 
BRANCH  13  14
ATOM     14  C   UNL     1       4.370   5.738  18.340  0.00  0.00    +0.000 C 
ATOM     15  O   UNL     1       4.767   5.464  19.471  0.00  0.00    +0.000 OA
ATOM     16  N   UNL     1       3.137   5.379  17.826  0.00  0.00    +0.000 N 
ATOM     17  C   UNL     1       2.268   4.546  18.530  0.00  0.00    +0.000 A 
ATOM     18  C   UNL     1       1.912   4.818  19.844  0.00  0.00    +0.000 A 
ATOM     19  C   UNL     1       1.059   3.935  20.498  0.00  0.00    +0.000 A 
ATOM     20  C   UNL     1       0.625   2.796  19.831  0.00  0.00    +0.000 A 
ATOM     21  C   UNL     1       1.021   2.618  18.515  0.00  0.00    +0.000 A 
ATOM     22  N   UNL     1       1.797   3.491  17.836  0.00  0.00    +0.000 NA
ATOM     23  H   UNL     1       3.075   5.236  16.822  0.00  0.00    +0.000 HD
ENDBRANCH  13  14
ENDBRANCH   1  13
TORSDOF 4
ENDMDL
MODEL 8
REMARK VINA RESULT:      -7.5      3.145      4.278
REMARK  Name = 
REMARK  5 active torsions:
REMARK  status: ('A' for Active; 'I' for Inactive)
REMARK    1  A    between atoms: C_1  and  C_2
REMARK    2  A    between atoms: C_4  and  C_5
REMARK    3  A    between atoms: C_8  and  S_9
REMARK    4  A    between atoms: S_9  and  C_10
REMARK    5  A    between atoms: C_10  and  C_11
REMARK                            x       y       z     vdW  Elec       q    Type
REMARK                         _______ _______ _______ _____ _____    ______ ____
ROOT
ATOM      1  S   UNL     1       7.632   6.443  18.346  0.00  0.00    +0.000 S 
ENDROOT
BRANCH   1   5
ATOM      2  C   UNL     1       6.281   5.267  14.970  0.00  0.00    +0.000 A 
ATOM      3  N   UNL     1       5.515   6.336  15.138  0.00  0.00    +0.000 NA
ATOM      4  N   UNL     1       5.899   6.913  16.327  0.00  0.00    +0.000 NA
ATOM      5  C   UNL     1       6.864   6.170  16.818  0.00  0.00    +0.000 A 
ATOM      6  O   UNL     1       7.170   5.111  16.007  0.00  0.00    +0.000 OA
BRANCH   2  10
ATOM      7  C   UNL     1       7.227   2.243  10.978  0.00  0.00    +0.000 C 
ATOM      8  C   UNL     1       6.706   3.071  12.080  0.00  0.00    +0.000 A 
ATOM      9  C   UNL     1       7.282   3.884  13.025  0.00  0.00    +0.000 A 
ATOM     10  C   UNL     1       6.193   4.357  13.792  0.00  0.00    +0.000 A 
ATOM     11  N   UNL     1       5.031   3.870  13.333  0.00  0.00    +0.000 NA
ATOM     12  O   UNL     1       5.357   3.067  12.257  0.00  0.00    +0.000 OA
ENDBRANCH   2  10
ENDBRANCH   1   5
BRANCH   1  13
ATOM     13  C   UNL     1       6.981   5.052  19.316  0.00  0.00    +0.000 C 
BRANCH  13  14
ATOM     14  C   UNL     1       5.474   4.937  19.178  0.00  0.00    +0.000 C 
ATOM     15  O   UNL     1       4.733   5.858  19.518  0.00  0.00    +0.000 OA
ATOM     16  N   UNL     1       5.044   3.724  18.669  0.00  0.00    +0.000 N 
ATOM     17  C   UNL     1       3.691   3.393  18.614  0.00  0.00    +0.000 A 
ATOM     18  C   UNL     1       2.763   4.244  18.027  0.00  0.00    +0.000 A 
ATOM     19  C   UNL     1       1.424   3.866  18.024  0.00  0.00    +0.000 A 
ATOM     20  C   UNL     1       1.056   2.676  18.641  0.00  0.00    +0.000 A 
ATOM     21  C   UNL     1       2.056   1.887  19.186  0.00  0.00    +0.000 A 
ATOM     22  N   UNL     1       3.370   2.198  19.147  0.00  0.00    +0.000 NA
ATOM     23  H   UNL     1       5.630   2.912  18.845  0.00  0.00    +0.000 HD
ENDBRANCH  13  14
ENDBRANCH   1  13
TORSDOF 4
ENDMDL
MODEL 9
REMARK VINA RESULT:      -7.5      1.844      2.329
REMARK  Name = 
REMARK  5 active torsions:
REMARK  status: ('A' for Active; 'I' for Inactive)
REMARK    1  A    between atoms: C_1  and  C_2
REMARK    2  A    between atoms: C_4  and  C_5
REMARK    3  A    between atoms: C_8  and  S_9
REMARK    4  A    between atoms: S_9  and  C_10
REMARK    5  A    between atoms: C_10  and  C_11
REMARK                            x       y       z     vdW  Elec       q    Type
REMARK                         _______ _______ _______ _____ _____    ______ ____
ROOT
ATOM      1  S   UNL     1       2.676   2.553  19.187  0.00  0.00    +0.000 S 
ENDROOT
BRANCH   1   5
ATOM      2  C   UNL     1       5.281   4.613  17.296  0.00  0.00    +0.000 A 
ATOM      3  N   UNL     1       4.998   3.724  16.355  0.00  0.00    +0.000 NA
ATOM      4  N   UNL     1       4.029   2.897  16.873  0.00  0.00    +0.000 NA
ATOM      5  C   UNL     1       3.777   3.318  18.091  0.00  0.00    +0.000 A 
ATOM      6  O   UNL     1       4.527   4.412  18.429  0.00  0.00    +0.000 OA
BRANCH   2  10
ATOM      7  C   UNL     1       8.138   8.809  17.759  0.00  0.00    +0.000 C 
ATOM      8  C   UNL     1       7.457   7.547  17.419  0.00  0.00    +0.000 A 
ATOM      9  C   UNL     1       6.379   6.869  17.932  0.00  0.00    +0.000 A 
ATOM     10  C   UNL     1       6.284   5.705  17.137  0.00  0.00    +0.000 A 
ATOM     11  N   UNL     1       7.238   5.685  16.194  0.00  0.00    +0.000 NA
ATOM     12  O   UNL     1       7.969   6.844  16.373  0.00  0.00    +0.000 OA
ENDBRANCH   2  10
ENDBRANCH   1   5
BRANCH   1  13
ATOM     13  C   UNL     1       2.863   3.601  20.658  0.00  0.00    +0.000 C 
BRANCH  13  14
ATOM     14  C   UNL     1       2.077   4.892  20.523  0.00  0.00    +0.000 C 
ATOM     15  O   UNL     1       0.867   4.924  20.742  0.00  0.00    +0.000 OA
ATOM     16  N   UNL     1       2.836   5.977  20.122  0.00  0.00    +0.000 N 
ATOM     17  C   UNL     1       2.249   7.202  19.807  0.00  0.00    +0.000 A 
ATOM     18  C   UNL     1       1.374   7.831  20.683  0.00  0.00    +0.000 A 
ATOM     19  C   UNL     1       0.804   9.041  20.299  0.00  0.00    +0.000 A 
ATOM     20  C   UNL     1       1.098   9.557  19.043  0.00  0.00    +0.000 A 
ATOM     21  C   UNL     1       1.994   8.865  18.245  0.00  0.00    +0.000 A 
ATOM     22  N   UNL     1       2.611   7.723  18.617  0.00  0.00    +0.000 NA
ATOM     23  H   UNL     1       3.654   5.787  19.550  0.00  0.00    +0.000 HD
ENDBRANCH  13  14
ENDBRANCH   1  13
TORSDOF 4
ENDMDL
