MODEL 1
REMARK VINA RESULT:      -8.9      0.000      0.000
REMARK  Name = 
REMARK  10 active torsions:
REMARK  status: ('A' for Active; 'I' for Inactive)
REMARK    1  A    between atoms: C_1  and  C_2
REMARK    2  A    between atoms: N_4  and  C_5
REMARK    3  A    between atoms: C_5  and  C_6
REMARK    4  A    between atoms: C_9  and  C_10
REMARK    5  A    between atoms: N_15  and  C_16
REMARK    6  A    between atoms: C_16  and  C_17
REMARK    7  A    between atoms: C_17  and  C_18
REMARK    8  A    between atoms: C_18  and  C_19
REMARK    9  A    between atoms: C_19  and  C_20
REMARK   10  A    between atoms: C_19  and  C_27
REMARK                            x       y       z     vdW  Elec       q    Type
REMARK                         _______ _______ _______ _____ _____    ______ ____
ROOT
ATOM      1  C   UNL     1      -1.116  12.437  20.267  0.00  0.00    +0.000 C 
ATOM      2  C   UNL     1       0.218  11.906  20.845  0.00  0.00    +0.000 C 
ATOM      3  C   UNL     1       1.170  11.396  19.777  0.00  0.00    +0.000 C 
ATOM      4  N   UNL     1       0.547  10.294  19.032  0.00  0.00    +0.000 NA
ATOM      5  C   UNL     1      -0.673  10.756  18.364  0.00  0.00    +0.000 C 
ATOM      6  C   UNL     1      -1.690  11.293  19.375  0.00  0.00    +0.000 C 
ENDROOT
BRANCH   1   7
ATOM      7  C   UNL     1      -2.157  12.736  21.375  0.00  0.00    +0.000 A 
ATOM      8  C   UNL     1      -3.314  13.485  21.090  0.00  0.00    +0.000 A 
ATOM      9  C   UNL     1      -4.361  13.588  22.015  0.00  0.00    +0.000 A 
ATOM     10  C   UNL     1      -4.280  12.952  23.256  0.00  0.00    +0.000 A 
ATOM     11  C   UNL     1      -5.421  12.983  24.228  0.00  0.00    +0.000 C 
ATOM     12  C   UNL     1      -3.102  12.285  23.589  0.00  0.00    +0.000 A 
ATOM     13  C   UNL     1      -2.055  12.188  22.667  0.00  0.00    +0.000 A 
ENDBRANCH   1   7
BRANCH   1  17
ATOM     14  C   UNL     1      -0.292  15.795  18.599  0.00  0.00    +0.000 C 
ATOM     15  C   UNL     1      -0.299  14.796  19.729  0.00  0.00    +0.000 C 
ATOM     16  O   UNL     1       0.272  15.022  20.789  0.00  0.00    +0.000 OA
ATOM     17  N   UNL     1      -0.935  13.623  19.397  0.00  0.00    +0.000 N 
ATOM     18  H   UNL     1      -1.464  13.628  18.537  0.00  0.00    +0.000 HD
ENDBRANCH   1  17
BRANCH   4  19
ATOM     19  C   UNL     1       1.483   9.693  18.072  0.00  0.00    +0.000 C 
BRANCH  19  20
ATOM     20  C   UNL     1       2.021   8.335  18.543  0.00  0.00    +0.000 C 
BRANCH  20  21
ATOM     21  C   UNL     1       3.250   7.836  17.766  0.00  0.00    +0.000 C 
BRANCH  21  22
ATOM     22  C   UNL     1       3.903   6.551  18.334  0.00  0.00    +0.000 C 
BRANCH  22  23
ATOM     23  C   UNL     1       2.850   5.534  18.773  0.00  0.00    +0.000 A 
ATOM     24  C   UNL     1       2.588   5.307  20.135  0.00  0.00    +0.000 A 
ATOM     25  C   UNL     1       1.653   4.350  20.531  0.00  0.00    +0.000 A 
ATOM     26  C   UNL     1       0.977   3.615  19.568  0.00  0.00    +0.000 A 
ATOM     27  F   UNL     1       0.085   2.691  19.949  0.00  0.00    +0.000 F 
ATOM     28  C   UNL     1       1.215   3.821  18.214  0.00  0.00    +0.000 A 
ATOM     29  C   UNL     1       2.147   4.781  17.815  0.00  0.00    +0.000 A 
ENDBRANCH  22  23
BRANCH  22  30
ATOM     30  C   UNL     1       4.928   5.929  17.382  0.00  0.00    +0.000 A 
ATOM     31  C   UNL     1       4.906   6.289  16.022  0.00  0.00    +0.000 A 
ATOM     32  C   UNL     1       5.833   5.749  15.125  0.00  0.00    +0.000 A 
ATOM     33  C   UNL     1       6.788   4.855  15.584  0.00  0.00    +0.000 A 
ATOM     34  F   UNL     1       7.679   4.339  14.725  0.00  0.00    +0.000 F 
ATOM     35  C   UNL     1       6.836   4.486  16.920  0.00  0.00    +0.000 A 
ATOM     36  C   UNL     1       5.912   5.022  17.816  0.00  0.00    +0.000 A 
ENDBRANCH  22  30
ENDBRANCH  21  22
ENDBRANCH  20  21
ENDBRANCH  19  20
ENDBRANCH   4  19
TORSDOF 8
ENDMDL
MODEL 2
REMARK VINA RESULT:      -8.8      1.055      1.214
REMARK  Name = 
REMARK  10 active torsions:
REMARK  status: ('A' for Active; 'I' for Inactive)
REMARK    1  A    between atoms: C_1  and  C_2
REMARK    2  A    between atoms: N_4  and  C_5
REMARK    3  A    between atoms: C_5  and  C_6
REMARK    4  A    between atoms: C_9  and  C_10
REMARK    5  A    between atoms: N_15  and  C_16
REMARK    6  A    between atoms: C_16  and  C_17
REMARK    7  A    between atoms: C_17  and  C_18
REMARK    8  A    between atoms: C_18  and  C_19
REMARK    9  A    between atoms: C_19  and  C_20
REMARK   10  A    between atoms: C_19  and  C_27
REMARK                            x       y       z     vdW  Elec       q    Type
REMARK                         _______ _______ _______ _____ _____    ______ ____
ROOT
ATOM      1  C   UNL     1      -0.966  11.979  20.100  0.00  0.00    +0.000 C 
ATOM      2  C   UNL     1       0.361  11.327  20.557  0.00  0.00    +0.000 C 
ATOM      3  C   UNL     1       1.205  10.819  19.401  0.00  0.00    +0.000 C 
ATOM      4  N   UNL     1       0.460   9.808  18.639  0.00  0.00    +0.000 NA
ATOM      5  C   UNL     1      -0.764  10.389  18.082  0.00  0.00    +0.000 C 
ATOM      6  C   UNL     1      -1.675  10.931  19.187  0.00  0.00    +0.000 C 
ENDROOT
BRANCH   1   7
ATOM      7  C   UNL     1      -1.911  12.280  21.291  0.00  0.00    +0.000 A 
ATOM      8  C   UNL     1      -3.196  12.811  21.071  0.00  0.00    +0.000 A 
ATOM      9  C   UNL     1      -4.136  12.893  22.107  0.00  0.00    +0.000 A 
ATOM     10  C   UNL     1      -3.819  12.455  23.394  0.00  0.00    +0.000 A 
ATOM     11  C   UNL     1      -4.835  12.460  24.496  0.00  0.00    +0.000 C 
ATOM     12  C   UNL     1      -2.521  12.015  23.648  0.00  0.00    +0.000 A 
ATOM     13  C   UNL     1      -1.581  11.938  22.615  0.00  0.00    +0.000 A 
ENDBRANCH   1   7
BRANCH   1  17
ATOM     14  C   UNL     1      -0.124  15.417  18.615  0.00  0.00    +0.000 C 
ATOM     15  C   UNL     1      -0.185  14.379  19.707  0.00  0.00    +0.000 C 
ATOM     16  O   UNL     1       0.296  14.583  20.813  0.00  0.00    +0.000 OA
ATOM     17  N   UNL     1      -0.757  13.201  19.287  0.00  0.00    +0.000 N 
ATOM     18  H   UNL     1      -1.219  13.221  18.389  0.00  0.00    +0.000 HD
ENDBRANCH   1  17
BRANCH   4  19
ATOM     19  C   UNL     1       1.288   9.204  17.587  0.00  0.00    +0.000 C 
BRANCH  19  20
ATOM     20  C   UNL     1       2.507   8.458  18.147  0.00  0.00    +0.000 C 
BRANCH  20  21
ATOM     21  C   UNL     1       2.388   6.927  18.107  0.00  0.00    +0.000 C 
BRANCH  21  22
ATOM     22  C   UNL     1       3.558   6.164  18.778  0.00  0.00    +0.000 C 
BRANCH  22  23
ATOM     23  C   UNL     1       3.057   4.964  19.581  0.00  0.00    +0.000 A 
ATOM     24  C   UNL     1       1.791   4.981  20.192  0.00  0.00    +0.000 A 
ATOM     25  C   UNL     1       1.354   3.899  20.956  0.00  0.00    +0.000 A 
ATOM     26  C   UNL     1       2.181   2.795  21.115  0.00  0.00    +0.000 A 
ATOM     27  F   UNL     1       1.765   1.759  21.855  0.00  0.00    +0.000 F 
ATOM     28  C   UNL     1       3.437   2.751  20.520  0.00  0.00    +0.000 A 
ATOM     29  C   UNL     1       3.874   3.832  19.751  0.00  0.00    +0.000 A 
ENDBRANCH  22  23
BRANCH  22  30
ATOM     30  C   UNL     1       4.656   5.764  17.790  0.00  0.00    +0.000 A 
ATOM     31  C   UNL     1       4.351   4.862  16.755  0.00  0.00    +0.000 A 
ATOM     32  C   UNL     1       5.326   4.482  15.827  0.00  0.00    +0.000 A 
ATOM     33  C   UNL     1       6.605   5.007  15.926  0.00  0.00    +0.000 A 
ATOM     34  F   UNL     1       7.540   4.646  15.035  0.00  0.00    +0.000 F 
ATOM     35  C   UNL     1       6.933   5.903  16.932  0.00  0.00    +0.000 A 
ATOM     36  C   UNL     1       5.963   6.282  17.860  0.00  0.00    +0.000 A 
ENDBRANCH  22  30
ENDBRANCH  21  22
ENDBRANCH  20  21
ENDBRANCH  19  20
ENDBRANCH   4  19
TORSDOF 8
ENDMDL
MODEL 3
REMARK VINA RESULT:      -8.8      0.945      1.324
REMARK  Name = 
REMARK  10 active torsions:
REMARK  status: ('A' for Active; 'I' for Inactive)
REMARK    1  A    between atoms: C_1  and  C_2
REMARK    2  A    between atoms: N_4  and  C_5
REMARK    3  A    between atoms: C_5  and  C_6
REMARK    4  A    between atoms: C_9  and  C_10
REMARK    5  A    between atoms: N_15  and  C_16
REMARK    6  A    between atoms: C_16  and  C_17
REMARK    7  A    between atoms: C_17  and  C_18
REMARK    8  A    between atoms: C_18  and  C_19
REMARK    9  A    between atoms: C_19  and  C_20
REMARK   10  A    between atoms: C_19  and  C_27
REMARK                            x       y       z     vdW  Elec       q    Type
REMARK                         _______ _______ _______ _____ _____    ______ ____
ROOT
ATOM      1  C   UNL     1      -0.791  12.036  21.048  0.00  0.00    +0.000 C 
ATOM      2  C   UNL     1      -0.486  10.526  21.197  0.00  0.00    +0.000 C 
ATOM      3  C   UNL     1       0.623  10.047  20.277  0.00  0.00    +0.000 C 
ATOM      4  N   UNL     1       0.252  10.282  18.875  0.00  0.00    +0.000 NA
ATOM      5  C   UNL     1       0.052  11.713  18.634  0.00  0.00    +0.000 C 
ATOM      6  C   UNL     1      -1.054  12.279  19.529  0.00  0.00    +0.000 C 
ENDROOT
BRANCH   1   7
ATOM      7  C   UNL     1      -2.069  12.455  21.818  0.00  0.00    +0.000 A 
ATOM      8  C   UNL     1      -3.185  12.966  21.131  0.00  0.00    +0.000 A 
ATOM      9  C   UNL     1      -4.415  13.152  21.777  0.00  0.00    +0.000 A 
ATOM     10  C   UNL     1      -4.563  12.841  23.131  0.00  0.00    +0.000 A 
ATOM     11  C   UNL     1      -5.889  12.957  23.821  0.00  0.00    +0.000 C 
ATOM     12  C   UNL     1      -3.442  12.423  23.846  0.00  0.00    +0.000 A 
ATOM     13  C   UNL     1      -2.214  12.242  23.202  0.00  0.00    +0.000 A 
ENDBRANCH   1   7
BRANCH   1  17
ATOM     14  C   UNL     1       1.761  14.809  21.775  0.00  0.00    +0.000 C 
ATOM     15  C   UNL     1       0.463  14.252  21.248  0.00  0.00    +0.000 C 
ATOM     16  O   UNL     1      -0.399  14.977  20.770  0.00  0.00    +0.000 OA
ATOM     17  N   UNL     1       0.351  12.895  21.439  0.00  0.00    +0.000 N 
ATOM     18  H   UNL     1       1.190  12.413  21.731  0.00  0.00    +0.000 HD
ENDBRANCH   1  17
BRANCH   4  19
ATOM     19  C   UNL     1       1.245   9.720  17.950  0.00  0.00    +0.000 C 
BRANCH  19  20
ATOM     20  C   UNL     1       2.197   8.730  18.634  0.00  0.00    +0.000 C 
BRANCH  20  21
ATOM     21  C   UNL     1       2.781   7.660  17.698  0.00  0.00    +0.000 C 
BRANCH  21  22
ATOM     22  C   UNL     1       3.569   6.531  18.408  0.00  0.00    +0.000 C 
BRANCH  22  23
ATOM     23  C   UNL     1       2.642   5.410  18.876  0.00  0.00    +0.000 A 
ATOM     24  C   UNL     1       2.117   4.478  17.964  0.00  0.00    +0.000 A 
ATOM     25  C   UNL     1       1.241   3.480  18.390  0.00  0.00    +0.000 A 
ATOM     26  C   UNL     1       0.885   3.408  19.729  0.00  0.00    +0.000 A 
ATOM     27  F   UNL     1       0.039   2.453  20.136  0.00  0.00    +0.000 F 
ATOM     28  C   UNL     1       1.392   4.314  20.653  0.00  0.00    +0.000 A 
ATOM     29  C   UNL     1       2.272   5.312  20.230  0.00  0.00    +0.000 A 
ENDBRANCH  22  23
BRANCH  22  30
ATOM     30  C   UNL     1       4.730   5.992  17.568  0.00  0.00    +0.000 A 
ATOM     31  C   UNL     1       4.810   6.340  16.208  0.00  0.00    +0.000 A 
ATOM     32  C   UNL     1       5.862   5.875  15.413  0.00  0.00    +0.000 A 
ATOM     33  C   UNL     1       6.840   5.069  15.975  0.00  0.00    +0.000 A 
ATOM     34  F   UNL     1       7.851   4.625  15.214  0.00  0.00    +0.000 F 
ATOM     35  C   UNL     1       6.789   4.715  17.315  0.00  0.00    +0.000 A 
ATOM     36  C   UNL     1       5.740   5.176  18.110  0.00  0.00    +0.000 A 
ENDBRANCH  22  30
ENDBRANCH  21  22
ENDBRANCH  20  21
ENDBRANCH  19  20
ENDBRANCH   4  19
TORSDOF 8
ENDMDL
MODEL 4
REMARK VINA RESULT:      -8.7      1.446      4.235
REMARK  Name = 
REMARK  10 active torsions:
REMARK  status: ('A' for Active; 'I' for Inactive)
REMARK    1  A    between atoms: C_1  and  C_2
REMARK    2  A    between atoms: N_4  and  C_5
REMARK    3  A    between atoms: C_5  and  C_6
REMARK    4  A    between atoms: C_9  and  C_10
REMARK    5  A    between atoms: N_15  and  C_16
REMARK    6  A    between atoms: C_16  and  C_17
REMARK    7  A    between atoms: C_17  and  C_18
REMARK    8  A    between atoms: C_18  and  C_19
REMARK    9  A    between atoms: C_19  and  C_20
REMARK   10  A    between atoms: C_19  and  C_27
REMARK                            x       y       z     vdW  Elec       q    Type
REMARK                         _______ _______ _______ _____ _____    ______ ____
ROOT
ATOM      1  C   UNL     1      -1.144  11.937  21.295  0.00  0.00    +0.000 C 
ATOM      2  C   UNL     1      -0.745  10.861  22.334  0.00  0.00    +0.000 C 
ATOM      3  C   UNL     1       0.530  10.121  21.966  0.00  0.00    +0.000 C 
ATOM      4  N   UNL     1       0.363   9.442  20.674  0.00  0.00    +0.000 NA
ATOM      5  C   UNL     1       0.088  10.417  19.617  0.00  0.00    +0.000 C 
ATOM      6  C   UNL     1      -1.186  11.214  19.913  0.00  0.00    +0.000 C 
ENDROOT
BRANCH   1   7
ATOM      7  C   UNL     1      -2.555  12.516  21.565  0.00  0.00    +0.000 A 
ATOM      8  C   UNL     1      -3.176  12.342  22.815  0.00  0.00    +0.000 A 
ATOM      9  C   UNL     1      -4.351  13.029  23.148  0.00  0.00    +0.000 A 
ATOM     10  C   UNL     1      -4.945  13.905  22.238  0.00  0.00    +0.000 A 
ATOM     11  C   UNL     1      -6.156  14.711  22.602  0.00  0.00    +0.000 C 
ATOM     12  C   UNL     1      -4.395  14.017  20.962  0.00  0.00    +0.000 A 
ATOM     13  C   UNL     1      -3.225  13.327  20.629  0.00  0.00    +0.000 A 
ENDBRANCH   1   7
BRANCH   1  17
ATOM     14  C   UNL     1       1.203  14.947  21.702  0.00  0.00    +0.000 C 
ATOM     15  C   UNL     1       0.127  13.986  22.139  0.00  0.00    +0.000 C 
ATOM     16  O   UNL     1      -0.373  14.046  23.255  0.00  0.00    +0.000 OA
ATOM     17  N   UNL     1      -0.150  13.031  21.189  0.00  0.00    +0.000 N 
ATOM     18  H   UNL     1       0.249  13.182  20.273  0.00  0.00    +0.000 HD
ENDBRANCH   1  17
BRANCH   4  19
ATOM     19  C   UNL     1       1.530   8.614  20.344  0.00  0.00    +0.000 C 
BRANCH  19  20
ATOM     20  C   UNL     1       1.471   8.047  18.919  0.00  0.00    +0.000 C 
BRANCH  20  21
ATOM     21  C   UNL     1       2.806   7.490  18.401  0.00  0.00    +0.000 C 
BRANCH  21  22
ATOM     22  C   UNL     1       2.751   6.024  17.902  0.00  0.00    +0.000 C 
BRANCH  22  23
ATOM     23  C   UNL     1       4.082   5.590  17.289  0.00  0.00    +0.000 A 
ATOM     24  C   UNL     1       4.246   4.299  16.757  0.00  0.00    +0.000 A 
ATOM     25  C   UNL     1       5.474   3.896  16.233  0.00  0.00    +0.000 A 
ATOM     26  C   UNL     1       6.544   4.779  16.240  0.00  0.00    +0.000 A 
ATOM     27  F   UNL     1       7.726   4.388  15.744  0.00  0.00    +0.000 F 
ATOM     28  C   UNL     1       6.409   6.062  16.758  0.00  0.00    +0.000 A 
ATOM     29  C   UNL     1       5.179   6.470  17.278  0.00  0.00    +0.000 A 
ENDBRANCH  22  23
BRANCH  22  30
ATOM     30  C   UNL     1       2.278   5.043  18.979  0.00  0.00    +0.000 A 
ATOM     31  C   UNL     1       2.814   5.139  20.276  0.00  0.00    +0.000 A 
ATOM     32  C   UNL     1       2.398   4.267  21.286  0.00  0.00    +0.000 A 
ATOM     33  C   UNL     1       1.441   3.303  21.008  0.00  0.00    +0.000 A 
ATOM     34  F   UNL     1       1.039   2.469  21.978  0.00  0.00    +0.000 F 
ATOM     35  C   UNL     1       0.891   3.190  19.740  0.00  0.00    +0.000 A 
ATOM     36  C   UNL     1       1.306   4.057  18.729  0.00  0.00    +0.000 A 
ENDBRANCH  22  30
ENDBRANCH  21  22
ENDBRANCH  20  21
ENDBRANCH  19  20
ENDBRANCH   4  19
TORSDOF 8
ENDMDL
MODEL 5
REMARK VINA RESULT:      -8.7      1.322      1.830
REMARK  Name = 
REMARK  10 active torsions:
REMARK  status: ('A' for Active; 'I' for Inactive)
REMARK    1  A    between atoms: C_1  and  C_2
REMARK    2  A    between atoms: N_4  and  C_5
REMARK    3  A    between atoms: C_5  and  C_6
REMARK    4  A    between atoms: C_9  and  C_10
REMARK    5  A    between atoms: N_15  and  C_16
REMARK    6  A    between atoms: C_16  and  C_17
REMARK    7  A    between atoms: C_17  and  C_18
REMARK    8  A    between atoms: C_18  and  C_19
REMARK    9  A    between atoms: C_19  and  C_20
REMARK   10  A    between atoms: C_19  and  C_27
REMARK                            x       y       z     vdW  Elec       q    Type
REMARK                         _______ _______ _______ _____ _____    ______ ____
ROOT
ATOM      1  C   UNL     1      -1.624  11.833  19.441  0.00  0.00    +0.000 C 
ATOM      2  C   UNL     1      -0.955  11.315  20.737  0.00  0.00    +0.000 C 
ATOM      3  C   UNL     1       0.439  10.758  20.507  0.00  0.00    +0.000 C 
ATOM      4  N   UNL     1       0.383   9.633  19.563  0.00  0.00    +0.000 NA
ATOM      5  C   UNL     1      -0.142  10.078  18.271  0.00  0.00    +0.000 C 
ATOM      6  C   UNL     1      -1.551  10.660  18.415  0.00  0.00    +0.000 C 
ENDROOT
BRANCH   1   7
ATOM      7  C   UNL     1      -3.119  12.181  19.652  0.00  0.00    +0.000 A 
ATOM      8  C   UNL     1      -4.074  11.869  18.667  0.00  0.00    +0.000 A 
ATOM      9  C   UNL     1      -5.447  11.983  18.923  0.00  0.00    +0.000 A 
ATOM     10  C   UNL     1      -5.906  12.419  20.167  0.00  0.00    +0.000 A 
ATOM     11  C   UNL     1      -7.370  12.472  20.488  0.00  0.00    +0.000 C 
ATOM     12  C   UNL     1      -4.972  12.821  21.120  0.00  0.00    +0.000 A 
ATOM     13  C   UNL     1      -3.601  12.713  20.862  0.00  0.00    +0.000 A 
ENDBRANCH   1   7
BRANCH   1  17
ATOM     14  C   UNL     1       0.205  15.097  18.580  0.00  0.00    +0.000 C 
ATOM     15  C   UNL     1      -0.508  14.130  19.492  0.00  0.00    +0.000 C 
ATOM     16  O   UNL     1      -0.637  14.354  20.688  0.00  0.00    +0.000 OA
ATOM     17  N   UNL     1      -0.906  12.984  18.844  0.00  0.00    +0.000 N 
ATOM     18  H   UNL     1      -0.844  12.995  17.836  0.00  0.00    +0.000 HD
ENDBRANCH   1  17
BRANCH   4  19
ATOM     19  C   UNL     1       1.695   8.989  19.411  0.00  0.00    +0.000 C 
BRANCH  19  20
ATOM     20  C   UNL     1       2.145   8.901  17.946  0.00  0.00    +0.000 C 
BRANCH  20  21
ATOM     21  C   UNL     1       2.403   7.471  17.447  0.00  0.00    +0.000 C 
BRANCH  21  22
ATOM     22  C   UNL     1       3.388   6.645  18.313  0.00  0.00    +0.000 C 
BRANCH  22  23
ATOM     23  C   UNL     1       2.665   5.543  19.086  0.00  0.00    +0.000 A 
ATOM     24  C   UNL     1       1.905   4.569  18.416  0.00  0.00    +0.000 A 
ATOM     25  C   UNL     1       1.217   3.587  19.128  0.00  0.00    +0.000 A 
ATOM     26  C   UNL     1       1.283   3.575  20.514  0.00  0.00    +0.000 A 
ATOM     27  F   UNL     1       0.616   2.637  21.199  0.00  0.00    +0.000 F 
ATOM     28  C   UNL     1       2.029   4.525  21.203  0.00  0.00    +0.000 A 
ATOM     29  C   UNL     1       2.723   5.505  20.491  0.00  0.00    +0.000 A 
ENDBRANCH  22  23
BRANCH  22  30
ATOM     30  C   UNL     1       4.570   6.093  17.513  0.00  0.00    +0.000 A 
ATOM     31  C   UNL     1       4.661   6.380  16.139  0.00  0.00    +0.000 A 
ATOM     32  C   UNL     1       5.732   5.901  15.379  0.00  0.00    +0.000 A 
ATOM     33  C   UNL     1       6.720   5.143  15.989  0.00  0.00    +0.000 A 
ATOM     34  F   UNL     1       7.749   4.686  15.261  0.00  0.00    +0.000 F 
ATOM     35  C   UNL     1       6.659   4.850  17.343  0.00  0.00    +0.000 A 
ATOM     36  C   UNL     1       5.590   5.324  18.103  0.00  0.00    +0.000 A 
ENDBRANCH  22  30
ENDBRANCH  21  22
ENDBRANCH  20  21
ENDBRANCH  19  20
ENDBRANCH   4  19
TORSDOF 8
ENDMDL
MODEL 6
REMARK VINA RESULT:      -8.7      1.217      1.509
REMARK  Name = 
REMARK  10 active torsions:
REMARK  status: ('A' for Active; 'I' for Inactive)
REMARK    1  A    between atoms: C_1  and  C_2
REMARK    2  A    between atoms: N_4  and  C_5
REMARK    3  A    between atoms: C_5  and  C_6
REMARK    4  A    between atoms: C_9  and  C_10
REMARK    5  A    between atoms: N_15  and  C_16
REMARK    6  A    between atoms: C_16  and  C_17
REMARK    7  A    between atoms: C_17  and  C_18
REMARK    8  A    between atoms: C_18  and  C_19
REMARK    9  A    between atoms: C_19  and  C_20
REMARK   10  A    between atoms: C_19  and  C_27
REMARK                            x       y       z     vdW  Elec       q    Type
REMARK                         _______ _______ _______ _____ _____    ______ ____
ROOT
ATOM      1  C   UNL     1      -0.916  11.864  20.802  0.00  0.00    +0.000 C 
ATOM      2  C   UNL     1      -0.279  10.945  21.873  0.00  0.00    +0.000 C 
ATOM      3  C   UNL     1       0.950  10.206  21.371  0.00  0.00    +0.000 C 
ATOM      4  N   UNL     1       0.595   9.361  20.223  0.00  0.00    +0.000 NA
ATOM      5  C   UNL     1       0.083  10.182  19.124  0.00  0.00    +0.000 C 
ATOM      6  C   UNL     1      -1.161  10.967  19.550  0.00  0.00    +0.000 C 
ENDROOT
BRANCH   1   7
ATOM      7  C   UNL     1      -2.287  12.426  21.254  0.00  0.00    +0.000 A 
ATOM      8  C   UNL     1      -3.240  12.840  20.305  0.00  0.00    +0.000 A 
ATOM      9  C   UNL     1      -4.554  13.152  20.681  0.00  0.00    +0.000 A 
ATOM     10  C   UNL     1      -4.952  13.067  22.017  0.00  0.00    +0.000 A 
ATOM     11  C   UNL     1      -6.372  13.318  22.428  0.00  0.00    +0.000 C 
ATOM     12  C   UNL     1      -3.996  12.748  22.979  0.00  0.00    +0.000 A 
ATOM     13  C   UNL     1      -2.683  12.442  22.604  0.00  0.00    +0.000 A 
ENDBRANCH   1   7
BRANCH   1  17
ATOM     14  C   UNL     1       1.421  14.888  20.443  0.00  0.00    +0.000 C 
ATOM     15  C   UNL     1       0.558  13.911  21.201  0.00  0.00    +0.000 C 
ATOM     16  O   UNL     1       0.464  13.952  22.421  0.00  0.00    +0.000 OA
ATOM     17  N   UNL     1      -0.019  12.967  20.385  0.00  0.00    +0.000 N 
ATOM     18  H   UNL     1       0.047  13.134  19.391  0.00  0.00    +0.000 HD
ENDBRANCH   1  17
BRANCH   4  19
ATOM     19  C   UNL     1       1.730   8.537  19.787  0.00  0.00    +0.000 C 
BRANCH  19  20
ATOM     20  C   UNL     1       2.009   8.661  18.283  0.00  0.00    +0.000 C 
BRANCH  20  21
ATOM     21  C   UNL     1       2.211   7.319  17.562  0.00  0.00    +0.000 C 
BRANCH  21  22
ATOM     22  C   UNL     1       3.243   6.372  18.223  0.00  0.00    +0.000 C 
BRANCH  22  23
ATOM     23  C   UNL     1       2.559   5.328  19.106  0.00  0.00    +0.000 A 
ATOM     24  C   UNL     1       2.899   5.195  20.463  0.00  0.00    +0.000 A 
ATOM     25  C   UNL     1       2.300   4.215  21.255  0.00  0.00    +0.000 A 
ATOM     26  C   UNL     1       1.360   3.362  20.694  0.00  0.00    +0.000 A 
ATOM     27  F   UNL     1       0.791   2.417  21.452  0.00  0.00    +0.000 F 
ATOM     28  C   UNL     1       1.003   3.473  19.354  0.00  0.00    +0.000 A 
ATOM     29  C   UNL     1       1.599   4.456  18.561  0.00  0.00    +0.000 A 
ENDBRANCH  22  23
BRANCH  22  30
ATOM     30  C   UNL     1       4.194   5.724  17.214  0.00  0.00    +0.000 A 
ATOM     31  C   UNL     1       4.402   4.333  17.264  0.00  0.00    +0.000 A 
ATOM     32  C   UNL     1       5.256   3.706  16.351  0.00  0.00    +0.000 A 
ATOM     33  C   UNL     1       5.897   4.462  15.382  0.00  0.00    +0.000 A 
ATOM     34  F   UNL     1       6.713   3.861  14.505  0.00  0.00    +0.000 F 
ATOM     35  C   UNL     1       5.705   5.834  15.306  0.00  0.00    +0.000 A 
ATOM     36  C   UNL     1       4.856   6.463  16.216  0.00  0.00    +0.000 A 
ENDBRANCH  22  30
ENDBRANCH  21  22
ENDBRANCH  20  21
ENDBRANCH  19  20
ENDBRANCH   4  19
TORSDOF 8
ENDMDL
MODEL 7
REMARK VINA RESULT:      -8.7      1.875      4.517
REMARK  Name = 
REMARK  10 active torsions:
REMARK  status: ('A' for Active; 'I' for Inactive)
REMARK    1  A    between atoms: C_1  and  C_2
REMARK    2  A    between atoms: N_4  and  C_5
REMARK    3  A    between atoms: C_5  and  C_6
REMARK    4  A    between atoms: C_9  and  C_10
REMARK    5  A    between atoms: N_15  and  C_16
REMARK    6  A    between atoms: C_16  and  C_17
REMARK    7  A    between atoms: C_17  and  C_18
REMARK    8  A    between atoms: C_18  and  C_19
REMARK    9  A    between atoms: C_19  and  C_20
REMARK   10  A    between atoms: C_19  and  C_27
REMARK                            x       y       z     vdW  Elec       q    Type
REMARK                         _______ _______ _______ _____ _____    ______ ____
ROOT
ATOM      1  C   UNL     1      -1.485  11.653  19.003  0.00  0.00    +0.000 C 
ATOM      2  C   UNL     1      -1.274  11.201  20.469  0.00  0.00    +0.000 C 
ATOM      3  C   UNL     1       0.132  10.696  20.740  0.00  0.00    +0.000 C 
ATOM      4  N   UNL     1       0.429   9.543  19.879  0.00  0.00    +0.000 NA
ATOM      5  C   UNL     1       0.354   9.928  18.468  0.00  0.00    +0.000 C 
ATOM      6  C   UNL     1      -1.039  10.455  18.109  0.00  0.00    +0.000 C 
ENDROOT
BRANCH   1   7
ATOM      7  C   UNL     1      -2.973  11.945  18.689  0.00  0.00    +0.000 A 
ATOM      8  C   UNL     1      -3.529  11.582  17.448  0.00  0.00    +0.000 A 
ATOM      9  C   UNL     1      -4.911  11.646  17.223  0.00  0.00    +0.000 A 
ATOM     10  C   UNL     1      -5.778  12.081  18.228  0.00  0.00    +0.000 A 
ATOM     11  C   UNL     1      -7.264  12.080  18.035  0.00  0.00    +0.000 C 
ATOM     12  C   UNL     1      -5.233  12.532  19.429  0.00  0.00    +0.000 A 
ATOM     13  C   UNL     1      -3.854  12.474  19.651  0.00  0.00    +0.000 A 
ENDBRANCH   1   7
BRANCH   1  17
ATOM     14  C   UNL     1       0.441  14.958  18.676  0.00  0.00    +0.000 C 
ATOM     15  C   UNL     1      -0.502  13.987  19.340  0.00  0.00    +0.000 C 
ATOM     16  O   UNL     1      -1.015  14.230  20.425  0.00  0.00    +0.000 OA
ATOM     17  N   UNL     1      -0.643  12.815  18.633  0.00  0.00    +0.000 N 
ATOM     18  H   UNL     1      -0.260  12.807  17.699  0.00  0.00    +0.000 HD
ENDBRANCH   1  17
BRANCH   4  19
ATOM     19  C   UNL     1       1.734   8.949  20.200  0.00  0.00    +0.000 C 
BRANCH  19  20
ATOM     20  C   UNL     1       1.831   7.475  19.786  0.00  0.00    +0.000 C 
BRANCH  20  21
ATOM     21  C   UNL     1       2.705   7.220  18.547  0.00  0.00    +0.000 C 
BRANCH  21  22
ATOM     22  C   UNL     1       2.732   5.749  18.059  0.00  0.00    +0.000 C 
BRANCH  22  23
ATOM     23  C   UNL     1       4.072   5.397  17.415  0.00  0.00    +0.000 A 
ATOM     24  C   UNL     1       4.245   4.186  16.723  0.00  0.00    +0.000 A 
ATOM     25  C   UNL     1       5.482   3.852  16.169  0.00  0.00    +0.000 A 
ATOM     26  C   UNL     1       6.551   4.726  16.307  0.00  0.00    +0.000 A 
ATOM     27  F   UNL     1       7.740   4.401  15.783  0.00  0.00    +0.000 F 
ATOM     28  C   UNL     1       6.407   5.931  16.985  0.00  0.00    +0.000 A 
ATOM     29  C   UNL     1       5.169   6.269  17.536  0.00  0.00    +0.000 A 
ENDBRANCH  22  23
BRANCH  22  30
ATOM     30  C   UNL     1       2.350   4.749  19.154  0.00  0.00    +0.000 A 
ATOM     31  C   UNL     1       1.209   3.945  18.978  0.00  0.00    +0.000 A 
ATOM     32  C   UNL     1       0.836   3.013  19.952  0.00  0.00    +0.000 A 
ATOM     33  C   UNL     1       1.603   2.877  21.098  0.00  0.00    +0.000 A 
ATOM     34  F   UNL     1       1.247   1.981  22.030  0.00  0.00    +0.000 F 
ATOM     35  C   UNL     1       2.736   3.652  21.294  0.00  0.00    +0.000 A 
ATOM     36  C   UNL     1       3.110   4.584  20.326  0.00  0.00    +0.000 A 
ENDBRANCH  22  30
ENDBRANCH  21  22
ENDBRANCH  20  21
ENDBRANCH  19  20
ENDBRANCH   4  19
TORSDOF 8
ENDMDL
MODEL 8
REMARK VINA RESULT:      -8.6      1.622      4.572
REMARK  Name = 
REMARK  10 active torsions:
REMARK  status: ('A' for Active; 'I' for Inactive)
REMARK    1  A    between atoms: C_1  and  C_2
REMARK    2  A    between atoms: N_4  and  C_5
REMARK    3  A    between atoms: C_5  and  C_6
REMARK    4  A    between atoms: C_9  and  C_10
REMARK    5  A    between atoms: N_15  and  C_16
REMARK    6  A    between atoms: C_16  and  C_17
REMARK    7  A    between atoms: C_17  and  C_18
REMARK    8  A    between atoms: C_18  and  C_19
REMARK    9  A    between atoms: C_19  and  C_20
REMARK   10  A    between atoms: C_19  and  C_27
REMARK                            x       y       z     vdW  Elec       q    Type
REMARK                         _______ _______ _______ _____ _____    ______ ____
ROOT
ATOM      1  C   UNL     1      -1.049  11.812  20.210  0.00  0.00    +0.000 C 
ATOM      2  C   UNL     1      -1.411  11.158  18.854  0.00  0.00    +0.000 C 
ATOM      3  C   UNL     1      -0.393  10.127  18.399  0.00  0.00    +0.000 C 
ATOM      4  N   UNL     1       0.926  10.755  18.245  0.00  0.00    +0.000 NA
ATOM      5  C   UNL     1       1.382  11.304  19.524  0.00  0.00    +0.000 C 
ATOM      6  C   UNL     1       0.405  12.355  20.057  0.00  0.00    +0.000 C 
ENDROOT
BRANCH   1   7
ATOM      7  C   UNL     1      -1.967  13.015  20.543  0.00  0.00    +0.000 A 
ATOM      8  C   UNL     1      -1.454  14.325  20.562  0.00  0.00    +0.000 A 
ATOM      9  C   UNL     1      -2.302  15.437  20.654  0.00  0.00    +0.000 A 
ATOM     10  C   UNL     1      -3.686  15.274  20.736  0.00  0.00    +0.000 A 
ATOM     11  C   UNL     1      -4.614  16.451  20.754  0.00  0.00    +0.000 C 
ATOM     12  C   UNL     1      -4.202  13.981  20.812  0.00  0.00    +0.000 A 
ATOM     13  C   UNL     1      -3.355  12.871  20.727  0.00  0.00    +0.000 A 
ENDBRANCH   1   7
BRANCH   1  17
ATOM     14  C   UNL     1      -0.804   9.883  23.519  0.00  0.00    +0.000 C 
ATOM     15  C   UNL     1      -0.692  11.100  22.637  0.00  0.00    +0.000 C 
ATOM     16  O   UNL     1      -0.382  12.194  23.089  0.00  0.00    +0.000 OA
ATOM     17  N   UNL     1      -1.042  10.844  21.332  0.00  0.00    +0.000 N 
ATOM     18  H   UNL     1      -1.154   9.872  21.080  0.00  0.00    +0.000 HD
ENDBRANCH   1  17
BRANCH   4  19
ATOM     19  C   UNL     1       1.910   9.817  17.687  0.00  0.00    +0.000 C 
BRANCH  19  20
ATOM     20  C   UNL     1       1.634   8.362  18.088  0.00  0.00    +0.000 C 
BRANCH  20  21
ATOM     21  C   UNL     1       2.897   7.515  18.312  0.00  0.00    +0.000 C 
BRANCH  21  22
ATOM     22  C   UNL     1       2.805   6.058  17.792  0.00  0.00    +0.000 C 
BRANCH  22  23
ATOM     23  C   UNL     1       4.130   5.594  17.188  0.00  0.00    +0.000 A 
ATOM     24  C   UNL     1       5.196   6.492  17.007  0.00  0.00    +0.000 A 
ATOM     25  C   UNL     1       6.390   6.073  16.421  0.00  0.00    +0.000 A 
ATOM     26  C   UNL     1       6.524   4.754  16.011  0.00  0.00    +0.000 A 
ATOM     27  F   UNL     1       7.668   4.353  15.441  0.00  0.00    +0.000 F 
ATOM     28  C   UNL     1       5.487   3.843  16.180  0.00  0.00    +0.000 A 
ATOM     29  C   UNL     1       4.292   4.260  16.771  0.00  0.00    +0.000 A 
ENDBRANCH  22  23
BRANCH  22  30
ATOM     30  C   UNL     1       2.291   5.077  18.849  0.00  0.00    +0.000 A 
ATOM     31  C   UNL     1       2.705   5.230  20.185  0.00  0.00    +0.000 A 
ATOM     32  C   UNL     1       2.247   4.360  21.179  0.00  0.00    +0.000 A 
ATOM     33  C   UNL     1       1.371   3.339  20.844  0.00  0.00    +0.000 A 
ATOM     34  F   UNL     1       0.930   2.506  21.797  0.00  0.00    +0.000 F 
ATOM     35  C   UNL     1       0.942   3.168  19.537  0.00  0.00    +0.000 A 
ATOM     36  C   UNL     1       1.398   4.033  18.543  0.00  0.00    +0.000 A 
ENDBRANCH  22  30
ENDBRANCH  21  22
ENDBRANCH  20  21
ENDBRANCH  19  20
ENDBRANCH   4  19
TORSDOF 8
ENDMDL
MODEL 9
REMARK VINA RESULT:      -8.6      1.560      5.157
REMARK  Name = 
REMARK  10 active torsions:
REMARK  status: ('A' for Active; 'I' for Inactive)
REMARK    1  A    between atoms: C_1  and  C_2
REMARK    2  A    between atoms: N_4  and  C_5
REMARK    3  A    between atoms: C_5  and  C_6
REMARK    4  A    between atoms: C_9  and  C_10
REMARK    5  A    between atoms: N_15  and  C_16
REMARK    6  A    between atoms: C_16  and  C_17
REMARK    7  A    between atoms: C_17  and  C_18
REMARK    8  A    between atoms: C_18  and  C_19
REMARK    9  A    between atoms: C_19  and  C_20
REMARK   10  A    between atoms: C_19  and  C_27
REMARK                            x       y       z     vdW  Elec       q    Type
REMARK                         _______ _______ _______ _____ _____    ______ ____
ROOT
ATOM      1  C   UNL     1       0.047  12.844  19.769  0.00  0.00    +0.000 C 
ATOM      2  C   UNL     1      -0.774  12.319  18.565  0.00  0.00    +0.000 C 
ATOM      3  C   UNL     1      -0.694  10.811  18.402  0.00  0.00    +0.000 C 
ATOM      4  N   UNL     1       0.701  10.400  18.193  0.00  0.00    +0.000 NA
ATOM      5  C   UNL     1       1.519  10.771  19.350  0.00  0.00    +0.000 C 
ATOM      6  C   UNL     1       1.491  12.283  19.589  0.00  0.00    +0.000 C 
ENDROOT
BRANCH   1   7
ATOM      7  C   UNL     1       0.141  14.390  19.783  0.00  0.00    +0.000 A 
ATOM      8  C   UNL     1       0.944  15.051  20.731  0.00  0.00    +0.000 A 
ATOM      9  C   UNL     1       1.208  16.424  20.631  0.00  0.00    +0.000 A 
ATOM     10  C   UNL     1       0.671  17.179  19.586  0.00  0.00    +0.000 A 
ATOM     11  C   UNL     1       1.005  18.630  19.416  0.00  0.00    +0.000 C 
ATOM     12  C   UNL     1      -0.201  16.558  18.694  0.00  0.00    +0.000 A 
ATOM     13  C   UNL     1      -0.469  15.189  18.797  0.00  0.00    +0.000 A 
ENDBRANCH   1   7
BRANCH   1  17
ATOM     14  C   UNL     1      -1.896  11.887  22.939  0.00  0.00    +0.000 C 
ATOM     15  C   UNL     1      -1.719  12.536  21.589  0.00  0.00    +0.000 C 
ATOM     16  O   UNL     1      -2.644  13.103  21.024  0.00  0.00    +0.000 OA
ATOM     17  N   UNL     1      -0.459  12.347  21.070  0.00  0.00    +0.000 N 
ATOM     18  H   UNL     1       0.234  11.970  21.701  0.00  0.00    +0.000 HD
ENDBRANCH   1  17
BRANCH   4  19
ATOM     19  C   UNL     1       0.804   8.963  17.908  0.00  0.00    +0.000 C 
BRANCH  19  20
ATOM     20  C   UNL     1       2.245   8.517  17.628  0.00  0.00    +0.000 C 
BRANCH  20  21
ATOM     21  C   UNL     1       2.771   7.434  18.583  0.00  0.00    +0.000 C 
BRANCH  21  22
ATOM     22  C   UNL     1       2.687   5.986  18.037  0.00  0.00    +0.000 C 
BRANCH  22  23
ATOM     23  C   UNL     1       4.001   5.555  17.386  0.00  0.00    +0.000 A 
ATOM     24  C   UNL     1       5.066   6.460  17.241  0.00  0.00    +0.000 A 
ATOM     25  C   UNL     1       6.250   6.073  16.612  0.00  0.00    +0.000 A 
ATOM     26  C   UNL     1       6.373   4.780  16.124  0.00  0.00    +0.000 A 
ATOM     27  F   UNL     1       7.506   4.410  15.513  0.00  0.00    +0.000 F 
ATOM     28  C   UNL     1       5.336   3.863  16.256  0.00  0.00    +0.000 A 
ATOM     29  C   UNL     1       4.152   4.248  16.889  0.00  0.00    +0.000 A 
ENDBRANCH  22  23
BRANCH  22  30
ATOM     30  C   UNL     1       2.219   4.977  19.089  0.00  0.00    +0.000 A 
ATOM     31  C   UNL     1       2.641   5.131  20.422  0.00  0.00    +0.000 A 
ATOM     32  C   UNL     1       2.225   4.234  21.411  0.00  0.00    +0.000 A 
ATOM     33  C   UNL     1       1.382   3.187  21.074  0.00  0.00    +0.000 A 
ATOM     34  F   UNL     1       0.980   2.329  22.022  0.00  0.00    +0.000 F 
ATOM     35  C   UNL     1       0.945   3.014  19.769  0.00  0.00    +0.000 A 
ATOM     36  C   UNL     1       1.360   3.906  18.780  0.00  0.00    +0.000 A 
ENDBRANCH  22  30
ENDBRANCH  21  22
ENDBRANCH  20  21
ENDBRANCH  19  20
ENDBRANCH   4  19
TORSDOF 8
ENDMDL
