MODEL 1
REMARK VINA RESULT:      -7.5      0.000      0.000
REMARK  Name = 
REMARK  8 active torsions:
REMARK  status: ('A' for Active; 'I' for Inactive)
REMARK    1  A    between atoms: C_1  and  C_2
REMARK    2  A    between atoms: C_2  and  O_4
REMARK    3  A    between atoms: O_4  and  C_5
REMARK    4  A    between atoms: C_8  and  N_9
REMARK    5  A    between atoms: C_25  and  C_26
REMARK    6  A    between atoms: C_26  and  C_27
REMARK    7  A    between atoms: C_26  and  C_28
REMARK    8  A    between atoms: C_26  and  C_29
REMARK                            x       y       z     vdW  Elec       q    Type
REMARK                         _______ _______ _______ _____ _____    ______ ____
ROOT
ATOM      1  N   UNL     1      -1.701  15.647  22.133  0.00  0.00    +0.000 N 
ATOM      2  C   UNL     1      -1.439  16.421  20.979  0.00  0.00    +0.000 C 
ATOM      3  O   UNL     1      -2.204  16.669  20.059  0.00  0.00    +0.000 OA
ATOM      4  C   UNL     1       0.063  16.858  21.072  0.00  0.00    +0.000 C 
ATOM      5  C   UNL     1       1.060  16.925  19.927  0.00  0.00    +0.000 A 
ATOM      6  N   UNL     1       2.267  17.606  20.033  0.00  0.00    +0.000 N 
ATOM      7  C   UNL     1       3.273  16.871  19.409  0.00  0.00    +0.000 A 
ATOM      8  C   UNL     1       4.665  16.860  19.586  0.00  0.00    +0.000 A 
ATOM      9  C   UNL     1       5.428  15.994  18.789  0.00  0.00    +0.000 A 
ATOM     10  C   UNL     1       4.829  15.228  17.791  0.00  0.00    +0.000 A 
ATOM     11  C   UNL     1       3.443  15.223  17.655  0.00  0.00    +0.000 A 
ATOM     12  C   UNL     1       2.640  15.983  18.541  0.00  0.00    +0.000 A 
ATOM     13  C   UNL     1       1.317  15.875  19.052  0.00  0.00    +0.000 A 
ATOM     14  C   UNL     1       0.458  14.653  19.209  0.00  0.00    +0.000 C 
ATOM     15  C   UNL     1       0.763  13.457  18.313  0.00  0.00    +0.000 C 
ATOM     16  C   UNL     1       1.666  12.407  18.940  0.00  0.00    +0.000 C 
ATOM     17  C   UNL     1       1.272  11.958  20.364  0.00  0.00    +0.000 C 
ATOM     18  C   UNL     1       1.309  13.210  21.254  0.00  0.00    +0.000 C 
ATOM     19  C   UNL     1       0.409  14.321  20.758  0.00  0.00    +0.000 C 
ATOM     20  C   UNL     1       0.548  15.583  21.753  0.00  0.00    +0.000 C 
ATOM     21  C   UNL     1      -0.503  15.528  22.802  0.00  0.00    +0.000 C 
ATOM     22  O   UNL     1      -0.260  15.494  23.993  0.00  0.00    +0.000 OA
ATOM     23  H   UNL     1       2.471  18.311  20.730  0.00  0.00    +0.000 HD
ENDROOT
BRANCH   1  27
ATOM     24  C   UNL     1      -4.774  13.055  23.548  0.00  0.00    +0.000 A 
ATOM     25  C   UNL     1      -3.437  12.638  23.622  0.00  0.00    +0.000 A 
ATOM     26  C   UNL     1      -2.394  13.403  23.024  0.00  0.00    +0.000 A 
ATOM     27  C   UNL     1      -2.682  14.600  22.354  0.00  0.00    +0.000 A 
ATOM     28  C   UNL     1      -4.056  14.887  22.157  0.00  0.00    +0.000 A 
ATOM     29  C   UNL     1      -5.087  14.136  22.743  0.00  0.00    +0.000 A 
BRANCH  24  30
ATOM     30  O   UNL     1      -5.739  12.388  24.355  0.00  0.00    +0.000 OA
BRANCH  30  32
ATOM     31  C   UNL     1      -7.786  13.658  24.356  0.00  0.00    +0.000 C 
ATOM     32  C   UNL     1      -7.107  12.355  24.032  0.00  0.00    +0.000 C 
ATOM     33  O   UNL     1      -7.724  11.409  23.550  0.00  0.00    +0.000 OA
ENDBRANCH  30  32
ENDBRANCH  24  30
ENDBRANCH   1  27
BRANCH  17  34
ATOM     34  C   UNL     1       0.001  11.025  20.504  0.00  0.00    +0.000 C 
ATOM     35  C   UNL     1       0.212   9.701  19.746  0.00  0.00    +0.000 C 
ATOM     36  C   UNL     1      -0.222  10.660  21.992  0.00  0.00    +0.000 C 
ATOM     37  C   UNL     1      -1.330  11.602  20.021  0.00  0.00    +0.000 C 
ENDBRANCH  17  34
TORSDOF 4
ENDMDL
MODEL 2
REMARK VINA RESULT:      -7.3      1.168      1.300
REMARK  Name = 
REMARK  8 active torsions:
REMARK  status: ('A' for Active; 'I' for Inactive)
REMARK    1  A    between atoms: C_1  and  C_2
REMARK    2  A    between atoms: C_2  and  O_4
REMARK    3  A    between atoms: O_4  and  C_5
REMARK    4  A    between atoms: C_8  and  N_9
REMARK    5  A    between atoms: C_25  and  C_26
REMARK    6  A    between atoms: C_26  and  C_27
REMARK    7  A    between atoms: C_26  and  C_28
REMARK    8  A    between atoms: C_26  and  C_29
REMARK                            x       y       z     vdW  Elec       q    Type
REMARK                         _______ _______ _______ _____ _____    ______ ____
ROOT
ATOM      1  N   UNL     1      -1.852  15.391  22.200  0.00  0.00    +0.000 N 
ATOM      2  C   UNL     1      -1.628  16.190  21.056  0.00  0.00    +0.000 C 
ATOM      3  O   UNL     1      -2.409  16.422  20.145  0.00  0.00    +0.000 OA
ATOM      4  C   UNL     1      -0.144  16.684  21.146  0.00  0.00    +0.000 C 
ATOM      5  C   UNL     1       0.841  16.807  19.996  0.00  0.00    +0.000 A 
ATOM      6  N   UNL     1       2.021  17.534  20.105  0.00  0.00    +0.000 N 
ATOM      7  C   UNL     1       3.051  16.847  19.463  0.00  0.00    +0.000 A 
ATOM      8  C   UNL     1       4.443  16.889  19.632  0.00  0.00    +0.000 A 
ATOM      9  C   UNL     1       5.234  16.065  18.818  0.00  0.00    +0.000 A 
ATOM     10  C   UNL     1       4.660  15.291  17.813  0.00  0.00    +0.000 A 
ATOM     11  C   UNL     1       3.274  15.232  17.685  0.00  0.00    +0.000 A 
ATOM     12  C   UNL     1       2.447  15.947  18.587  0.00  0.00    +0.000 A 
ATOM     13  C   UNL     1       1.133  15.780  19.104  0.00  0.00    +0.000 A 
ATOM     14  C   UNL     1       0.324  14.524  19.249  0.00  0.00    +0.000 C 
ATOM     15  C   UNL     1       0.669  13.354  18.334  0.00  0.00    +0.000 C 
ATOM     16  C   UNL     1       1.617  12.331  18.940  0.00  0.00    +0.000 C 
ATOM     17  C   UNL     1       1.250  11.846  20.359  0.00  0.00    +0.000 C 
ATOM     18  C   UNL     1       1.245  13.087  21.267  0.00  0.00    +0.000 C 
ATOM     19  C   UNL     1       0.298  14.168  20.794  0.00  0.00    +0.000 C 
ATOM     20  C   UNL     1       0.394  15.420  21.805  0.00  0.00    +0.000 C 
ATOM     21  C   UNL     1      -0.647  15.309  22.861  0.00  0.00    +0.000 C 
ATOM     22  O   UNL     1      -0.394  15.267  24.049  0.00  0.00    +0.000 OA
ATOM     23  H   UNL     1       2.203  18.236  20.810  0.00  0.00    +0.000 HD
ENDROOT
BRANCH   1  27
ATOM     24  C   UNL     1      -5.210  12.774  22.422  0.00  0.00    +0.000 A 
ATOM     25  C   UNL     1      -4.738  13.385  23.593  0.00  0.00    +0.000 A 
ATOM     26  C   UNL     1      -3.531  14.143  23.592  0.00  0.00    +0.000 A 
ATOM     27  C   UNL     1      -2.790  14.303  22.412  0.00  0.00    +0.000 A 
ATOM     28  C   UNL     1      -3.212  13.527  21.304  0.00  0.00    +0.000 A 
ATOM     29  C   UNL     1      -4.399  12.778  21.300  0.00  0.00    +0.000 A 
BRANCH  24  30
ATOM     30  O   UNL     1      -6.527  12.234  22.421  0.00  0.00    +0.000 OA
BRANCH  30  32
ATOM     31  C   UNL     1      -7.487  10.827  20.718  0.00  0.00    +0.000 C 
ATOM     32  C   UNL     1      -7.340  12.217  21.274  0.00  0.00    +0.000 C 
ATOM     33  O   UNL     1      -7.882  13.183  20.745  0.00  0.00    +0.000 OA
ENDBRANCH  30  32
ENDBRANCH  24  30
ENDBRANCH   1  27
BRANCH  17  34
ATOM     34  C   UNL     1       0.018  10.862  20.494  0.00  0.00    +0.000 C 
ATOM     35  C   UNL     1       0.477   9.397  20.378  0.00  0.00    +0.000 C 
ATOM     36  C   UNL     1      -0.631  11.021  21.891  0.00  0.00    +0.000 C 
ATOM     37  C   UNL     1      -1.120  11.049  19.491  0.00  0.00    +0.000 C 
ENDBRANCH  17  34
TORSDOF 4
ENDMDL
MODEL 3
REMARK VINA RESULT:      -7.1      3.962      7.593
REMARK  Name = 
REMARK  8 active torsions:
REMARK  status: ('A' for Active; 'I' for Inactive)
REMARK    1  A    between atoms: C_1  and  C_2
REMARK    2  A    between atoms: C_2  and  O_4
REMARK    3  A    between atoms: O_4  and  C_5
REMARK    4  A    between atoms: C_8  and  N_9
REMARK    5  A    between atoms: C_25  and  C_26
REMARK    6  A    between atoms: C_26  and  C_27
REMARK    7  A    between atoms: C_26  and  C_28
REMARK    8  A    between atoms: C_26  and  C_29
REMARK                            x       y       z     vdW  Elec       q    Type
REMARK                         _______ _______ _______ _____ _____    ______ ____
ROOT
ATOM      1  N   UNL     1       0.496  11.033  21.295  0.00  0.00    +0.000 N 
ATOM      2  C   UNL     1      -0.485  11.407  22.242  0.00  0.00    +0.000 C 
ATOM      3  O   UNL     1      -1.079  10.680  23.025  0.00  0.00    +0.000 OA
ATOM      4  C   UNL     1      -0.714  12.945  22.056  0.00  0.00    +0.000 C 
ATOM      5  C   UNL     1      -2.045  13.676  22.116  0.00  0.00    +0.000 A 
ATOM      6  N   UNL     1      -2.127  15.058  22.246  0.00  0.00    +0.000 N 
ATOM      7  C   UNL     1      -3.151  15.542  21.433  0.00  0.00    +0.000 A 
ATOM      8  C   UNL     1      -3.371  16.807  20.868  0.00  0.00    +0.000 A 
ATOM      9  C   UNL     1      -4.518  16.991  20.081  0.00  0.00    +0.000 A 
ATOM     10  C   UNL     1      -5.455  15.972  19.937  0.00  0.00    +0.000 A 
ATOM     11  C   UNL     1      -5.203  14.712  20.474  0.00  0.00    +0.000 A 
ATOM     12  C   UNL     1      -3.985  14.461  21.153  0.00  0.00    +0.000 A 
ATOM     13  C   UNL     1      -3.166  13.319  21.374  0.00  0.00    +0.000 A 
ATOM     14  C   UNL     1      -3.053  12.062  20.561  0.00  0.00    +0.000 C 
ATOM     15  C   UNL     1      -4.240  11.682  19.682  0.00  0.00    +0.000 C 
ATOM     16  C   UNL     1      -4.134  12.145  18.236  0.00  0.00    +0.000 C 
ATOM     17  C   UNL     1      -2.792  11.834  17.538  0.00  0.00    +0.000 C 
ATOM     18  C   UNL     1      -1.693  12.542  18.346  0.00  0.00    +0.000 C 
ATOM     19  C   UNL     1      -1.663  12.129  19.801  0.00  0.00    +0.000 C 
ATOM     20  C   UNL     1      -0.493  12.948  20.548  0.00  0.00    +0.000 C 
ATOM     21  C   UNL     1       0.767  12.158  20.550  0.00  0.00    +0.000 C 
ATOM     22  O   UNL     1       1.806  12.554  20.059  0.00  0.00    +0.000 OA
ATOM     23  H   UNL     1      -1.376  15.652  22.574  0.00  0.00    +0.000 HD
ENDROOT
BRANCH   1  27
ATOM     24  C   UNL     1       2.039   7.332  19.849  0.00  0.00    +0.000 A 
ATOM     25  C   UNL     1       1.919   8.416  18.968  0.00  0.00    +0.000 A 
ATOM     26  C   UNL     1       1.270   9.620  19.367  0.00  0.00    +0.000 A 
ATOM     27  C   UNL     1       0.742   9.751  20.660  0.00  0.00    +0.000 A 
ATOM     28  C   UNL     1       0.733   8.574  21.449  0.00  0.00    +0.000 A 
ATOM     29  C   UNL     1       1.371   7.386  21.060  0.00  0.00    +0.000 A 
BRANCH  24  30
ATOM     30  O   UNL     1       2.895   6.253  19.486  0.00  0.00    +0.000 OA
BRANCH  30  32
ATOM     31  C   UNL     1       1.804   4.789  17.916  0.00  0.00    +0.000 C 
ATOM     32  C   UNL     1       2.946   5.730  18.182  0.00  0.00    +0.000 C 
ATOM     33  O   UNL     1       3.795   5.971  17.329  0.00  0.00    +0.000 OA
ENDBRANCH  30  32
ENDBRANCH  24  30
ENDBRANCH   1  27
BRANCH  17  34
ATOM     34  C   UNL     1      -2.518  10.329  17.132  0.00  0.00    +0.000 C 
ATOM     35  C   UNL     1      -3.504   9.385  17.845  0.00  0.00    +0.000 C 
ATOM     36  C   UNL     1      -2.741  10.146  15.610  0.00  0.00    +0.000 C 
ATOM     37  C   UNL     1      -1.114   9.790  17.406  0.00  0.00    +0.000 C 
ENDBRANCH  17  34
TORSDOF 4
ENDMDL
MODEL 4
REMARK VINA RESULT:      -7.0      3.293      7.158
REMARK  Name = 
REMARK  8 active torsions:
REMARK  status: ('A' for Active; 'I' for Inactive)
REMARK    1  A    between atoms: C_1  and  C_2
REMARK    2  A    between atoms: C_2  and  O_4
REMARK    3  A    between atoms: O_4  and  C_5
REMARK    4  A    between atoms: C_8  and  N_9
REMARK    5  A    between atoms: C_25  and  C_26
REMARK    6  A    between atoms: C_26  and  C_27
REMARK    7  A    between atoms: C_26  and  C_28
REMARK    8  A    between atoms: C_26  and  C_29
REMARK                            x       y       z     vdW  Elec       q    Type
REMARK                         _______ _______ _______ _____ _____    ______ ____
ROOT
ATOM      1  N   UNL     1      -1.308  11.578  20.843  0.00  0.00    +0.000 N 
ATOM      2  C   UNL     1      -2.491  12.352  20.863  0.00  0.00    +0.000 C 
ATOM      3  O   UNL     1      -3.262  12.558  19.938  0.00  0.00    +0.000 OA
ATOM      4  C   UNL     1      -2.597  12.957  22.305  0.00  0.00    +0.000 C 
ATOM      5  C   UNL     1      -3.055  14.360  22.667  0.00  0.00    +0.000 A 
ATOM      6  N   UNL     1      -3.411  14.713  23.963  0.00  0.00    +0.000 N 
ATOM      7  C   UNL     1      -2.923  15.987  24.250  0.00  0.00    +0.000 A 
ATOM      8  C   UNL     1      -2.620  16.616  25.467  0.00  0.00    +0.000 A 
ATOM      9  C   UNL     1      -2.138  17.933  25.431  0.00  0.00    +0.000 A 
ATOM     10  C   UNL     1      -2.045  18.626  24.227  0.00  0.00    +0.000 A 
ATOM     11  C   UNL     1      -2.315  17.975  23.025  0.00  0.00    +0.000 A 
ATOM     12  C   UNL     1      -2.668  16.602  23.026  0.00  0.00    +0.000 A 
ATOM     13  C   UNL     1      -2.528  15.522  22.111  0.00  0.00    +0.000 A 
ATOM     14  C   UNL     1      -1.526  15.336  21.008  0.00  0.00    +0.000 C 
ATOM     15  C   UNL     1      -0.877  16.588  20.428  0.00  0.00    +0.000 C 
ATOM     16  C   UNL     1       0.468  16.948  21.040  0.00  0.00    +0.000 C 
ATOM     17  C   UNL     1       1.480  15.787  21.147  0.00  0.00    +0.000 C 
ATOM     18  C   UNL     1       0.830  14.708  22.028  0.00  0.00    +0.000 C 
ATOM     19  C   UNL     1      -0.503  14.228  21.497  0.00  0.00    +0.000 C 
ATOM     20  C   UNL     1      -1.096  13.122  22.509  0.00  0.00    +0.000 C 
ATOM     21  C   UNL     1      -0.703  11.758  22.067  0.00  0.00    +0.000 C 
ATOM     22  O   UNL     1      -0.066  10.987  22.757  0.00  0.00    +0.000 OA
ATOM     23  H   UNL     1      -3.655  14.056  24.693  0.00  0.00    +0.000 HD
ENDROOT
BRANCH   1  27
ATOM     24  C   UNL     1       1.288   9.712  18.024  0.00  0.00    +0.000 A 
ATOM     25  C   UNL     1       1.797  10.708  18.870  0.00  0.00    +0.000 A 
ATOM     26  C   UNL     1       0.936  11.463  19.718  0.00  0.00    +0.000 A 
ATOM     27  C   UNL     1      -0.445  11.219  19.732  0.00  0.00    +0.000 A 
ATOM     28  C   UNL     1      -0.928  10.331  18.739  0.00  0.00    +0.000 A 
ATOM     29  C   UNL     1      -0.085   9.585  17.901  0.00  0.00    +0.000 A 
BRANCH  24  30
ATOM     30  O   UNL     1       2.206   8.835  17.379  0.00  0.00    +0.000 OA
BRANCH  30  32
ATOM     31  C   UNL     1       4.000   7.230  17.301  0.00  0.00    +0.000 C 
ATOM     32  C   UNL     1       2.779   7.726  18.027  0.00  0.00    +0.000 C 
ATOM     33  O   UNL     1       2.374   7.186  19.052  0.00  0.00    +0.000 OA
ENDBRANCH  30  32
ENDBRANCH  24  30
ENDBRANCH   1  27
BRANCH  17  34
ATOM     34  C   UNL     1       2.162  15.293  19.807  0.00  0.00    +0.000 C 
ATOM     35  C   UNL     1       2.924  16.447  19.128  0.00  0.00    +0.000 C 
ATOM     36  C   UNL     1       3.203  14.191  20.121  0.00  0.00    +0.000 C 
ATOM     37  C   UNL     1       1.238  14.692  18.749  0.00  0.00    +0.000 C 
ENDBRANCH  17  34
TORSDOF 4
ENDMDL
MODEL 5
REMARK VINA RESULT:      -7.0      3.125      6.483
REMARK  Name = 
REMARK  8 active torsions:
REMARK  status: ('A' for Active; 'I' for Inactive)
REMARK    1  A    between atoms: C_1  and  C_2
REMARK    2  A    between atoms: C_2  and  O_4
REMARK    3  A    between atoms: O_4  and  C_5
REMARK    4  A    between atoms: C_8  and  N_9
REMARK    5  A    between atoms: C_25  and  C_26
REMARK    6  A    between atoms: C_26  and  C_27
REMARK    7  A    between atoms: C_26  and  C_28
REMARK    8  A    between atoms: C_26  and  C_29
REMARK                            x       y       z     vdW  Elec       q    Type
REMARK                         _______ _______ _______ _____ _____    ______ ____
ROOT
ATOM      1  N   UNL     1      -1.843  11.818  21.556  0.00  0.00    +0.000 N 
ATOM      2  C   UNL     1      -2.893  12.608  22.080  0.00  0.00    +0.000 C 
ATOM      3  O   UNL     1      -3.954  12.888  21.541  0.00  0.00    +0.000 OA
ATOM      4  C   UNL     1      -2.408  13.115  23.481  0.00  0.00    +0.000 C 
ATOM      5  C   UNL     1      -2.632  14.497  24.071  0.00  0.00    +0.000 A 
ATOM      6  N   UNL     1      -2.443  14.766  25.421  0.00  0.00    +0.000 N 
ATOM      7  C   UNL     1      -1.831  16.010  25.567  0.00  0.00    +0.000 A 
ATOM      8  C   UNL     1      -1.054  16.550  26.603  0.00  0.00    +0.000 A 
ATOM      9  C   UNL     1      -0.571  17.859  26.457  0.00  0.00    +0.000 A 
ATOM     10  C   UNL     1      -0.924  18.630  25.353  0.00  0.00    +0.000 A 
ATOM     11  C   UNL     1      -1.665  18.067  24.316  0.00  0.00    +0.000 A 
ATOM     12  C   UNL     1      -2.045  16.703  24.377  0.00  0.00    +0.000 A 
ATOM     13  C   UNL     1      -2.315  15.685  23.421  0.00  0.00    +0.000 A 
ATOM     14  C   UNL     1      -1.827  15.559  22.006  0.00  0.00    +0.000 C 
ATOM     15  C   UNL     1      -1.403  16.837  21.291  0.00  0.00    +0.000 C 
ATOM     16  C   UNL     1       0.088  17.134  21.350  0.00  0.00    +0.000 C 
ATOM     17  C   UNL     1       1.014  15.953  20.989  0.00  0.00    +0.000 C 
ATOM     18  C   UNL     1       0.712  14.827  21.991  0.00  0.00    +0.000 C 
ATOM     19  C   UNL     1      -0.741  14.405  21.995  0.00  0.00    +0.000 C 
ATOM     20  C   UNL     1      -0.939  13.241  23.093  0.00  0.00    +0.000 C 
ATOM     21  C   UNL     1      -0.805  11.905  22.457  0.00  0.00    +0.000 C 
ATOM     22  O   UNL     1       0.018  11.079  22.800  0.00  0.00    +0.000 OA
ATOM     23  H   UNL     1      -2.412  14.065  26.150  0.00  0.00    +0.000 HD
ENDROOT
BRANCH   1  27
ATOM     24  C   UNL     1      -1.734  10.919  17.391  0.00  0.00    +0.000 A 
ATOM     25  C   UNL     1      -1.389   9.924  18.317  0.00  0.00    +0.000 A 
ATOM     26  C   UNL     1      -1.264  10.222  19.705  0.00  0.00    +0.000 A 
ATOM     27  C   UNL     1      -1.494  11.522  20.179  0.00  0.00    +0.000 A 
ATOM     28  C   UNL     1      -1.667  12.522  19.190  0.00  0.00    +0.000 A 
ATOM     29  C   UNL     1      -1.790  12.233  17.822  0.00  0.00    +0.000 A 
BRANCH  24  30
ATOM     30  O   UNL     1      -2.074  10.526  16.066  0.00  0.00    +0.000 OA
BRANCH  30  32
ATOM     31  C   UNL     1      -3.474  10.058  14.163  0.00  0.00    +0.000 C 
ATOM     32  C   UNL     1      -3.394  10.551  15.581  0.00  0.00    +0.000 C 
ATOM     33  O   UNL     1      -4.391  10.925  16.191  0.00  0.00    +0.000 OA
ENDBRANCH  30  32
ENDBRANCH  24  30
ENDBRANCH   1  27
BRANCH  17  34
ATOM     34  C   UNL     1       1.102  15.541  19.463  0.00  0.00    +0.000 C 
ATOM     35  C   UNL     1      -0.225  15.840  18.742  0.00  0.00    +0.000 C 
ATOM     36  C   UNL     1       2.197  16.377  18.756  0.00  0.00    +0.000 C 
ATOM     37  C   UNL     1       1.447  14.082  19.166  0.00  0.00    +0.000 C 
ENDBRANCH  17  34
TORSDOF 4
ENDMDL
MODEL 6
REMARK VINA RESULT:      -6.9      1.037      1.150
REMARK  Name = 
REMARK  8 active torsions:
REMARK  status: ('A' for Active; 'I' for Inactive)
REMARK    1  A    between atoms: C_1  and  C_2
REMARK    2  A    between atoms: C_2  and  O_4
REMARK    3  A    between atoms: O_4  and  C_5
REMARK    4  A    between atoms: C_8  and  N_9
REMARK    5  A    between atoms: C_25  and  C_26
REMARK    6  A    between atoms: C_26  and  C_27
REMARK    7  A    between atoms: C_26  and  C_28
REMARK    8  A    between atoms: C_26  and  C_29
REMARK                            x       y       z     vdW  Elec       q    Type
REMARK                         _______ _______ _______ _____ _____    ______ ____
ROOT
ATOM      1  N   UNL     1      -1.386  16.079  21.972  0.00  0.00    +0.000 N 
ATOM      2  C   UNL     1      -0.981  16.806  20.829  0.00  0.00    +0.000 C 
ATOM      3  O   UNL     1      -1.671  17.141  19.877  0.00  0.00    +0.000 OA
ATOM      4  C   UNL     1       0.558  17.053  20.985  0.00  0.00    +0.000 C 
ATOM      5  C   UNL     1       1.602  16.987  19.882  0.00  0.00    +0.000 A 
ATOM      6  N   UNL     1       2.879  17.513  20.038  0.00  0.00    +0.000 N 
ATOM      7  C   UNL     1       3.811  16.654  19.459  0.00  0.00    +0.000 A 
ATOM      8  C   UNL     1       5.182  16.471  19.695  0.00  0.00    +0.000 A 
ATOM      9  C   UNL     1       5.864  15.511  18.933  0.00  0.00    +0.000 A 
ATOM     10  C   UNL     1       5.217  14.818  17.913  0.00  0.00    +0.000 A 
ATOM     11  C   UNL     1       3.847  14.984  17.717  0.00  0.00    +0.000 A 
ATOM     12  C   UNL     1       3.109  15.845  18.567  0.00  0.00    +0.000 A 
ATOM     13  C   UNL     1       1.763  15.906  19.022  0.00  0.00    +0.000 A 
ATOM     14  C   UNL     1       0.752  14.802  19.145  0.00  0.00    +0.000 C 
ATOM     15  C   UNL     1       0.943  13.571  18.265  0.00  0.00    +0.000 C 
ATOM     16  C   UNL     1       1.681  12.421  18.933  0.00  0.00    +0.000 C 
ATOM     17  C   UNL     1       1.174  12.035  20.339  0.00  0.00    +0.000 C 
ATOM     18  C   UNL     1       1.330  13.280  21.227  0.00  0.00    +0.000 C 
ATOM     19  C   UNL     1       0.597  14.491  20.691  0.00  0.00    +0.000 C 
ATOM     20  C   UNL     1       0.851  15.733  21.688  0.00  0.00    +0.000 C 
ATOM     21  C   UNL     1      -0.242  15.817  22.692  0.00  0.00    +0.000 C 
ATOM     22  O   UNL     1      -0.055  15.762  23.892  0.00  0.00    +0.000 OA
ATOM     23  H   UNL     1       3.141  18.193  20.742  0.00  0.00    +0.000 HD
ENDROOT
BRANCH   1  27
ATOM     24  C   UNL     1      -5.115  14.016  22.000  0.00  0.00    +0.000 A 
ATOM     25  C   UNL     1      -4.674  14.650  23.170  0.00  0.00    +0.000 A 
ATOM     26  C   UNL     1      -3.370  15.219  23.251  0.00  0.00    +0.000 A 
ATOM     27  C   UNL     1      -2.499  15.165  22.153  0.00  0.00    +0.000 A 
ATOM     28  C   UNL     1      -2.923  14.366  21.063  0.00  0.00    +0.000 A 
ATOM     29  C   UNL     1      -4.206  13.803  20.978  0.00  0.00    +0.000 A 
BRANCH  24  30
ATOM     30  O   UNL     1      -6.494  13.678  21.889  0.00  0.00    +0.000 OA
BRANCH  30  32
ATOM     31  C   UNL     1      -7.671  12.302  23.477  0.00  0.00    +0.000 C 
ATOM     32  C   UNL     1      -6.981  12.383  22.143  0.00  0.00    +0.000 C 
ATOM     33  O   UNL     1      -6.879  11.405  21.409  0.00  0.00    +0.000 OA
ENDBRANCH  30  32
ENDBRANCH  24  30
ENDBRANCH   1  27
BRANCH  17  34
ATOM     34  C   UNL     1      -0.208  11.269  20.427  0.00  0.00    +0.000 C 
ATOM     35  C   UNL     1       0.004   9.749  20.298  0.00  0.00    +0.000 C 
ATOM     36  C   UNL     1      -0.859  11.516  21.810  0.00  0.00    +0.000 C 
ATOM     37  C   UNL     1      -1.272  11.656  19.401  0.00  0.00    +0.000 C 
ENDBRANCH  17  34
TORSDOF 4
ENDMDL
MODEL 7
REMARK VINA RESULT:      -6.8      4.162      7.815
REMARK  Name = 
REMARK  8 active torsions:
REMARK  status: ('A' for Active; 'I' for Inactive)
REMARK    1  A    between atoms: C_1  and  C_2
REMARK    2  A    between atoms: C_2  and  O_4
REMARK    3  A    between atoms: O_4  and  C_5
REMARK    4  A    between atoms: C_8  and  N_9
REMARK    5  A    between atoms: C_25  and  C_26
REMARK    6  A    between atoms: C_26  and  C_27
REMARK    7  A    between atoms: C_26  and  C_28
REMARK    8  A    between atoms: C_26  and  C_29
REMARK                            x       y       z     vdW  Elec       q    Type
REMARK                         _______ _______ _______ _____ _____    ______ ____
ROOT
ATOM      1  N   UNL     1       1.371  11.013  20.234  0.00  0.00    +0.000 N 
ATOM      2  C   UNL     1       0.688  11.443  21.395  0.00  0.00    +0.000 C 
ATOM      3  O   UNL     1       0.318  10.759  22.338  0.00  0.00    +0.000 OA
ATOM      4  C   UNL     1       0.438  12.980  21.216  0.00  0.00    +0.000 C 
ATOM      5  C   UNL     1      -0.817  13.744  21.604  0.00  0.00    +0.000 A 
ATOM      6  N   UNL     1      -0.842  15.131  21.696  0.00  0.00    +0.000 N 
ATOM      7  C   UNL     1      -2.041  15.610  21.171  0.00  0.00    +0.000 A 
ATOM      8  C   UNL     1      -2.389  16.860  20.635  0.00  0.00    +0.000 A 
ATOM      9  C   UNL     1      -3.703  17.044  20.182  0.00  0.00    +0.000 A 
ATOM     10  C   UNL     1      -4.659  16.043  20.337  0.00  0.00    +0.000 A 
ATOM     11  C   UNL     1      -4.287  14.796  20.836  0.00  0.00    +0.000 A 
ATOM     12  C   UNL     1      -2.934  14.541  21.170  0.00  0.00    +0.000 A 
ATOM     13  C   UNL     1      -2.102  13.388  21.208  0.00  0.00    +0.000 A 
ATOM     14  C   UNL     1      -2.230  12.101  20.446  0.00  0.00    +0.000 C 
ATOM     15  C   UNL     1      -3.616  11.719  19.936  0.00  0.00    +0.000 C 
ATOM     16  C   UNL     1      -3.899  12.128  18.498  0.00  0.00    +0.000 C 
ATOM     17  C   UNL     1      -2.802  11.760  17.476  0.00  0.00    +0.000 C 
ATOM     18  C   UNL     1      -1.515  12.470  17.928  0.00  0.00    +0.000 C 
ATOM     19  C   UNL     1      -1.098  12.108  19.337  0.00  0.00    +0.000 C 
ATOM     20  C   UNL     1       0.243  12.924  19.706  0.00  0.00    +0.000 C 
ATOM     21  C   UNL     1       1.445  12.105  19.399  0.00  0.00    +0.000 C 
ATOM     22  O   UNL     1       2.317  12.458  18.630  0.00  0.00    +0.000 OA
ATOM     23  H   UNL     1      -0.022  15.717  21.784  0.00  0.00    +0.000 HD
ENDROOT
BRANCH   1  27
ATOM     24  C   UNL     1       2.390   7.179  18.675  0.00  0.00    +0.000 A 
ATOM     25  C   UNL     1       2.205   8.252  17.791  0.00  0.00    +0.000 A 
ATOM     26  C   UNL     1       1.716   9.509  18.252  0.00  0.00    +0.000 A 
ATOM     27  C   UNL     1       1.418   9.704  19.608  0.00  0.00    +0.000 A 
ATOM     28  C   UNL     1       1.455   8.547  20.425  0.00  0.00    +0.000 A 
ATOM     29  C   UNL     1       1.934   7.307  19.976  0.00  0.00    +0.000 A 
BRANCH  24  30
ATOM     30  O   UNL     1       3.096   6.033  18.213  0.00  0.00    +0.000 OA
BRANCH  30  32
ATOM     31  C   UNL     1       5.265   6.324  17.206  0.00  0.00    +0.000 C 
ATOM     32  C   UNL     1       4.480   5.865  18.404  0.00  0.00    +0.000 C 
ATOM     33  O   UNL     1       5.031   5.402  19.398  0.00  0.00    +0.000 OA
ENDBRANCH  30  32
ENDBRANCH  24  30
ENDBRANCH   1  27
BRANCH  17  34
ATOM     34  C   UNL     1      -2.668  10.236  17.072  0.00  0.00    +0.000 C 
ATOM     35  C   UNL     1      -3.725   9.386  17.801  0.00  0.00    +0.000 C 
ATOM     36  C   UNL     1      -2.926  10.070  15.554  0.00  0.00    +0.000 C 
ATOM     37  C   UNL     1      -1.314   9.575  17.330  0.00  0.00    +0.000 C 
ENDBRANCH  17  34
TORSDOF 4
ENDMDL
MODEL 8
REMARK VINA RESULT:      -6.8      4.139      7.609
REMARK  Name = 
REMARK  8 active torsions:
REMARK  status: ('A' for Active; 'I' for Inactive)
REMARK    1  A    between atoms: C_1  and  C_2
REMARK    2  A    between atoms: C_2  and  O_4
REMARK    3  A    between atoms: O_4  and  C_5
REMARK    4  A    between atoms: C_8  and  N_9
REMARK    5  A    between atoms: C_25  and  C_26
REMARK    6  A    between atoms: C_26  and  C_27
REMARK    7  A    between atoms: C_26  and  C_28
REMARK    8  A    between atoms: C_26  and  C_29
REMARK                            x       y       z     vdW  Elec       q    Type
REMARK                         _______ _______ _______ _____ _____    ______ ____
ROOT
ATOM      1  N   UNL     1       1.357  11.150  20.121  0.00  0.00    +0.000 N 
ATOM      2  C   UNL     1       0.690  11.574  21.293  0.00  0.00    +0.000 C 
ATOM      3  O   UNL     1       0.364  10.892  22.253  0.00  0.00    +0.000 OA
ATOM      4  C   UNL     1       0.388  13.100  21.101  0.00  0.00    +0.000 C 
ATOM      5  C   UNL     1      -0.880  13.831  21.510  0.00  0.00    +0.000 A 
ATOM      6  N   UNL     1      -0.945  15.217  21.585  0.00  0.00    +0.000 N 
ATOM      7  C   UNL     1      -2.171  15.653  21.085  0.00  0.00    +0.000 A 
ATOM      8  C   UNL     1      -2.570  16.884  20.542  0.00  0.00    +0.000 A 
ATOM      9  C   UNL     1      -3.900  17.022  20.119  0.00  0.00    +0.000 A 
ATOM     10  C   UNL     1      -4.820  15.995  20.310  0.00  0.00    +0.000 A 
ATOM     11  C   UNL     1      -4.399  14.767  20.816  0.00  0.00    +0.000 A 
ATOM     12  C   UNL     1      -3.030  14.557  21.119  0.00  0.00    +0.000 A 
ATOM     13  C   UNL     1      -2.163  13.431  21.151  0.00  0.00    +0.000 A 
ATOM     14  C   UNL     1      -2.270  12.130  20.408  0.00  0.00    +0.000 C 
ATOM     15  C   UNL     1      -3.655  11.700  19.937  0.00  0.00    +0.000 C 
ATOM     16  C   UNL     1      -3.986  12.081  18.502  0.00  0.00    +0.000 C 
ATOM     17  C   UNL     1      -2.903  11.734  17.458  0.00  0.00    +0.000 C 
ATOM     18  C   UNL     1      -1.628  12.487  17.869  0.00  0.00    +0.000 C 
ATOM     19  C   UNL     1      -1.166  12.157  19.271  0.00  0.00    +0.000 C 
ATOM     20  C   UNL     1       0.158  13.019  19.596  0.00  0.00    +0.000 C 
ATOM     21  C   UNL     1       1.377  12.232  19.270  0.00  0.00    +0.000 C 
ATOM     22  O   UNL     1       2.219  12.601  18.475  0.00  0.00    +0.000 OA
ATOM     23  H   UNL     1      -0.142  15.830  21.646  0.00  0.00    +0.000 HD
ENDROOT
BRANCH   1  27
ATOM     24  C   UNL     1       2.430   7.292  18.660  0.00  0.00    +0.000 A 
ATOM     25  C   UNL     1       2.309   8.358  17.757  0.00  0.00    +0.000 A 
ATOM     26  C   UNL     1       1.807   9.624  18.176  0.00  0.00    +0.000 A 
ATOM     27  C   UNL     1       1.428   9.835  19.510  0.00  0.00    +0.000 A 
ATOM     28  C   UNL     1       1.404   8.685  20.338  0.00  0.00    +0.000 A 
ATOM     29  C   UNL     1       1.898   7.436  19.929  0.00  0.00    +0.000 A 
BRANCH  24  30
ATOM     30  O   UNL     1       3.152   6.135  18.251  0.00  0.00    +0.000 OA
BRANCH  30  32
ATOM     31  C   UNL     1       1.793   4.196  17.807  0.00  0.00    +0.000 C 
ATOM     32  C   UNL     1       2.824   4.840  18.693  0.00  0.00    +0.000 C 
ATOM     33  O   UNL     1       3.283   4.262  19.673  0.00  0.00    +0.000 OA
ENDBRANCH  30  32
ENDBRANCH  24  30
ENDBRANCH   1  27
BRANCH  17  34
ATOM     34  C   UNL     1      -2.732  10.209  17.070  0.00  0.00    +0.000 C 
ATOM     35  C   UNL     1      -1.327   9.705  17.450  0.00  0.00    +0.000 C 
ATOM     36  C   UNL     1      -3.747   9.348  17.862  0.00  0.00    +0.000 C 
ATOM     37  C   UNL     1      -2.949   9.847  15.601  0.00  0.00    +0.000 C 
ENDBRANCH  17  34
TORSDOF 4
ENDMDL
MODEL 9
REMARK VINA RESULT:      -6.8      0.881      1.064
REMARK  Name = 
REMARK  8 active torsions:
REMARK  status: ('A' for Active; 'I' for Inactive)
REMARK    1  A    between atoms: C_1  and  C_2
REMARK    2  A    between atoms: C_2  and  O_4
REMARK    3  A    between atoms: O_4  and  C_5
REMARK    4  A    between atoms: C_8  and  N_9
REMARK    5  A    between atoms: C_25  and  C_26
REMARK    6  A    between atoms: C_26  and  C_27
REMARK    7  A    between atoms: C_26  and  C_28
REMARK    8  A    between atoms: C_26  and  C_29
REMARK                            x       y       z     vdW  Elec       q    Type
REMARK                         _______ _______ _______ _____ _____    ______ ____
ROOT
ATOM      1  N   UNL     1      -1.823  15.128  21.930  0.00  0.00    +0.000 N 
ATOM      2  C   UNL     1      -1.380  16.058  20.961  0.00  0.00    +0.000 C 
ATOM      3  O   UNL     1      -2.017  16.521  20.027  0.00  0.00    +0.000 OA
ATOM      4  C   UNL     1       0.128  16.342  21.281  0.00  0.00    +0.000 C 
ATOM      5  C   UNL     1       1.251  16.513  20.271  0.00  0.00    +0.000 A 
ATOM      6  N   UNL     1       2.481  17.060  20.616  0.00  0.00    +0.000 N 
ATOM      7  C   UNL     1       3.500  16.355  19.978  0.00  0.00    +0.000 A 
ATOM      8  C   UNL     1       4.858  16.196  20.290  0.00  0.00    +0.000 A 
ATOM      9  C   UNL     1       5.647  15.412  19.434  0.00  0.00    +0.000 A 
ATOM     10  C   UNL     1       5.116  14.878  18.263  0.00  0.00    +0.000 A 
ATOM     11  C   UNL     1       3.757  15.015  17.988  0.00  0.00    +0.000 A 
ATOM     12  C   UNL     1       2.911  15.683  18.909  0.00  0.00    +0.000 A 
ATOM     13  C   UNL     1       1.535  15.605  19.257  0.00  0.00    +0.000 A 
ATOM     14  C   UNL     1       0.583  14.453  19.110  0.00  0.00    +0.000 C 
ATOM     15  C   UNL     1       0.906  13.402  18.054  0.00  0.00    +0.000 C 
ATOM     16  C   UNL     1       1.659  12.187  18.575  0.00  0.00    +0.000 C 
ATOM     17  C   UNL     1       1.075  11.543  19.851  0.00  0.00    +0.000 C 
ATOM     18  C   UNL     1       1.095  12.622  20.945  0.00  0.00    +0.000 C 
ATOM     19  C   UNL     1       0.335  13.873  20.564  0.00  0.00    +0.000 C 
ATOM     20  C   UNL     1       0.444  14.934  21.773  0.00  0.00    +0.000 C 
ATOM     21  C   UNL     1      -0.721  14.796  22.685  0.00  0.00    +0.000 C 
ATOM     22  O   UNL     1      -0.618  14.543  23.869  0.00  0.00    +0.000 OA
ATOM     23  H   UNL     1       2.652  17.619  21.443  0.00  0.00    +0.000 HD
ENDROOT
BRANCH   1  27
ATOM     24  C   UNL     1      -5.486  12.950  22.037  0.00  0.00    +0.000 A 
ATOM     25  C   UNL     1      -4.507  12.693  23.008  0.00  0.00    +0.000 A 
ATOM     26  C   UNL     1      -3.213  13.285  22.922  0.00  0.00    +0.000 A 
ATOM     27  C   UNL     1      -2.892  14.147  21.864  0.00  0.00    +0.000 A 
ATOM     28  C   UNL     1      -3.850  14.236  20.823  0.00  0.00    +0.000 A 
ATOM     29  C   UNL     1      -5.125  13.655  20.903  0.00  0.00    +0.000 A 
BRANCH  24  30
ATOM     30  O   UNL     1      -6.822  12.529  22.293  0.00  0.00    +0.000 OA
BRANCH  30  32
ATOM     31  C   UNL     1      -7.771  13.635  24.210  0.00  0.00    +0.000 C 
ATOM     32  C   UNL     1      -7.322  12.339  23.593  0.00  0.00    +0.000 C 
ATOM     33  O   UNL     1      -7.401  11.274  24.200  0.00  0.00    +0.000 OA
ENDBRANCH  30  32
ENDBRANCH  24  30
ENDBRANCH   1  27
BRANCH  17  34
ATOM     34  C   UNL     1      -0.264  10.713  19.696  0.00  0.00    +0.000 C 
ATOM     35  C   UNL     1      -0.296   9.543  20.697  0.00  0.00    +0.000 C 
ATOM     36  C   UNL     1      -1.481  11.614  20.018  0.00  0.00    +0.000 C 
ATOM     37  C   UNL     1      -0.548  10.121  18.316  0.00  0.00    +0.000 C 
ENDBRANCH  17  34
TORSDOF 4
ENDMDL
