MODEL 1
REMARK VINA RESULT:      -6.5      0.000      0.000
REMARK  Name = 
REMARK  10 active torsions:
REMARK  status: ('A' for Active; 'I' for Inactive)
REMARK    1  A    between atoms: C_1  and  O_2
REMARK    2  A    between atoms: O_2  and  C_3
REMARK    3  A    between atoms: C_5  and  O_6
REMARK    4  A    between atoms: O_6  and  C_7
REMARK    5  A    between atoms: C_8  and  C_9
REMARK    6  A    between atoms: C_10  and  S_11
REMARK    7  A    between atoms: S_11  and  N_14
REMARK    8  A    between atoms: N_14  and  C_15
REMARK    9  A    between atoms: C_22  and  O_23
REMARK   10  A    between atoms: O_23  and  C_24
REMARK                            x       y       z     vdW  Elec       q    Type
REMARK                         _______ _______ _______ _____ _____    ______ ____
ROOT
ATOM      1  C   UNL     1       4.165   5.990  17.836  0.00  0.00    +0.000 C 
ATOM      2  C   UNL     1       5.494   6.168  17.898  0.00  0.00    +0.000 C 
ENDROOT
BRANCH   1   6
ATOM      3  C   UNL     1       1.684   3.927  20.709  0.00  0.00    +0.000 A 
ATOM      4  C   UNL     1       2.538   3.191  19.893  0.00  0.00    +0.000 A 
ATOM      5  C   UNL     1       3.365   3.818  18.950  0.00  0.00    +0.000 A 
ATOM      6  C   UNL     1       3.348   5.229  18.824  0.00  0.00    +0.000 A 
ATOM      7  C   UNL     1       2.491   5.970  19.683  0.00  0.00    +0.000 A 
ATOM      8  C   UNL     1       1.660   5.312  20.603  0.00  0.00    +0.000 A 
BRANCH   3  10
ATOM      9  C   UNL     1       1.533   2.087  22.202  0.00  0.00    +0.000 C 
ATOM     10  O   UNL     1       0.899   3.174  21.539  0.00  0.00    +0.000 OA
ENDBRANCH   3  10
BRANCH   5  11
ATOM     11  O   UNL     1       4.228   3.107  18.153  0.00  0.00    +0.000 OA
ATOM     12  C   UNL     1       3.786   1.822  17.715  0.00  0.00    +0.000 C 
ENDBRANCH   5  11
BRANCH   7  13
ATOM     13  O   UNL     1       2.508   7.340  19.536  0.00  0.00    +0.000 OA
ATOM     14  C   UNL     1       1.669   8.114  20.384  0.00  0.00    +0.000 C 
ENDBRANCH   7  13
ENDBRANCH   1   6
BRANCH   2  15
ATOM     15  S   UNL     1       6.362   6.898  16.590  0.00  0.00    +0.000 S 
ATOM     16  O   UNL     1       5.485   7.164  15.467  0.00  0.00    +0.000 OA
ATOM     17  O   UNL     1       7.193   7.963  17.115  0.00  0.00    +0.000 OA
BRANCH  15  18
ATOM     18  N   UNL     1       7.444   5.695  16.014  0.00  0.00    +0.000 N 
ATOM     19  H   UNL     1       7.767   5.179  16.834  0.00  0.00    +0.000 HD
BRANCH  18  20
ATOM     20  C   UNL     1       6.939   4.863  14.963  0.00  0.00    +0.000 A 
ATOM     21  C   UNL     1       5.823   4.055  15.159  0.00  0.00    +0.000 A 
ATOM     22  C   UNL     1       5.285   3.362  14.074  0.00  0.00    +0.000 A 
ATOM     23  C   UNL     1       5.883   3.523  12.834  0.00  0.00    +0.000 A 
ATOM     24 CL   UNL     1       5.251   2.748  11.442  0.00  0.00    +0.000 Cl
ATOM     25  N   UNL     1       6.967   4.291  12.605  0.00  0.00    +0.000 NA
ATOM     26  C   UNL     1       7.472   4.941  13.678  0.00  0.00    +0.000 A 
ENDBRANCH  18  20
ENDBRANCH  15  18
ENDBRANCH   2  15
TORSDOF 7
ENDMDL
MODEL 2
REMARK VINA RESULT:      -6.4      5.142      7.900
REMARK  Name = 
REMARK  10 active torsions:
REMARK  status: ('A' for Active; 'I' for Inactive)
REMARK    1  A    between atoms: C_1  and  O_2
REMARK    2  A    between atoms: O_2  and  C_3
REMARK    3  A    between atoms: C_5  and  O_6
REMARK    4  A    between atoms: O_6  and  C_7
REMARK    5  A    between atoms: C_8  and  C_9
REMARK    6  A    between atoms: C_10  and  S_11
REMARK    7  A    between atoms: S_11  and  N_14
REMARK    8  A    between atoms: N_14  and  C_15
REMARK    9  A    between atoms: C_22  and  O_23
REMARK   10  A    between atoms: O_23  and  C_24
REMARK                            x       y       z     vdW  Elec       q    Type
REMARK                         _______ _______ _______ _____ _____    ______ ____
ROOT
ATOM      1  C   UNL     1       1.309   7.049  20.563  0.00  0.00    +0.000 C 
ATOM      2  C   UNL     1       1.736   8.063  21.333  0.00  0.00    +0.000 C 
ENDROOT
BRANCH   1   6
ATOM      3  C   UNL     1       3.895   4.502  18.219  0.00  0.00    +0.000 A 
ATOM      4  C   UNL     1       3.539   4.113  19.506  0.00  0.00    +0.000 A 
ATOM      5  C   UNL     1       2.699   4.904  20.301  0.00  0.00    +0.000 A 
ATOM      6  C   UNL     1       2.185   6.122  19.791  0.00  0.00    +0.000 A 
ATOM      7  C   UNL     1       2.534   6.494  18.464  0.00  0.00    +0.000 A 
ATOM      8  C   UNL     1       3.394   5.690  17.700  0.00  0.00    +0.000 A 
BRANCH   3  10
ATOM      9  C   UNL     1       5.225   4.060  16.303  0.00  0.00    +0.000 C 
ATOM     10  O   UNL     1       4.764   3.656  17.586  0.00  0.00    +0.000 OA
ENDBRANCH   3  10
BRANCH   5  11
ATOM     11  O   UNL     1       2.323   4.522  21.566  0.00  0.00    +0.000 OA
ATOM     12  C   UNL     1       1.989   3.147  21.749  0.00  0.00    +0.000 C 
ENDBRANCH   5  11
BRANCH   7  13
ATOM     13  O   UNL     1       2.009   7.681  18.000  0.00  0.00    +0.000 OA
ATOM     14  C   UNL     1       2.913   8.728  17.670  0.00  0.00    +0.000 C 
ENDBRANCH   7  13
ENDBRANCH   1   6
BRANCH   2  15
ATOM     15  S   UNL     1       0.622   9.196  22.021  0.00  0.00    +0.000 S 
ATOM     16  O   UNL     1      -0.748   8.784  21.791  0.00  0.00    +0.000 OA
ATOM     17  O   UNL     1       1.055   9.521  23.365  0.00  0.00    +0.000 OA
BRANCH  15  18
ATOM     18  N   UNL     1       0.796  10.639  21.106  0.00  0.00    +0.000 N 
ATOM     19  H   UNL     1       1.743  10.628  20.724  0.00  0.00    +0.000 HD
BRANCH  18  20
ATOM     20  C   UNL     1      -0.225  10.876  20.129  0.00  0.00    +0.000 A 
ATOM     21  C   UNL     1      -0.274  10.142  18.948  0.00  0.00    +0.000 A 
ATOM     22  C   UNL     1      -1.358  10.312  18.086  0.00  0.00    +0.000 A 
ATOM     23  C   UNL     1      -2.353  11.203  18.454  0.00  0.00    +0.000 A 
ATOM     24 CL   UNL     1      -3.742  11.430  17.474  0.00  0.00    +0.000 Cl
ATOM     25  N   UNL     1      -2.339  11.937  19.585  0.00  0.00    +0.000 NA
ATOM     26  C   UNL     1      -1.271  11.758  20.395  0.00  0.00    +0.000 A 
ENDBRANCH  18  20
ENDBRANCH  15  18
ENDBRANCH   2  15
TORSDOF 7
ENDMDL
MODEL 3
REMARK VINA RESULT:      -6.1      0.760      2.768
REMARK  Name = 
REMARK  10 active torsions:
REMARK  status: ('A' for Active; 'I' for Inactive)
REMARK    1  A    between atoms: C_1  and  O_2
REMARK    2  A    between atoms: O_2  and  C_3
REMARK    3  A    between atoms: C_5  and  O_6
REMARK    4  A    between atoms: O_6  and  C_7
REMARK    5  A    between atoms: C_8  and  C_9
REMARK    6  A    between atoms: C_10  and  S_11
REMARK    7  A    between atoms: S_11  and  N_14
REMARK    8  A    between atoms: N_14  and  C_15
REMARK    9  A    between atoms: C_22  and  O_23
REMARK   10  A    between atoms: O_23  and  C_24
REMARK                            x       y       z     vdW  Elec       q    Type
REMARK                         _______ _______ _______ _____ _____    ______ ____
ROOT
ATOM      1  C   UNL     1       3.881   5.962  17.605  0.00  0.00    +0.000 C 
ATOM      2  C   UNL     1       5.212   6.104  17.719  0.00  0.00    +0.000 C 
ENDROOT
BRANCH   1   6
ATOM      3  C   UNL     1       1.418   3.636  20.284  0.00  0.00    +0.000 A 
ATOM      4  C   UNL     1       1.679   4.970  20.583  0.00  0.00    +0.000 A 
ATOM      5  C   UNL     1       2.469   5.764  19.740  0.00  0.00    +0.000 A 
ATOM      6  C   UNL     1       3.008   5.214  18.552  0.00  0.00    +0.000 A 
ATOM      7  C   UNL     1       2.710   3.857  18.245  0.00  0.00    +0.000 A 
ATOM      8  C   UNL     1       1.933   3.081  19.119  0.00  0.00    +0.000 A 
BRANCH   3  10
ATOM      9  C   UNL     1       1.406   2.307  22.252  0.00  0.00    +0.000 C 
ATOM     10  O   UNL     1       0.679   2.973  21.227  0.00  0.00    +0.000 OA
ENDBRANCH   3  10
BRANCH   5  11
ATOM     11  O   UNL     1       2.718   7.087  20.012  0.00  0.00    +0.000 OA
ATOM     12  C   UNL     1       1.649   8.004  19.777  0.00  0.00    +0.000 C 
ENDBRANCH   5  11
BRANCH   7  13
ATOM     13  O   UNL     1       3.246   3.359  17.077  0.00  0.00    +0.000 OA
ATOM     14  C   UNL     1       3.868   2.081  17.118  0.00  0.00    +0.000 C 
ENDBRANCH   7  13
ENDBRANCH   1   6
BRANCH   2  15
ATOM     15  S   UNL     1       6.148   6.824  16.453  0.00  0.00    +0.000 S 
ATOM     16  O   UNL     1       5.320   7.136  15.306  0.00  0.00    +0.000 OA
ATOM     17  O   UNL     1       6.996   7.852  17.024  0.00  0.00    +0.000 OA
BRANCH  15  18
ATOM     18  N   UNL     1       7.208   5.594  15.895  0.00  0.00    +0.000 N 
ATOM     19  H   UNL     1       7.374   4.972  16.688  0.00  0.00    +0.000 HD
BRANCH  18  20
ATOM     20  C   UNL     1       6.794   4.918  14.701  0.00  0.00    +0.000 A 
ATOM     21  C   UNL     1       7.530   5.023  13.524  0.00  0.00    +0.000 A 
ATOM     22  C   UNL     1       7.166   4.246  12.423  0.00  0.00    +0.000 A 
ATOM     23  C   UNL     1       6.087   3.387  12.557  0.00  0.00    +0.000 A 
ATOM     24 CL   UNL     1       5.610   2.362  11.268  0.00  0.00    +0.000 Cl
ATOM     25  N   UNL     1       5.347   3.262  13.677  0.00  0.00    +0.000 NA
ATOM     26  C   UNL     1       5.717   4.036  14.722  0.00  0.00    +0.000 A 
ENDBRANCH  18  20
ENDBRANCH  15  18
ENDBRANCH   2  15
TORSDOF 7
ENDMDL
MODEL 4
REMARK VINA RESULT:      -6.1      3.294      5.016
REMARK  Name = 
REMARK  10 active torsions:
REMARK  status: ('A' for Active; 'I' for Inactive)
REMARK    1  A    between atoms: C_1  and  O_2
REMARK    2  A    between atoms: O_2  and  C_3
REMARK    3  A    between atoms: C_5  and  O_6
REMARK    4  A    between atoms: O_6  and  C_7
REMARK    5  A    between atoms: C_8  and  C_9
REMARK    6  A    between atoms: C_10  and  S_11
REMARK    7  A    between atoms: S_11  and  N_14
REMARK    8  A    between atoms: N_14  and  C_15
REMARK    9  A    between atoms: C_22  and  O_23
REMARK   10  A    between atoms: O_23  and  C_24
REMARK                            x       y       z     vdW  Elec       q    Type
REMARK                         _______ _______ _______ _____ _____    ______ ____
ROOT
ATOM      1  C   UNL     1       3.035   5.729  18.070  0.00  0.00    +0.000 C 
ATOM      2  C   UNL     1       4.021   4.850  18.315  0.00  0.00    +0.000 C 
ENDROOT
BRANCH   1   6
ATOM      3  C   UNL     1       1.045   7.988  21.169  0.00  0.00    +0.000 A 
ATOM      4  C   UNL     1       1.531   8.651  20.046  0.00  0.00    +0.000 A 
ATOM      5  C   UNL     1       2.179   7.959  19.014  0.00  0.00    +0.000 A 
ATOM      6  C   UNL     1       2.338   6.555  19.097  0.00  0.00    +0.000 A 
ATOM      7  C   UNL     1       1.812   5.885  20.237  0.00  0.00    +0.000 A 
ATOM      8  C   UNL     1       1.186   6.609  21.264  0.00  0.00    +0.000 A 
BRANCH   3  10
ATOM      9  C   UNL     1      -0.246   9.924  21.641  0.00  0.00    +0.000 C 
ATOM     10  O   UNL     1       0.487   8.802  22.117  0.00  0.00    +0.000 OA
ENDBRANCH   3  10
BRANCH   5  11
ATOM     11  O   UNL     1       2.645   8.599  17.891  0.00  0.00    +0.000 OA
ATOM     12  C   UNL     1       2.177   9.929  17.668  0.00  0.00    +0.000 C 
ENDBRANCH   5  11
BRANCH   7  13
ATOM     13  O   UNL     1       1.980   4.518  20.278  0.00  0.00    +0.000 OA
ATOM     14  C   UNL     1       2.237   3.914  21.539  0.00  0.00    +0.000 C 
ENDBRANCH   7  13
ENDBRANCH   1   6
BRANCH   2  15
ATOM     15  S   UNL     1       4.617   3.803  17.072  0.00  0.00    +0.000 S 
ATOM     16  O   UNL     1       4.394   2.412  17.412  0.00  0.00    +0.000 OA
ATOM     17  O   UNL     1       4.177   4.304  15.786  0.00  0.00    +0.000 OA
BRANCH  15  18
ATOM     18  N   UNL     1       6.326   3.980  17.089  0.00  0.00    +0.000 N 
ATOM     19  H   UNL     1       6.658   3.670  16.174  0.00  0.00    +0.000 HD
BRANCH  18  20
ATOM     20  C   UNL     1       6.808   5.272  17.477  0.00  0.00    +0.000 A 
ATOM     21  C   UNL     1       7.572   5.438  18.629  0.00  0.00    +0.000 A 
ATOM     22  C   UNL     1       8.131   6.688  18.899  0.00  0.00    +0.000 A 
ATOM     23  C   UNL     1       7.910   7.713  17.994  0.00  0.00    +0.000 A 
ATOM     24 CL   UNL     1       8.606   9.263  18.229  0.00  0.00    +0.000 Cl
ATOM     25  N   UNL     1       7.172   7.594  16.873  0.00  0.00    +0.000 NA
ATOM     26  C   UNL     1       6.634   6.374  16.643  0.00  0.00    +0.000 A 
ENDBRANCH  18  20
ENDBRANCH  15  18
ENDBRANCH   2  15
TORSDOF 7
ENDMDL
MODEL 5
REMARK VINA RESULT:      -6.1      5.864      9.119
REMARK  Name = 
REMARK  10 active torsions:
REMARK  status: ('A' for Active; 'I' for Inactive)
REMARK    1  A    between atoms: C_1  and  O_2
REMARK    2  A    between atoms: O_2  and  C_3
REMARK    3  A    between atoms: C_5  and  O_6
REMARK    4  A    between atoms: O_6  and  C_7
REMARK    5  A    between atoms: C_8  and  C_9
REMARK    6  A    between atoms: C_10  and  S_11
REMARK    7  A    between atoms: S_11  and  N_14
REMARK    8  A    between atoms: N_14  and  C_15
REMARK    9  A    between atoms: C_22  and  O_23
REMARK   10  A    between atoms: O_23  and  C_24
REMARK                            x       y       z     vdW  Elec       q    Type
REMARK                         _______ _______ _______ _____ _____    ______ ____
ROOT
ATOM      1  C   UNL     1       1.364   6.695  20.651  0.00  0.00    +0.000 C 
ATOM      2  C   UNL     1       1.626   7.967  20.991  0.00  0.00    +0.000 C 
ENDROOT
BRANCH   1   6
ATOM      3  C   UNL     1       3.761   4.087  18.178  0.00  0.00    +0.000 A 
ATOM      4  C   UNL     1       3.377   5.331  17.686  0.00  0.00    +0.000 A 
ATOM      5  C   UNL     1       2.604   6.212  18.454  0.00  0.00    +0.000 A 
ATOM      6  C   UNL     1       2.209   5.845  19.764  0.00  0.00    +0.000 A 
ATOM      7  C   UNL     1       2.631   4.583  20.265  0.00  0.00    +0.000 A 
ATOM      8  C   UNL     1       3.388   3.714  19.463  0.00  0.00    +0.000 A 
BRANCH   3  10
ATOM      9  C   UNL     1       5.190   4.006  16.284  0.00  0.00    +0.000 C 
ATOM     10  O   UNL     1       4.465   3.316  17.293  0.00  0.00    +0.000 OA
ENDBRANCH   3  10
BRANCH   5  11
ATOM     11  O   UNL     1       2.235   7.451  17.989  0.00  0.00    +0.000 OA
ATOM     12  C   UNL     1       3.284   8.302  17.528  0.00  0.00    +0.000 C 
ENDBRANCH   5  11
BRANCH   7  13
ATOM     13  O   UNL     1       2.232   4.265  21.545  0.00  0.00    +0.000 OA
ATOM     14  C   UNL     1       1.851   2.922  21.812  0.00  0.00    +0.000 C 
ENDBRANCH   7  13
ENDBRANCH   1   6
BRANCH   2  15
ATOM     15  S   UNL     1       0.473   8.918  21.864  0.00  0.00    +0.000 S 
ATOM     16  O   UNL     1      -0.750   8.174  22.091  0.00  0.00    +0.000 OA
ATOM     17  O   UNL     1       1.140   9.555  22.982  0.00  0.00    +0.000 OA
BRANCH  15  18
ATOM     18  N   UNL     1       0.011  10.188  20.803  0.00  0.00    +0.000 N 
ATOM     19  H   UNL     1      -0.740   9.818  20.218  0.00  0.00    +0.000 HD
BRANCH  18  20
ATOM     20  C   UNL     1      -0.301  11.436  21.435  0.00  0.00    +0.000 A 
ATOM     21  C   UNL     1      -1.355  11.540  22.338  0.00  0.00    +0.000 A 
ATOM     22  C   UNL     1      -1.542  12.738  23.029  0.00  0.00    +0.000 A 
ATOM     23  C   UNL     1      -0.654  13.775  22.792  0.00  0.00    +0.000 A 
ATOM     24 CL   UNL     1      -0.785  15.261  23.639  0.00  0.00    +0.000 Cl
ATOM     25  N   UNL     1       0.373  13.715  21.921  0.00  0.00    +0.000 NA
ATOM     26  C   UNL     1       0.523  12.545  21.259  0.00  0.00    +0.000 A 
ENDBRANCH  18  20
ENDBRANCH  15  18
ENDBRANCH   2  15
TORSDOF 7
ENDMDL
MODEL 6
REMARK VINA RESULT:      -6.1      2.943      6.025
REMARK  Name = 
REMARK  10 active torsions:
REMARK  status: ('A' for Active; 'I' for Inactive)
REMARK    1  A    between atoms: C_1  and  O_2
REMARK    2  A    between atoms: O_2  and  C_3
REMARK    3  A    between atoms: C_5  and  O_6
REMARK    4  A    between atoms: O_6  and  C_7
REMARK    5  A    between atoms: C_8  and  C_9
REMARK    6  A    between atoms: C_10  and  S_11
REMARK    7  A    between atoms: S_11  and  N_14
REMARK    8  A    between atoms: N_14  and  C_15
REMARK    9  A    between atoms: C_22  and  O_23
REMARK   10  A    between atoms: O_23  and  C_24
REMARK                            x       y       z     vdW  Elec       q    Type
REMARK                         _______ _______ _______ _____ _____    ______ ____
ROOT
ATOM      1  C   UNL     1       2.231   6.228  20.494  0.00  0.00    +0.000 C 
ATOM      2  C   UNL     1       1.508   5.112  20.302  0.00  0.00    +0.000 C 
ENDROOT
BRANCH   1   6
ATOM      3  C   UNL     1       1.212  10.099  18.869  0.00  0.00    +0.000 A 
ATOM      4  C   UNL     1       0.862   9.796  20.182  0.00  0.00    +0.000 A 
ATOM      5  C   UNL     1       1.177   8.555  20.752  0.00  0.00    +0.000 A 
ATOM      6  C   UNL     1       1.874   7.585  19.992  0.00  0.00    +0.000 A 
ATOM      7  C   UNL     1       2.250   7.918  18.661  0.00  0.00    +0.000 A 
ATOM      8  C   UNL     1       1.903   9.161  18.111  0.00  0.00    +0.000 A 
BRANCH   3  10
ATOM      9  C   UNL     1       1.693  12.409  18.610  0.00  0.00    +0.000 C 
ATOM     10  O   UNL     1       0.790  11.325  18.433  0.00  0.00    +0.000 OA
ENDBRANCH   3  10
BRANCH   5  11
ATOM     11  O   UNL     1       0.856   8.251  22.053  0.00  0.00    +0.000 OA
ATOM     12  C   UNL     1       0.257   9.291  22.827  0.00  0.00    +0.000 C 
ENDBRANCH   5  11
BRANCH   7  13
ATOM     13  O   UNL     1       2.934   6.951  17.956  0.00  0.00    +0.000 OA
ATOM     14  C   UNL     1       4.107   7.340  17.253  0.00  0.00    +0.000 C 
ENDBRANCH   7  13
ENDBRANCH   1   6
BRANCH   2  15
ATOM     15  S   UNL     1       2.120   3.558  20.757  0.00  0.00    +0.000 S 
ATOM     16  O   UNL     1       2.017   3.358  22.189  0.00  0.00    +0.000 OA
ATOM     17  O   UNL     1       1.583   2.559  19.855  0.00  0.00    +0.000 OA
BRANCH  15  18
ATOM     18  N   UNL     1       3.810   3.610  20.452  0.00  0.00    +0.000 N 
ATOM     19  H   UNL     1       4.222   2.831  20.969  0.00  0.00    +0.000 HD
BRANCH  18  20
ATOM     20  C   UNL     1       4.185   3.658  19.070  0.00  0.00    +0.000 A 
ATOM     21  C   UNL     1       3.268   3.360  18.066  0.00  0.00    +0.000 A 
ATOM     22  C   UNL     1       3.636   3.546  16.732  0.00  0.00    +0.000 A 
ATOM     23  C   UNL     1       4.905   4.035  16.466  0.00  0.00    +0.000 A 
ATOM     24 CL   UNL     1       5.414   4.339  14.857  0.00  0.00    +0.000 Cl
ATOM     25  N   UNL     1       5.822   4.329  17.410  0.00  0.00    +0.000 NA
ATOM     26  C   UNL     1       5.440   4.128  18.691  0.00  0.00    +0.000 A 
ENDBRANCH  18  20
ENDBRANCH  15  18
ENDBRANCH   2  15
TORSDOF 7
ENDMDL
MODEL 7
REMARK VINA RESULT:      -6.1      3.225      4.729
REMARK  Name = 
REMARK  10 active torsions:
REMARK  status: ('A' for Active; 'I' for Inactive)
REMARK    1  A    between atoms: C_1  and  O_2
REMARK    2  A    between atoms: O_2  and  C_3
REMARK    3  A    between atoms: C_5  and  O_6
REMARK    4  A    between atoms: O_6  and  C_7
REMARK    5  A    between atoms: C_8  and  C_9
REMARK    6  A    between atoms: C_10  and  S_11
REMARK    7  A    between atoms: S_11  and  N_14
REMARK    8  A    between atoms: N_14  and  C_15
REMARK    9  A    between atoms: C_22  and  O_23
REMARK   10  A    between atoms: O_23  and  C_24
REMARK                            x       y       z     vdW  Elec       q    Type
REMARK                         _______ _______ _______ _____ _____    ______ ____
ROOT
ATOM      1  C   UNL     1       3.316   7.531  17.697  0.00  0.00    +0.000 C 
ATOM      2  C   UNL     1       4.410   6.764  17.839  0.00  0.00    +0.000 C 
ENDROOT
BRANCH   1   6
ATOM      3  C   UNL     1       0.526   8.760  20.757  0.00  0.00    +0.000 A 
ATOM      4  C   UNL     1       1.169   7.532  20.874  0.00  0.00    +0.000 A 
ATOM      5  C   UNL     1       2.086   7.094  19.908  0.00  0.00    +0.000 A 
ATOM      6  C   UNL     1       2.381   7.914  18.792  0.00  0.00    +0.000 A 
ATOM      7  C   UNL     1       1.737   9.179  18.699  0.00  0.00    +0.000 A 
ATOM      8  C   UNL     1       0.808   9.581  19.671  0.00  0.00    +0.000 A 
BRANCH   3  10
ATOM      9  C   UNL     1       0.122   9.647  22.922  0.00  0.00    +0.000 C 
ATOM     10  O   UNL     1      -0.382   9.026  21.746  0.00  0.00    +0.000 OA
ENDBRANCH   3  10
BRANCH   5  11
ATOM     11  O   UNL     1       2.744   5.894  20.022  0.00  0.00    +0.000 OA
ATOM     12  C   UNL     1       2.336   5.036  21.089  0.00  0.00    +0.000 C 
ENDBRANCH   5  11
BRANCH   7  13
ATOM     13  O   UNL     1       2.055   9.951  17.602  0.00  0.00    +0.000 OA
ATOM     14  C   UNL     1       2.399  11.313  17.821  0.00  0.00    +0.000 C 
ENDBRANCH   7  13
ENDBRANCH   1   6
BRANCH   2  15
ATOM     15  S   UNL     1       5.308   6.220  16.463  0.00  0.00    +0.000 S 
ATOM     16  O   UNL     1       5.031   7.042  15.303  0.00  0.00    +0.000 OA
ATOM     17  O   UNL     1       6.682   5.987  16.863  0.00  0.00    +0.000 OA
BRANCH  15  18
ATOM     18  N   UNL     1       4.665   4.679  16.061  0.00  0.00    +0.000 N 
ATOM     19  H   UNL     1       5.445   4.123  15.706  0.00  0.00    +0.000 HD
BRANCH  18  20
ATOM     20  C   UNL     1       3.915   4.035  17.098  0.00  0.00    +0.000 A 
ATOM     21  C   UNL     1       2.533   3.894  17.004  0.00  0.00    +0.000 A 
ATOM     22  C   UNL     1       1.859   3.145  17.970  0.00  0.00    +0.000 A 
ATOM     23  C   UNL     1       2.604   2.559  18.981  0.00  0.00    +0.000 A 
ATOM     24 CL   UNL     1       1.856   1.582  20.175  0.00  0.00    +0.000 Cl
ATOM     25  N   UNL     1       3.940   2.678  19.110  0.00  0.00    +0.000 NA
ATOM     26  C   UNL     1       4.564   3.418  18.165  0.00  0.00    +0.000 A 
ENDBRANCH  18  20
ENDBRANCH  15  18
ENDBRANCH   2  15
TORSDOF 7
ENDMDL
MODEL 8
REMARK VINA RESULT:      -6.1      6.260      9.631
REMARK  Name = 
REMARK  10 active torsions:
REMARK  status: ('A' for Active; 'I' for Inactive)
REMARK    1  A    between atoms: C_1  and  O_2
REMARK    2  A    between atoms: O_2  and  C_3
REMARK    3  A    between atoms: C_5  and  O_6
REMARK    4  A    between atoms: O_6  and  C_7
REMARK    5  A    between atoms: C_8  and  C_9
REMARK    6  A    between atoms: C_10  and  S_11
REMARK    7  A    between atoms: S_11  and  N_14
REMARK    8  A    between atoms: N_14  and  C_15
REMARK    9  A    between atoms: C_22  and  O_23
REMARK   10  A    between atoms: O_23  and  C_24
REMARK                            x       y       z     vdW  Elec       q    Type
REMARK                         _______ _______ _______ _____ _____    ______ ____
ROOT
ATOM      1  C   UNL     1       1.288   7.527  20.744  0.00  0.00    +0.000 C 
ATOM      2  C   UNL     1       1.561   8.587  21.521  0.00  0.00    +0.000 C 
ENDROOT
BRANCH   1   6
ATOM      3  C   UNL     1       3.949   5.574  17.957  0.00  0.00    +0.000 A 
ATOM      4  C   UNL     1       3.586   6.900  17.739  0.00  0.00    +0.000 A 
ATOM      5  C   UNL     1       2.730   7.575  18.619  0.00  0.00    +0.000 A 
ATOM      6  C   UNL     1       2.225   6.910  19.763  0.00  0.00    +0.000 A 
ATOM      7  C   UNL     1       2.626   5.564  19.988  0.00  0.00    +0.000 A 
ATOM      8  C   UNL     1       3.469   4.908  19.078  0.00  0.00    +0.000 A 
BRANCH   3  10
ATOM      9  C   UNL     1       5.195   5.916  15.965  0.00  0.00    +0.000 C 
ATOM     10  O   UNL     1       4.745   5.033  16.984  0.00  0.00    +0.000 OA
ENDBRANCH   3  10
BRANCH   5  11
ATOM     11  O   UNL     1       2.380   8.890  18.427  0.00  0.00    +0.000 OA
ATOM     12  C   UNL     1       1.198   9.135  17.664  0.00  0.00    +0.000 C 
ENDBRANCH   5  11
BRANCH   7  13
ATOM     13  O   UNL     1       2.121   4.953  21.115  0.00  0.00    +0.000 OA
ATOM     14  C   UNL     1       1.818   3.565  21.045  0.00  0.00    +0.000 C 
ENDBRANCH   7  13
ENDBRANCH   1   6
BRANCH   2  15
ATOM     15  S   UNL     1       0.328   9.339  22.476  0.00  0.00    +0.000 S 
ATOM     16  O   UNL     1      -0.951   8.687  22.283  0.00  0.00    +0.000 OA
ATOM     17  O   UNL     1       0.833   9.539  23.820  0.00  0.00    +0.000 OA
BRANCH  15  18
ATOM     18  N   UNL     1       0.113  10.909  21.814  0.00  0.00    +0.000 N 
ATOM     19  H   UNL     1       0.446  10.865  20.849  0.00  0.00    +0.000 HD
BRANCH  18  20
ATOM     20  C   UNL     1      -1.201  11.463  21.953  0.00  0.00    +0.000 A 
ATOM     21  C   UNL     1      -1.797  11.594  23.204  0.00  0.00    +0.000 A 
ATOM     22  C   UNL     1      -3.020  12.257  23.309  0.00  0.00    +0.000 A 
ATOM     23  C   UNL     1      -3.585  12.773  22.153  0.00  0.00    +0.000 A 
ATOM     24 CL   UNL     1      -5.060  13.646  22.206  0.00  0.00    +0.000 Cl
ATOM     25  N   UNL     1      -3.043  12.661  20.924  0.00  0.00    +0.000 NA
ATOM     26  C   UNL     1      -1.863  12.004  20.853  0.00  0.00    +0.000 A 
ENDBRANCH  18  20
ENDBRANCH  15  18
ENDBRANCH   2  15
TORSDOF 7
ENDMDL
MODEL 9
REMARK VINA RESULT:      -6.0      3.310      6.205
REMARK  Name = 
REMARK  10 active torsions:
REMARK  status: ('A' for Active; 'I' for Inactive)
REMARK    1  A    between atoms: C_1  and  O_2
REMARK    2  A    between atoms: O_2  and  C_3
REMARK    3  A    between atoms: C_5  and  O_6
REMARK    4  A    between atoms: O_6  and  C_7
REMARK    5  A    between atoms: C_8  and  C_9
REMARK    6  A    between atoms: C_10  and  S_11
REMARK    7  A    between atoms: S_11  and  N_14
REMARK    8  A    between atoms: N_14  and  C_15
REMARK    9  A    between atoms: C_22  and  O_23
REMARK   10  A    between atoms: O_23  and  C_24
REMARK                            x       y       z     vdW  Elec       q    Type
REMARK                         _______ _______ _______ _____ _____    ______ ____
ROOT
ATOM      1  C   UNL     1       2.185   6.232  20.324  0.00  0.00    +0.000 C 
ATOM      2  C   UNL     1       1.351   5.182  20.253  0.00  0.00    +0.000 C 
ENDROOT
BRANCH   1   6
ATOM      3  C   UNL     1       1.323  10.166  18.761  0.00  0.00    +0.000 A 
ATOM      4  C   UNL     1       0.932   9.847  20.058  0.00  0.00    +0.000 A 
ATOM      5  C   UNL     1       1.195   8.585  20.608  0.00  0.00    +0.000 A 
ATOM      6  C   UNL     1       1.882   7.611  19.844  0.00  0.00    +0.000 A 
ATOM      7  C   UNL     1       2.301   7.960  18.531  0.00  0.00    +0.000 A 
ATOM      8  C   UNL     1       2.005   9.225  18.000  0.00  0.00    +0.000 A 
BRANCH   3  10
ATOM      9  C   UNL     1       0.153  12.175  19.243  0.00  0.00    +0.000 C 
ATOM     10  O   UNL     1       0.949  11.415  18.343  0.00  0.00    +0.000 OA
ENDBRANCH   3  10
BRANCH   5  11
ATOM     11  O   UNL     1       0.832   8.263  21.894  0.00  0.00    +0.000 OA
ATOM     12  C   UNL     1      -0.371   8.852  22.388  0.00  0.00    +0.000 C 
ENDBRANCH   5  11
BRANCH   7  13
ATOM     13  O   UNL     1       2.973   6.988  17.821  0.00  0.00    +0.000 OA
ATOM     14  C   UNL     1       4.222   7.332  17.235  0.00  0.00    +0.000 C 
ENDBRANCH   7  13
ENDBRANCH   1   6
BRANCH   2  15
ATOM     15  S   UNL     1       1.884   3.586  20.658  0.00  0.00    +0.000 S 
ATOM     16  O   UNL     1       3.139   3.624  21.381  0.00  0.00    +0.000 OA
ATOM     17  O   UNL     1       0.766   2.843  21.205  0.00  0.00    +0.000 OA
BRANCH  15  18
ATOM     18  N   UNL     1       2.271   2.827  19.167  0.00  0.00    +0.000 N 
ATOM     19  H   UNL     1       1.457   2.948  18.561  0.00  0.00    +0.000 HD
BRANCH  18  20
ATOM     20  C   UNL     1       3.508   3.234  18.571  0.00  0.00    +0.000 A 
ATOM     21  C   UNL     1       3.604   3.472  17.203  0.00  0.00    +0.000 A 
ATOM     22  C   UNL     1       4.790   3.993  16.685  0.00  0.00    +0.000 A 
ATOM     23  C   UNL     1       5.825   4.265  17.566  0.00  0.00    +0.000 A 
ATOM     24 CL   UNL     1       7.295   4.954  17.014  0.00  0.00    +0.000 Cl
ATOM     25  N   UNL     1       5.773   4.042  18.894  0.00  0.00    +0.000 NA
ATOM     26  C   UNL     1       4.615   3.527  19.365  0.00  0.00    +0.000 A 
ENDBRANCH  18  20
ENDBRANCH  15  18
ENDBRANCH   2  15
TORSDOF 7
ENDMDL
