MODEL 1
REMARK VINA RESULT:      -8.4      0.000      0.000
REMARK  Name = 
REMARK  9 active torsions:
REMARK  status: ('A' for Active; 'I' for Inactive)
REMARK    1  A    between atoms: C_1  and  S_2
REMARK    2  A    between atoms: S_2  and  C_3
REMARK    3  A    between atoms: C_8  and  C_9
REMARK    4  A    between atoms: C_15  and  C_16
REMARK    5  A    between atoms: C_19  and  C_20
REMARK    6  A    between atoms: C_20  and  N_21
REMARK    7  A    between atoms: N_21  and  C_22
REMARK    8  A    between atoms: C_22  and  C_23
REMARK    9  A    between atoms: C_23  and  C_24
REMARK                            x       y       z     vdW  Elec       q    Type
REMARK                         _______ _______ _______ _____ _____    ______ ____
ROOT
ATOM      1  C   UNL     1       1.233  10.449  19.207  0.00  0.00    +0.000 A 
ATOM      2  C   UNL     1       1.857   9.785  18.142  0.00  0.00    +0.000 A 
ATOM      3  C   UNL     1       2.148   8.423  18.201  0.00  0.00    +0.000 A 
ATOM      4  C   UNL     1       1.930   7.699  19.378  0.00  0.00    +0.000 A 
ATOM      5  C   UNL     1       1.344   8.347  20.468  0.00  0.00    +0.000 A 
ATOM      6  C   UNL     1       0.990   9.700  20.375  0.00  0.00    +0.000 A 
ENDROOT
BRANCH   1  13
ATOM      7  C   UNL     1       2.869  16.037  19.647  0.00  0.00    +0.000 A 
ATOM      8  N   UNL     1       1.858  16.712  19.089  0.00  0.00    +0.000 NA
ATOM      9  C   UNL     1       0.806  15.976  18.703  0.00  0.00    +0.000 A 
ATOM     10  C   UNL     1       0.739  14.603  18.852  0.00  0.00    +0.000 A 
ATOM     11  C   UNL     1      -0.381  13.816  18.522  0.00  0.00    +0.000 A 
ATOM     12  C   UNL     1      -0.355  12.421  18.689  0.00  0.00    +0.000 A 
ATOM     13  C   UNL     1       0.876  11.894  19.137  0.00  0.00    +0.000 A 
ATOM     14  N   UNL     1       1.928  12.686  19.507  0.00  0.00    +0.000 NA
ATOM     15  C   UNL     1       1.867  14.006  19.386  0.00  0.00    +0.000 A 
ATOM     16  N   UNL     1       2.915  14.708  19.782  0.00  0.00    +0.000 NA
BRANCH  12  17
ATOM     17  C   UNL     1      -1.575  11.617  18.386  0.00  0.00    +0.000 A 
ATOM     18  C   UNL     1      -2.840  11.987  18.879  0.00  0.00    +0.000 A 
ATOM     19  C   UNL     1      -4.003  11.309  18.497  0.00  0.00    +0.000 A 
ATOM     20  C   UNL     1      -3.933  10.260  17.586  0.00  0.00    +0.000 A 
ATOM     21  C   UNL     1      -2.694   9.845  17.114  0.00  0.00    +0.000 A 
ATOM     22  C   UNL     1      -1.529  10.482  17.552  0.00  0.00    +0.000 A 
ENDBRANCH  12  17
BRANCH   7  24
ATOM     23  C   UNL     1       5.376  16.872  18.878  0.00  0.00    +0.000 C 
ATOM     24  S   UNL     1       4.226  17.003  20.271  0.00  0.00    +0.000 S 
ENDBRANCH   7  24
ENDBRANCH   1  13
BRANCH   4  25
ATOM     25  C   UNL     1       2.396   6.265  19.460  0.00  0.00    +0.000 C 
BRANCH  25  26
ATOM     26  N   UNL     1       2.451   5.705  18.110  0.00  0.00    +0.000 NA
ATOM     27  H   UNL     1       3.430   5.656  17.824  0.00  0.00    +0.000 HD
BRANCH  26  28
ATOM     28  C   UNL     1       1.835   4.381  18.033  0.00  0.00    +0.000 C 
BRANCH  28  29
ATOM     29  C   UNL     1       2.769   3.428  17.278  0.00  0.00    +0.000 C 
BRANCH  29  30
ATOM     30  C   UNL     1       4.200   3.769  17.524  0.00  0.00    +0.000 A 
ATOM     31  N   UNL     1       4.764   3.809  18.712  0.00  0.00    +0.000 NA
ATOM     32  N   UNL     1       6.092   4.180  18.639  0.00  0.00    +0.000 NA
ATOM     33  C   UNL     1       6.486   4.419  17.408  0.00  0.00    +0.000 A 
ATOM     34  N   UNL     1       7.725   4.802  17.061  0.00  0.00    +0.000 N 
ATOM     35  S   UNL     1       5.256   4.173  16.233  0.00  0.00    +0.000 S 
ATOM     36  H   UNL     1       8.448   4.664  17.760  0.00  0.00    +0.000 HD
ATOM     37  H   UNL     1       8.029   4.649  16.105  0.00  0.00    +0.000 HD
ENDBRANCH  29  30
ENDBRANCH  28  29
ENDBRANCH  26  28
ENDBRANCH  25  26
ENDBRANCH   4  25
TORSDOF 8
ENDMDL
MODEL 2
REMARK VINA RESULT:      -8.3      0.997      1.560
REMARK  Name = 
REMARK  9 active torsions:
REMARK  status: ('A' for Active; 'I' for Inactive)
REMARK    1  A    between atoms: C_1  and  S_2
REMARK    2  A    between atoms: S_2  and  C_3
REMARK    3  A    between atoms: C_8  and  C_9
REMARK    4  A    between atoms: C_15  and  C_16
REMARK    5  A    between atoms: C_19  and  C_20
REMARK    6  A    between atoms: C_20  and  N_21
REMARK    7  A    between atoms: N_21  and  C_22
REMARK    8  A    between atoms: C_22  and  C_23
REMARK    9  A    between atoms: C_23  and  C_24
REMARK                            x       y       z     vdW  Elec       q    Type
REMARK                         _______ _______ _______ _____ _____    ______ ____
ROOT
ATOM      1  C   UNL     1       1.358  10.300  19.031  0.00  0.00    +0.000 A 
ATOM      2  C   UNL     1       1.116   9.463  20.130  0.00  0.00    +0.000 A 
ATOM      3  C   UNL     1       1.507   8.125  20.129  0.00  0.00    +0.000 A 
ATOM      4  C   UNL     1       2.050   7.543  18.979  0.00  0.00    +0.000 A 
ATOM      5  C   UNL     1       2.265   8.346  17.855  0.00  0.00    +0.000 A 
ATOM      6  C   UNL     1       1.935   9.707  17.890  0.00  0.00    +0.000 A 
ENDROOT
BRANCH   1  13
ATOM      7  C   UNL     1       2.962  15.876  19.678  0.00  0.00    +0.000 A 
ATOM      8  N   UNL     1       1.930  16.566  19.182  0.00  0.00    +0.000 NA
ATOM      9  C   UNL     1       0.872  15.839  18.794  0.00  0.00    +0.000 A 
ATOM     10  C   UNL     1       0.820  14.460  18.882  0.00  0.00    +0.000 A 
ATOM     11  C   UNL     1      -0.302  13.679  18.550  0.00  0.00    +0.000 A 
ATOM     12  C   UNL     1      -0.261  12.279  18.652  0.00  0.00    +0.000 A 
ATOM     13  C   UNL     1       0.987  11.742  19.039  0.00  0.00    +0.000 A 
ATOM     14  N   UNL     1       2.044  12.526  19.412  0.00  0.00    +0.000 NA
ATOM     15  C   UNL     1       1.969  13.850  19.354  0.00  0.00    +0.000 A 
ATOM     16  N   UNL     1       3.023  14.543  19.751  0.00  0.00    +0.000 NA
BRANCH  12  17
ATOM     17  C   UNL     1      -1.483  11.478  18.349  0.00  0.00    +0.000 A 
ATOM     18  C   UNL     1      -2.746  11.846  18.850  0.00  0.00    +0.000 A 
ATOM     19  C   UNL     1      -3.911  11.172  18.468  0.00  0.00    +0.000 A 
ATOM     20  C   UNL     1      -3.846  10.129  17.550  0.00  0.00    +0.000 A 
ATOM     21  C   UNL     1      -2.610   9.716  17.070  0.00  0.00    +0.000 A 
ATOM     22  C   UNL     1      -1.442  10.349  17.507  0.00  0.00    +0.000 A 
ENDBRANCH  12  17
BRANCH   7  24
ATOM     23  C   UNL     1       3.436  18.202  21.069  0.00  0.00    +0.000 C 
ATOM     24  S   UNL     1       4.330  16.825  20.305  0.00  0.00    +0.000 S 
ENDBRANCH   7  24
ENDBRANCH   1  13
BRANCH   4  25
ATOM     25  C   UNL     1       2.319   6.058  18.960  0.00  0.00    +0.000 C 
BRANCH  25  26
ATOM     26  N   UNL     1       3.242   5.728  20.046  0.00  0.00    +0.000 NA
ATOM     27  H   UNL     1       2.875   4.914  20.541  0.00  0.00    +0.000 HD
BRANCH  26  28
ATOM     28  C   UNL     1       4.595   5.458  19.561  0.00  0.00    +0.000 C 
BRANCH  28  29
ATOM     29  C   UNL     1       4.539   4.383  18.469  0.00  0.00    +0.000 C 
BRANCH  29  30
ATOM     30  C   UNL     1       5.665   4.538  17.504  0.00  0.00    +0.000 A 
ATOM     31  N   UNL     1       6.933   4.347  17.799  0.00  0.00    +0.000 NA
ATOM     32  N   UNL     1       7.756   4.588  16.716  0.00  0.00    +0.000 NA
ATOM     33  C   UNL     1       7.091   4.961  15.646  0.00  0.00    +0.000 A 
ATOM     34  N   UNL     1       7.649   5.263  14.463  0.00  0.00    +0.000 N 
ATOM     35  S   UNL     1       5.388   5.016  15.879  0.00  0.00    +0.000 S 
ATOM     36  H   UNL     1       8.606   4.953  14.328  0.00  0.00    +0.000 HD
ATOM     37  H   UNL     1       7.072   5.221  13.631  0.00  0.00    +0.000 HD
ENDBRANCH  29  30
ENDBRANCH  28  29
ENDBRANCH  26  28
ENDBRANCH  25  26
ENDBRANCH   4  25
TORSDOF 8
ENDMDL
MODEL 3
REMARK VINA RESULT:      -8.3      1.067      1.491
REMARK  Name = 
REMARK  9 active torsions:
REMARK  status: ('A' for Active; 'I' for Inactive)
REMARK    1  A    between atoms: C_1  and  S_2
REMARK    2  A    between atoms: S_2  and  C_3
REMARK    3  A    between atoms: C_8  and  C_9
REMARK    4  A    between atoms: C_15  and  C_16
REMARK    5  A    between atoms: C_19  and  C_20
REMARK    6  A    between atoms: C_20  and  N_21
REMARK    7  A    between atoms: N_21  and  C_22
REMARK    8  A    between atoms: C_22  and  C_23
REMARK    9  A    between atoms: C_23  and  C_24
REMARK                            x       y       z     vdW  Elec       q    Type
REMARK                         _______ _______ _______ _____ _____    ______ ____
ROOT
ATOM      1  C   UNL     1       1.346  10.285  19.020  0.00  0.00    +0.000 A 
ATOM      2  C   UNL     1       1.113   9.435  20.110  0.00  0.00    +0.000 A 
ATOM      3  C   UNL     1       1.508   8.099  20.093  0.00  0.00    +0.000 A 
ATOM      4  C   UNL     1       2.048   7.531  18.934  0.00  0.00    +0.000 A 
ATOM      5  C   UNL     1       2.255   8.347  17.819  0.00  0.00    +0.000 A 
ATOM      6  C   UNL     1       1.920   9.707  17.870  0.00  0.00    +0.000 A 
ENDROOT
BRANCH   1  13
ATOM      7  C   UNL     1       2.926  15.858  19.749  0.00  0.00    +0.000 A 
ATOM      8  N   UNL     1       1.893  16.551  19.258  0.00  0.00    +0.000 NA
ATOM      9  C   UNL     1       0.840  15.825  18.855  0.00  0.00    +0.000 A 
ATOM     10  C   UNL     1       0.793  14.445  18.924  0.00  0.00    +0.000 A 
ATOM     11  C   UNL     1      -0.325  13.664  18.575  0.00  0.00    +0.000 A 
ATOM     12  C   UNL     1      -0.279  12.262  18.659  0.00  0.00    +0.000 A 
ATOM     13  C   UNL     1       0.970  11.726  19.045  0.00  0.00    +0.000 A 
ATOM     14  N   UNL     1       2.022  12.508  19.434  0.00  0.00    +0.000 NA
ATOM     15  C   UNL     1       1.942  13.833  19.393  0.00  0.00    +0.000 A 
ATOM     16  N   UNL     1       2.991  14.524  19.805  0.00  0.00    +0.000 NA
BRANCH  12  17
ATOM     17  C   UNL     1      -1.496  11.461  18.339  0.00  0.00    +0.000 A 
ATOM     18  C   UNL     1      -2.764  11.824  18.830  0.00  0.00    +0.000 A 
ATOM     19  C   UNL     1      -3.924  11.149  18.433  0.00  0.00    +0.000 A 
ATOM     20  C   UNL     1      -3.848  10.113  17.509  0.00  0.00    +0.000 A 
ATOM     21  C   UNL     1      -2.607   9.705  17.037  0.00  0.00    +0.000 A 
ATOM     22  C   UNL     1      -1.445  10.338  17.490  0.00  0.00    +0.000 A 
ENDBRANCH  12  17
BRANCH   7  24
ATOM     23  C   UNL     1       3.406  18.286  20.953  0.00  0.00    +0.000 C 
ATOM     24  S   UNL     1       4.286  16.804  20.396  0.00  0.00    +0.000 S 
ENDBRANCH   7  24
ENDBRANCH   1  13
BRANCH   4  25
ATOM     25  C   UNL     1       2.323   6.048  18.897  0.00  0.00    +0.000 C 
BRANCH  25  26
ATOM     26  N   UNL     1       3.325   5.775  17.866  0.00  0.00    +0.000 NA
ATOM     27  H   UNL     1       4.226   6.124  18.196  0.00  0.00    +0.000 HD
BRANCH  26  28
ATOM     28  C   UNL     1       3.420   4.351  17.547  0.00  0.00    +0.000 C 
BRANCH  28  29
ATOM     29  C   UNL     1       4.846   4.025  17.089  0.00  0.00    +0.000 C 
BRANCH  29  30
ATOM     30  C   UNL     1       5.855   4.732  17.930  0.00  0.00    +0.000 A 
ATOM     31  N   UNL     1       6.013   4.543  19.223  0.00  0.00    +0.000 NA
ATOM     32  N   UNL     1       7.004   5.352  19.743  0.00  0.00    +0.000 NA
ATOM     33  C   UNL     1       7.554   6.129  18.838  0.00  0.00    +0.000 A 
ATOM     34  N   UNL     1       8.533   7.014  19.080  0.00  0.00    +0.000 N 
ATOM     35  S   UNL     1       6.913   5.904  17.258  0.00  0.00    +0.000 S 
ATOM     36  H   UNL     1       9.033   6.899  19.956  0.00  0.00    +0.000 HD
ATOM     37  H   UNL     1       9.109   7.323  18.304  0.00  0.00    +0.000 HD
ENDBRANCH  29  30
ENDBRANCH  28  29
ENDBRANCH  26  28
ENDBRANCH  25  26
ENDBRANCH   4  25
TORSDOF 8
ENDMDL
MODEL 4
REMARK VINA RESULT:      -8.3      1.222      1.712
REMARK  Name = 
REMARK  9 active torsions:
REMARK  status: ('A' for Active; 'I' for Inactive)
REMARK    1  A    between atoms: C_1  and  S_2
REMARK    2  A    between atoms: S_2  and  C_3
REMARK    3  A    between atoms: C_8  and  C_9
REMARK    4  A    between atoms: C_15  and  C_16
REMARK    5  A    between atoms: C_19  and  C_20
REMARK    6  A    between atoms: C_20  and  N_21
REMARK    7  A    between atoms: N_21  and  C_22
REMARK    8  A    between atoms: C_22  and  C_23
REMARK    9  A    between atoms: C_23  and  C_24
REMARK                            x       y       z     vdW  Elec       q    Type
REMARK                         _______ _______ _______ _____ _____    ______ ____
ROOT
ATOM      1  C   UNL     1       1.256  10.304  19.308  0.00  0.00    +0.000 A 
ATOM      2  C   UNL     1       1.854   9.595  18.257  0.00  0.00    +0.000 A 
ATOM      3  C   UNL     1       2.127   8.232  18.358  0.00  0.00    +0.000 A 
ATOM      4  C   UNL     1       1.917   7.551  19.561  0.00  0.00    +0.000 A 
ATOM      5  C   UNL     1       1.357   8.244  20.638  0.00  0.00    +0.000 A 
ATOM      6  C   UNL     1       1.020   9.597  20.505  0.00  0.00    +0.000 A 
ENDROOT
BRANCH   1  13
ATOM      7  C   UNL     1       2.937  15.882  19.687  0.00  0.00    +0.000 A 
ATOM      8  N   UNL     1       1.954  16.556  19.080  0.00  0.00    +0.000 NA
ATOM      9  C   UNL     1       0.908  15.822  18.672  0.00  0.00    +0.000 A 
ATOM     10  C   UNL     1       0.820  14.453  18.848  0.00  0.00    +0.000 A 
ATOM     11  C   UNL     1      -0.295  13.671  18.495  0.00  0.00    +0.000 A 
ATOM     12  C   UNL     1      -0.291  12.281  18.693  0.00  0.00    +0.000 A 
ATOM     13  C   UNL     1       0.917  11.750  19.195  0.00  0.00    +0.000 A 
ATOM     14  N   UNL     1       1.965  12.539  19.585  0.00  0.00    +0.000 NA
ATOM     15  C   UNL     1       1.922  13.857  19.434  0.00  0.00    +0.000 A 
ATOM     16  N   UNL     1       2.963  14.556  19.853  0.00  0.00    +0.000 NA
BRANCH  12  17
ATOM     17  C   UNL     1      -1.509  11.482  18.364  0.00  0.00    +0.000 A 
ATOM     18  C   UNL     1      -2.779  11.847  18.848  0.00  0.00    +0.000 A 
ATOM     19  C   UNL     1      -3.938  11.176  18.442  0.00  0.00    +0.000 A 
ATOM     20  C   UNL     1      -3.859  10.141  17.516  0.00  0.00    +0.000 A 
ATOM     21  C   UNL     1      -2.615   9.731  17.052  0.00  0.00    +0.000 A 
ATOM     22  C   UNL     1      -1.455  10.361  17.513  0.00  0.00    +0.000 A 
ENDBRANCH  12  17
BRANCH   7  24
ATOM     23  C   UNL     1       5.149  15.578  21.296  0.00  0.00    +0.000 C 
ATOM     24  S   UNL     1       4.281  16.848  20.339  0.00  0.00    +0.000 S 
ENDBRANCH   7  24
ENDBRANCH   1  13
BRANCH   4  25
ATOM     25  C   UNL     1       2.365   6.114  19.685  0.00  0.00    +0.000 C 
BRANCH  25  26
ATOM     26  N   UNL     1       3.826   6.066  19.624  0.00  0.00    +0.000 NA
ATOM     27  H   UNL     1       4.163   5.551  20.439  0.00  0.00    +0.000 HD
BRANCH  26  28
ATOM     28  C   UNL     1       4.309   5.437  18.394  0.00  0.00    +0.000 C 
BRANCH  28  29
ATOM     29  C   UNL     1       5.732   5.924  18.099  0.00  0.00    +0.000 C 
BRANCH  29  30
ATOM     30  C   UNL     1       6.210   5.422  16.778  0.00  0.00    +0.000 A 
ATOM     31  N   UNL     1       7.267   5.881  16.143  0.00  0.00    +0.000 NA
ATOM     32  N   UNL     1       7.453   5.247  14.930  0.00  0.00    +0.000 NA
ATOM     33  C   UNL     1       6.533   4.342  14.683  0.00  0.00    +0.000 A 
ATOM     34  N   UNL     1       6.478   3.589  13.573  0.00  0.00    +0.000 N 
ATOM     35  S   UNL     1       5.376   4.176  15.943  0.00  0.00    +0.000 S 
ATOM     36  H   UNL     1       7.326   3.552  13.015  0.00  0.00    +0.000 HD
ATOM     37  H   UNL     1       5.956   2.720  13.603  0.00  0.00    +0.000 HD
ENDBRANCH  29  30
ENDBRANCH  28  29
ENDBRANCH  26  28
ENDBRANCH  25  26
ENDBRANCH   4  25
TORSDOF 8
ENDMDL
MODEL 5
REMARK VINA RESULT:      -8.2      0.517      1.062
REMARK  Name = 
REMARK  9 active torsions:
REMARK  status: ('A' for Active; 'I' for Inactive)
REMARK    1  A    between atoms: C_1  and  S_2
REMARK    2  A    between atoms: S_2  and  C_3
REMARK    3  A    between atoms: C_8  and  C_9
REMARK    4  A    between atoms: C_15  and  C_16
REMARK    5  A    between atoms: C_19  and  C_20
REMARK    6  A    between atoms: C_20  and  N_21
REMARK    7  A    between atoms: N_21  and  C_22
REMARK    8  A    between atoms: C_22  and  C_23
REMARK    9  A    between atoms: C_23  and  C_24
REMARK                            x       y       z     vdW  Elec       q    Type
REMARK                         _______ _______ _______ _____ _____    ______ ____
ROOT
ATOM      1  C   UNL     1       1.226  10.436  19.327  0.00  0.00    +0.000 A 
ATOM      2  C   UNL     1       0.961   9.682  20.479  0.00  0.00    +0.000 A 
ATOM      3  C   UNL     1       1.355   8.349  20.586  0.00  0.00    +0.000 A 
ATOM      4  C   UNL     1       1.926   7.685  19.495  0.00  0.00    +0.000 A 
ATOM      5  C   UNL     1       2.166   8.404  18.321  0.00  0.00    +0.000 A 
ATOM      6  C   UNL     1       1.832   9.763  18.247  0.00  0.00    +0.000 A 
ENDROOT
BRANCH   1  13
ATOM      7  C   UNL     1       2.750  16.052  19.797  0.00  0.00    +0.000 A 
ATOM      8  N   UNL     1       1.764  16.705  19.172  0.00  0.00    +0.000 NA
ATOM      9  C   UNL     1       0.748  15.949  18.734  0.00  0.00    +0.000 A 
ATOM     10  C   UNL     1       0.693  14.577  18.895  0.00  0.00    +0.000 A 
ATOM     11  C   UNL     1      -0.394  13.769  18.509  0.00  0.00    +0.000 A 
ATOM     12  C   UNL     1      -0.358  12.377  18.694  0.00  0.00    +0.000 A 
ATOM     13  C   UNL     1       0.852  11.874  19.220  0.00  0.00    +0.000 A 
ATOM     14  N   UNL     1       1.870  12.685  19.641  0.00  0.00    +0.000 NA
ATOM     15  C   UNL     1       1.796  14.004  19.501  0.00  0.00    +0.000 A 
ATOM     16  N   UNL     1       2.808  14.726  19.951  0.00  0.00    +0.000 NA
BRANCH  12  17
ATOM     17  C   UNL     1      -1.545  11.551  18.329  0.00  0.00    +0.000 A 
ATOM     18  C   UNL     1      -2.826  11.840  18.837  0.00  0.00    +0.000 A 
ATOM     19  C   UNL     1      -3.961  11.147  18.401  0.00  0.00    +0.000 A 
ATOM     20  C   UNL     1      -3.847  10.165  17.423  0.00  0.00    +0.000 A 
ATOM     21  C   UNL     1      -2.592   9.829  16.933  0.00  0.00    +0.000 A 
ATOM     22  C   UNL     1      -1.454  10.477  17.421  0.00  0.00    +0.000 A 
ENDBRANCH  12  17
BRANCH   7  24
ATOM     23  C   UNL     1       3.546  17.070  22.227  0.00  0.00    +0.000 C 
ATOM     24  S   UNL     1       4.054  17.046  20.488  0.00  0.00    +0.000 S 
ENDBRANCH   7  24
ENDBRANCH   1  13
BRANCH   4  25
ATOM     25  C   UNL     1       2.199   6.204  19.592  0.00  0.00    +0.000 C 
BRANCH  25  26
ATOM     26  N   UNL     1       2.329   5.656  18.241  0.00  0.00    +0.000 NA
ATOM     27  H   UNL     1       3.313   5.702  17.972  0.00  0.00    +0.000 HD
BRANCH  26  28
ATOM     28  C   UNL     1       1.846   4.278  18.153  0.00  0.00    +0.000 C 
BRANCH  28  29
ATOM     29  C   UNL     1       2.790   3.463  17.262  0.00  0.00    +0.000 C 
BRANCH  29  30
ATOM     30  C   UNL     1       4.216   3.790  17.548  0.00  0.00    +0.000 A 
ATOM     31  N   UNL     1       4.730   3.893  18.756  0.00  0.00    +0.000 NA
ATOM     32  N   UNL     1       6.068   4.232  18.718  0.00  0.00    +0.000 NA
ATOM     33  C   UNL     1       6.520   4.383  17.493  0.00  0.00    +0.000 A 
ATOM     34  N   UNL     1       7.781   4.717  17.177  0.00  0.00    +0.000 N 
ATOM     35  S   UNL     1       5.336   4.088  16.282  0.00  0.00    +0.000 S 
ATOM     36  H   UNL     1       8.471   4.609  17.915  0.00  0.00    +0.000 HD
ATOM     37  H   UNL     1       8.122   4.497  16.247  0.00  0.00    +0.000 HD
ENDBRANCH  29  30
ENDBRANCH  28  29
ENDBRANCH  26  28
ENDBRANCH  25  26
ENDBRANCH   4  25
TORSDOF 8
ENDMDL
MODEL 6
REMARK VINA RESULT:      -8.2      1.206      1.317
REMARK  Name = 
REMARK  9 active torsions:
REMARK  status: ('A' for Active; 'I' for Inactive)
REMARK    1  A    between atoms: C_1  and  S_2
REMARK    2  A    between atoms: S_2  and  C_3
REMARK    3  A    between atoms: C_8  and  C_9
REMARK    4  A    between atoms: C_15  and  C_16
REMARK    5  A    between atoms: C_19  and  C_20
REMARK    6  A    between atoms: C_20  and  N_21
REMARK    7  A    between atoms: N_21  and  C_22
REMARK    8  A    between atoms: C_22  and  C_23
REMARK    9  A    between atoms: C_23  and  C_24
REMARK                            x       y       z     vdW  Elec       q    Type
REMARK                         _______ _______ _______ _____ _____    ______ ____
ROOT
ATOM      1  C   UNL     1       1.063  10.305  19.703  0.00  0.00    +0.000 A 
ATOM      2  C   UNL     1       1.723   9.525  18.743  0.00  0.00    +0.000 A 
ATOM      3  C   UNL     1       1.950   8.164  18.937  0.00  0.00    +0.000 A 
ATOM      4  C   UNL     1       1.628   7.555  20.155  0.00  0.00    +0.000 A 
ATOM      5  C   UNL     1       1.004   8.320  21.145  0.00  0.00    +0.000 A 
ATOM      6  C   UNL     1       0.715   9.671  20.913  0.00  0.00    +0.000 A 
ENDROOT
BRANCH   1  13
ATOM      7  C   UNL     1       2.814  15.864  20.031  0.00  0.00    +0.000 A 
ATOM      8  N   UNL     1       1.926  16.526  19.281  0.00  0.00    +0.000 NA
ATOM      9  C   UNL     1       0.919  15.792  18.785  0.00  0.00    +0.000 A 
ATOM     10  C   UNL     1       0.780  14.435  19.010  0.00  0.00    +0.000 A 
ATOM     11  C   UNL     1      -0.304  13.656  18.562  0.00  0.00    +0.000 A 
ATOM     12  C   UNL     1      -0.355  12.277  18.820  0.00  0.00    +0.000 A 
ATOM     13  C   UNL     1       0.773  11.749  19.486  0.00  0.00    +0.000 A 
ATOM     14  N   UNL     1       1.785  12.537  19.963  0.00  0.00    +0.000 NA
ATOM     15  C   UNL     1       1.791  13.848  19.749  0.00  0.00    +0.000 A 
ATOM     16  N   UNL     1       2.791  14.548  20.257  0.00  0.00    +0.000 NA
BRANCH  12  17
ATOM     17  C   UNL     1      -1.543  11.485  18.384  0.00  0.00    +0.000 A 
ATOM     18  C   UNL     1      -2.843  11.816  18.811  0.00  0.00    +0.000 A 
ATOM     19  C   UNL     1      -3.969  11.155  18.307  0.00  0.00    +0.000 A 
ATOM     20  C   UNL     1      -3.825  10.167  17.340  0.00  0.00    +0.000 A 
ATOM     21  C   UNL     1      -2.553   9.790  16.929  0.00  0.00    +0.000 A 
ATOM     22  C   UNL     1      -1.428  10.406  17.485  0.00  0.00    +0.000 A 
ENDBRANCH  12  17
BRANCH   7  24
ATOM     23  C   UNL     1       3.223  18.412  20.988  0.00  0.00    +0.000 C 
ATOM     24  S   UNL     1       4.094  16.836  20.794  0.00  0.00    +0.000 S 
ENDBRANCH   7  24
ENDBRANCH   1  13
BRANCH   4  25
ATOM     25  C   UNL     1       2.027   6.119  20.390  0.00  0.00    +0.000 C 
BRANCH  25  26
ATOM     26  N   UNL     1       3.378   5.909  19.871  0.00  0.00    +0.000 NA
ATOM     27  H   UNL     1       4.038   6.030  20.640  0.00  0.00    +0.000 HD
BRANCH  26  28
ATOM     28  C   UNL     1       3.542   4.586  19.268  0.00  0.00    +0.000 C 
BRANCH  28  29
ATOM     29  C   UNL     1       3.316   4.684  17.755  0.00  0.00    +0.000 C 
BRANCH  29  30
ATOM     30  C   UNL     1       4.547   5.153  17.057  0.00  0.00    +0.000 A 
ATOM     31  N   UNL     1       5.030   6.375  17.135  0.00  0.00    +0.000 NA
ATOM     32  N   UNL     1       6.164   6.530  16.362  0.00  0.00    +0.000 NA
ATOM     33  C   UNL     1       6.497   5.432  15.721  0.00  0.00    +0.000 A 
ATOM     34  N   UNL     1       7.552   5.315  14.899  0.00  0.00    +0.000 N 
ATOM     35  S   UNL     1       5.452   4.105  16.043  0.00  0.00    +0.000 S 
ATOM     36  H   UNL     1       8.258   6.040  14.971  0.00  0.00    +0.000 HD
ATOM     37  H   UNL     1       7.918   4.388  14.713  0.00  0.00    +0.000 HD
ENDBRANCH  29  30
ENDBRANCH  28  29
ENDBRANCH  26  28
ENDBRANCH  25  26
ENDBRANCH   4  25
TORSDOF 8
ENDMDL
MODEL 7
REMARK VINA RESULT:      -8.1      1.600      1.955
REMARK  Name = 
REMARK  9 active torsions:
REMARK  status: ('A' for Active; 'I' for Inactive)
REMARK    1  A    between atoms: C_1  and  S_2
REMARK    2  A    between atoms: S_2  and  C_3
REMARK    3  A    between atoms: C_8  and  C_9
REMARK    4  A    between atoms: C_15  and  C_16
REMARK    5  A    between atoms: C_19  and  C_20
REMARK    6  A    between atoms: C_20  and  N_21
REMARK    7  A    between atoms: N_21  and  C_22
REMARK    8  A    between atoms: C_22  and  C_23
REMARK    9  A    between atoms: C_23  and  C_24
REMARK                            x       y       z     vdW  Elec       q    Type
REMARK                         _______ _______ _______ _____ _____    ______ ____
ROOT
ATOM      1  C   UNL     1       1.246  10.145  19.331  0.00  0.00    +0.000 A 
ATOM      2  C   UNL     1       1.854   9.832  18.107  0.00  0.00    +0.000 A 
ATOM      3  C   UNL     1       2.277   8.537  17.812  0.00  0.00    +0.000 A 
ATOM      4  C   UNL     1       2.213   7.529  18.779  0.00  0.00    +0.000 A 
ATOM      5  C   UNL     1       1.646   7.824  20.022  0.00  0.00    +0.000 A 
ATOM      6  C   UNL     1       1.158   9.112  20.285  0.00  0.00    +0.000 A 
ENDROOT
BRANCH   1  13
ATOM      7  C   UNL     1       2.217  15.424  21.626  0.00  0.00    +0.000 A 
ATOM      8  N   UNL     1       1.212  16.170  21.154  0.00  0.00    +0.000 NA
ATOM      9  C   UNL     1       0.296  15.519  20.422  0.00  0.00    +0.000 A 
ATOM     10  C   UNL     1       0.358  14.165  20.149  0.00  0.00    +0.000 A 
ATOM     11  C   UNL     1      -0.625  13.445  19.445  0.00  0.00    +0.000 A 
ATOM     12  C   UNL     1      -0.472  12.071  19.196  0.00  0.00    +0.000 A 
ATOM     13  C   UNL     1       0.748  11.514  19.640  0.00  0.00    +0.000 A 
ATOM     14  N   UNL     1       1.660  12.223  20.372  0.00  0.00    +0.000 NA
ATOM     15  C   UNL     1       1.474  13.510  20.638  0.00  0.00    +0.000 A 
ATOM     16  N   UNL     1       2.388  14.124  21.370  0.00  0.00    +0.000 NA
BRANCH  12  17
ATOM     17  C   UNL     1      -1.556  11.320  18.498  0.00  0.00    +0.000 A 
ATOM     18  C   UNL     1      -2.913  11.634  18.697  0.00  0.00    +0.000 A 
ATOM     19  C   UNL     1      -3.926  11.017  17.954  0.00  0.00    +0.000 A 
ATOM     20  C   UNL     1      -3.602  10.090  16.969  0.00  0.00    +0.000 A 
ATOM     21  C   UNL     1      -2.275   9.728  16.777  0.00  0.00    +0.000 A 
ATOM     22  C   UNL     1      -1.274  10.298  17.570  0.00  0.00    +0.000 A 
ENDBRANCH  12  17
BRANCH   7  24
ATOM     23  C   UNL     1       4.578  14.903  22.941  0.00  0.00    +0.000 C 
ATOM     24  S   UNL     1       3.382  16.241  22.694  0.00  0.00    +0.000 S 
ENDBRANCH   7  24
ENDBRANCH   1  13
BRANCH   4  25
ATOM     25  C   UNL     1       2.819   6.179  18.481  0.00  0.00    +0.000 C 
BRANCH  25  26
ATOM     26  N   UNL     1       3.644   5.767  19.617  0.00  0.00    +0.000 NA
ATOM     27  H   UNL     1       3.023   5.515  20.387  0.00  0.00    +0.000 HD
BRANCH  26  28
ATOM     28  C   UNL     1       4.521   4.644  19.287  0.00  0.00    +0.000 C 
BRANCH  28  29
ATOM     29  C   UNL     1       5.926   5.170  18.974  0.00  0.00    +0.000 C 
BRANCH  29  30
ATOM     30  C   UNL     1       6.323   4.845  17.574  0.00  0.00    +0.000 A 
ATOM     31  N   UNL     1       7.468   5.189  17.024  0.00  0.00    +0.000 NA
ATOM     32  N   UNL     1       7.552   4.777  15.709  0.00  0.00    +0.000 NA
ATOM     33  C   UNL     1       6.471   4.147  15.304  0.00  0.00    +0.000 A 
ATOM     34  N   UNL     1       6.291   3.651  14.070  0.00  0.00    +0.000 N 
ATOM     35  S   UNL     1       5.272   3.984  16.525  0.00  0.00    +0.000 S 
ATOM     36  H   UNL     1       7.126   3.548  13.502  0.00  0.00    +0.000 HD
ATOM     37  H   UNL     1       5.600   2.920  13.938  0.00  0.00    +0.000 HD
ENDBRANCH  29  30
ENDBRANCH  28  29
ENDBRANCH  26  28
ENDBRANCH  25  26
ENDBRANCH   4  25
TORSDOF 8
ENDMDL
MODEL 8
REMARK VINA RESULT:      -8.1      0.713      1.288
REMARK  Name = 
REMARK  9 active torsions:
REMARK  status: ('A' for Active; 'I' for Inactive)
REMARK    1  A    between atoms: C_1  and  S_2
REMARK    2  A    between atoms: S_2  and  C_3
REMARK    3  A    between atoms: C_8  and  C_9
REMARK    4  A    between atoms: C_15  and  C_16
REMARK    5  A    between atoms: C_19  and  C_20
REMARK    6  A    between atoms: C_20  and  N_21
REMARK    7  A    between atoms: N_21  and  C_22
REMARK    8  A    between atoms: C_22  and  C_23
REMARK    9  A    between atoms: C_23  and  C_24
REMARK                            x       y       z     vdW  Elec       q    Type
REMARK                         _______ _______ _______ _____ _____    ______ ____
ROOT
ATOM      1  C   UNL     1       1.202  10.460  19.307  0.00  0.00    +0.000 A 
ATOM      2  C   UNL     1       1.838   9.767  18.267  0.00  0.00    +0.000 A 
ATOM      3  C   UNL     1       2.121   8.405  18.363  0.00  0.00    +0.000 A 
ATOM      4  C   UNL     1       1.882   7.710  19.553  0.00  0.00    +0.000 A 
ATOM      5  C   UNL     1       1.283   8.388  20.619  0.00  0.00    +0.000 A 
ATOM      6  C   UNL     1       0.937   9.739  20.489  0.00  0.00    +0.000 A 
ENDROOT
BRANCH   1  13
ATOM      7  C   UNL     1       2.783  16.049  19.894  0.00  0.00    +0.000 A 
ATOM      8  N   UNL     1       1.833  16.722  19.235  0.00  0.00    +0.000 NA
ATOM      9  C   UNL     1       0.826  15.984  18.747  0.00  0.00    +0.000 A 
ATOM     10  C   UNL     1       0.744  14.612  18.893  0.00  0.00    +0.000 A 
ATOM     11  C   UNL     1      -0.336  13.823  18.453  0.00  0.00    +0.000 A 
ATOM     12  C   UNL     1      -0.327  12.429  18.626  0.00  0.00    +0.000 A 
ATOM     13  C   UNL     1       0.853  11.904  19.197  0.00  0.00    +0.000 A 
ATOM     14  N   UNL     1       1.862  12.697  19.669  0.00  0.00    +0.000 NA
ATOM     15  C   UNL     1       1.813  14.017  19.539  0.00  0.00    +0.000 A 
ATOM     16  N   UNL     1       2.816  14.721  20.037  0.00  0.00    +0.000 NA
BRANCH  12  17
ATOM     17  C   UNL     1      -1.510  11.624  18.204  0.00  0.00    +0.000 A 
ATOM     18  C   UNL     1      -1.376  10.515  17.347  0.00  0.00    +0.000 A 
ATOM     19  C   UNL     1      -2.461   9.684  17.049  0.00  0.00    +0.000 A 
ATOM     20  C   UNL     1      -3.704   9.923  17.625  0.00  0.00    +0.000 A 
ATOM     21  C   UNL     1      -3.878  11.033  18.441  0.00  0.00    +0.000 A 
ATOM     22  C   UNL     1      -2.806  11.899  18.682  0.00  0.00    +0.000 A 
ENDBRANCH  12  17
BRANCH   7  24
ATOM     23  C   UNL     1       5.478  16.534  19.618  0.00  0.00    +0.000 C 
ATOM     24  S   UNL     1       4.070  17.018  20.649  0.00  0.00    +0.000 S 
ENDBRANCH   7  24
ENDBRANCH   1  13
BRANCH   4  25
ATOM     25  C   UNL     1       2.340   6.277  19.676  0.00  0.00    +0.000 C 
BRANCH  25  26
ATOM     26  N   UNL     1       2.482   5.707  18.336  0.00  0.00    +0.000 NA
ATOM     27  H   UNL     1       2.974   6.385  17.752  0.00  0.00    +0.000 HD
BRANCH  26  28
ATOM     28  C   UNL     1       3.202   4.434  18.349  0.00  0.00    +0.000 C 
BRANCH  28  29
ATOM     29  C   UNL     1       4.568   4.628  19.017  0.00  0.00    +0.000 C 
BRANCH  29  30
ATOM     30  C   UNL     1       5.659   4.693  18.003  0.00  0.00    +0.000 A 
ATOM     31  N   UNL     1       6.930   4.465  18.258  0.00  0.00    +0.000 NA
ATOM     32  N   UNL     1       7.717   4.623  17.134  0.00  0.00    +0.000 NA
ATOM     33  C   UNL     1       7.024   4.973  16.073  0.00  0.00    +0.000 A 
ATOM     34  N   UNL     1       7.545   5.197  14.857  0.00  0.00    +0.000 N 
ATOM     35  S   UNL     1       5.335   5.106  16.369  0.00  0.00    +0.000 S 
ATOM     36  H   UNL     1       8.484   4.842  14.700  0.00  0.00    +0.000 HD
ATOM     37  H   UNL     1       6.933   5.139  14.050  0.00  0.00    +0.000 HD
ENDBRANCH  29  30
ENDBRANCH  28  29
ENDBRANCH  26  28
ENDBRANCH  25  26
ENDBRANCH   4  25
TORSDOF 8
ENDMDL
MODEL 9
REMARK VINA RESULT:      -8.1      0.527      1.035
REMARK  Name = 
REMARK  9 active torsions:
REMARK  status: ('A' for Active; 'I' for Inactive)
REMARK    1  A    between atoms: C_1  and  S_2
REMARK    2  A    between atoms: S_2  and  C_3
REMARK    3  A    between atoms: C_8  and  C_9
REMARK    4  A    between atoms: C_15  and  C_16
REMARK    5  A    between atoms: C_19  and  C_20
REMARK    6  A    between atoms: C_20  and  N_21
REMARK    7  A    between atoms: N_21  and  C_22
REMARK    8  A    between atoms: C_22  and  C_23
REMARK    9  A    between atoms: C_23  and  C_24
REMARK                            x       y       z     vdW  Elec       q    Type
REMARK                         _______ _______ _______ _____ _____    ______ ____
ROOT
ATOM      1  C   UNL     1       1.205  10.525  19.196  0.00  0.00    +0.000 A 
ATOM      2  C   UNL     1       1.865   9.876  18.144  0.00  0.00    +0.000 A 
ATOM      3  C   UNL     1       2.167   8.516  18.199  0.00  0.00    +0.000 A 
ATOM      4  C   UNL     1       1.924   7.780  19.363  0.00  0.00    +0.000 A 
ATOM      5  C   UNL     1       1.301   8.413  20.442  0.00  0.00    +0.000 A 
ATOM      6  C   UNL     1       0.936   9.763  20.351  0.00  0.00    +0.000 A 
ENDROOT
BRANCH   1  13
ATOM      7  C   UNL     1       2.733  16.121  19.861  0.00  0.00    +0.000 A 
ATOM      8  N   UNL     1       1.757  16.795  19.244  0.00  0.00    +0.000 NA
ATOM      9  C   UNL     1       0.745  16.055  18.769  0.00  0.00    +0.000 A 
ATOM     10  C   UNL     1       0.685  14.679  18.886  0.00  0.00    +0.000 A 
ATOM     11  C   UNL     1      -0.398  13.886  18.460  0.00  0.00    +0.000 A 
ATOM     12  C   UNL     1      -0.367  12.489  18.602  0.00  0.00    +0.000 A 
ATOM     13  C   UNL     1       0.835  11.967  19.128  0.00  0.00    +0.000 A 
ATOM     14  N   UNL     1       1.848  12.763  19.588  0.00  0.00    +0.000 NA
ATOM     15  C   UNL     1       1.779  14.085  19.489  0.00  0.00    +0.000 A 
ATOM     16  N   UNL     1       2.786  14.790  19.974  0.00  0.00    +0.000 NA
BRANCH  12  17
ATOM     17  C   UNL     1      -1.551  11.677  18.196  0.00  0.00    +0.000 A 
ATOM     18  C   UNL     1      -1.423  10.570  17.337  0.00  0.00    +0.000 A 
ATOM     19  C   UNL     1      -2.508   9.733  17.053  0.00  0.00    +0.000 A 
ATOM     20  C   UNL     1      -3.744   9.966  17.646  0.00  0.00    +0.000 A 
ATOM     21  C   UNL     1      -3.912  11.074  18.466  0.00  0.00    +0.000 A 
ATOM     22  C   UNL     1      -2.842  11.946  18.692  0.00  0.00    +0.000 A 
ENDBRANCH  12  17
BRANCH   7  24
ATOM     23  C   UNL     1       4.245  16.194  22.159  0.00  0.00    +0.000 C 
ATOM     24  S   UNL     1       4.029  17.090  20.600  0.00  0.00    +0.000 S 
ENDBRANCH   7  24
ENDBRANCH   1  13
BRANCH   4  25
ATOM     25  C   UNL     1       2.402   6.351  19.447  0.00  0.00    +0.000 C 
BRANCH  25  26
ATOM     26  N   UNL     1       2.338   5.750  18.114  0.00  0.00    +0.000 NA
ATOM     27  H   UNL     1       3.270   5.792  17.700  0.00  0.00    +0.000 HD
BRANCH  26  28
ATOM     28  C   UNL     1       1.864   4.366  18.152  0.00  0.00    +0.000 C 
BRANCH  28  29
ATOM     29  C   UNL     1       2.785   3.489  17.297  0.00  0.00    +0.000 C 
BRANCH  29  30
ATOM     30  C   UNL     1       4.219   3.805  17.553  0.00  0.00    +0.000 A 
ATOM     31  N   UNL     1       4.765   3.883  18.748  0.00  0.00    +0.000 NA
ATOM     32  N   UNL     1       6.103   4.218  18.681  0.00  0.00    +0.000 NA
ATOM     33  C   UNL     1       6.523   4.393  17.448  0.00  0.00    +0.000 A 
ATOM     34  N   UNL     1       7.776   4.730  17.106  0.00  0.00    +0.000 N 
ATOM     35  S   UNL     1       5.306   4.127  16.264  0.00  0.00    +0.000 S 
ATOM     36  H   UNL     1       8.485   4.606  17.823  0.00  0.00    +0.000 HD
ATOM     37  H   UNL     1       8.091   4.529  16.163  0.00  0.00    +0.000 HD
ENDBRANCH  29  30
ENDBRANCH  28  29
ENDBRANCH  26  28
ENDBRANCH  25  26
ENDBRANCH   4  25
TORSDOF 8
ENDMDL
