MODEL 1
REMARK VINA RESULT:      -9.2      0.000      0.000
REMARK  Name = 
REMARK  9 active torsions:
REMARK  status: ('A' for Active; 'I' for Inactive)
REMARK    1  A    between atoms: C_1  and  C_2
REMARK    2  A    between atoms: C_4  and  C_5
REMARK    3  A    between atoms: C_5  and  N_6
REMARK    4  A    between atoms: C_9  and  N_10
REMARK    5  A    between atoms: C_11  and  C_13
REMARK    6  A    between atoms: C_13  and  O_14
REMARK    7  A    between atoms: O_14  and  C_15
REMARK    8  A    between atoms: C_24  and  C_25
REMARK    9  A    between atoms: N_26  and  C_27
REMARK                            x       y       z     vdW  Elec       q    Type
REMARK                         _______ _______ _______ _____ _____    ______ ____
ROOT
ATOM      1  N   UNL     1       1.631   5.340  19.353  0.00  0.00    +0.000 NA
ATOM      2  C   UNL     1       1.971   4.699  18.085  0.00  0.00    +0.000 C 
ATOM      3  C   UNL     1       1.138   3.467  17.785  0.00  0.00    +0.000 C 
ATOM      4  C   UNL     1       1.194   2.451  18.918  0.00  0.00    +0.000 C 
ATOM      5  C   UNL     1       0.714   3.103  20.215  0.00  0.00    +0.000 C 
ATOM      6  C   UNL     1       1.226   4.522  20.494  0.00  0.00    +0.000 C 
ENDROOT
BRANCH   4   7
ATOM      7  N   UNL     1       2.431   1.653  18.915  0.00  0.00    +0.000 N 
ATOM      8  C   UNL     1       3.747   1.935  19.123  0.00  0.00    +0.000 C 
ATOM      9  O   UNL     1       4.591   1.081  18.854  0.00  0.00    +0.000 OA
ATOM     10  H   UNL     1       2.339   0.718  18.526  0.00  0.00    +0.000 HD
BRANCH   8  11
ATOM     11  C   UNL     1       4.148   3.267  19.696  0.00  0.00    +0.000 C 
BRANCH  11  12
ATOM     12  O   UNL     1       5.509   3.533  19.382  0.00  0.00    +0.000 OA
BRANCH  12  13
ATOM     13  C   UNL     1       5.733   4.430  18.391  0.00  0.00    +0.000 A 
ATOM     14  C   UNL     1       5.160   4.304  17.130  0.00  0.00    +0.000 A 
ATOM     15  C   UNL     1       5.392   5.284  16.161  0.00  0.00    +0.000 A 
ATOM     16  C   UNL     1       6.242   6.345  16.452  0.00  0.00    +0.000 A 
ATOM     17  C   UNL     1       6.858   6.436  17.698  0.00  0.00    +0.000 A 
ATOM     18 CL   UNL     1       7.931   7.741  18.022  0.00  0.00    +0.000 Cl
ATOM     19  C   UNL     1       6.610   5.478  18.676  0.00  0.00    +0.000 A 
ENDBRANCH  12  13
ENDBRANCH  11  12
ENDBRANCH   8  11
ENDBRANCH   4   7
BRANCH   1  20
ATOM     20  C   UNL     1       2.612   6.372  19.743  0.00  0.00    +0.000 C 
BRANCH  20  24
ATOM     21  C   UNL     1       0.110  10.043  22.245  0.00  0.00    +0.000 C 
ATOM     22  C   UNL     1       0.840   9.298  21.177  0.00  0.00    +0.000 A 
ATOM     23  C   UNL     1       1.429   8.056  21.317  0.00  0.00    +0.000 A 
ATOM     24  C   UNL     1       1.898   7.644  20.052  0.00  0.00    +0.000 A 
ATOM     25  C   UNL     1       1.601   8.659  19.153  0.00  0.00    +0.000 A 
ATOM     26  C   UNL     1       2.022   8.712  17.714  0.00  0.00    +0.000 C 
ATOM     27  N   UNL     1       0.964   9.698  19.840  0.00  0.00    +0.000 N 
BRANCH  27  28
ATOM     28  C   UNL     1       0.568  10.950  19.274  0.00  0.00    +0.000 A 
ATOM     29  C   UNL     1       1.438  12.049  19.297  0.00  0.00    +0.000 A 
ATOM     30  C   UNL     1       1.020  13.304  18.856  0.00  0.00    +0.000 A 
ATOM     31  C   UNL     1      -0.255  13.462  18.328  0.00  0.00    +0.000 A 
ATOM     32  C   UNL     1      -1.115  12.370  18.254  0.00  0.00    +0.000 A 
ATOM     33  C   UNL     1      -0.713  11.124  18.741  0.00  0.00    +0.000 A 
ENDBRANCH  27  28
ENDBRANCH  20  24
ENDBRANCH   1  20
TORSDOF 7
ENDMDL
MODEL 2
REMARK VINA RESULT:      -9.2      1.460      1.762
REMARK  Name = 
REMARK  9 active torsions:
REMARK  status: ('A' for Active; 'I' for Inactive)
REMARK    1  A    between atoms: C_1  and  C_2
REMARK    2  A    between atoms: C_4  and  C_5
REMARK    3  A    between atoms: C_5  and  N_6
REMARK    4  A    between atoms: C_9  and  N_10
REMARK    5  A    between atoms: C_11  and  C_13
REMARK    6  A    between atoms: C_13  and  O_14
REMARK    7  A    between atoms: O_14  and  C_15
REMARK    8  A    between atoms: C_24  and  C_25
REMARK    9  A    between atoms: N_26  and  C_27
REMARK                            x       y       z     vdW  Elec       q    Type
REMARK                         _______ _______ _______ _____ _____    ______ ____
ROOT
ATOM      1  N   UNL     1       1.780   5.245  20.379  0.00  0.00    +0.000 NA
ATOM      2  C   UNL     1       1.024   4.530  19.355  0.00  0.00    +0.000 C 
ATOM      3  C   UNL     1       0.440   3.215  19.837  0.00  0.00    +0.000 C 
ATOM      4  C   UNL     1       1.502   2.304  20.436  0.00  0.00    +0.000 C 
ATOM      5  C   UNL     1       2.201   3.022  21.592  0.00  0.00    +0.000 C 
ATOM      6  C   UNL     1       2.562   4.495  21.361  0.00  0.00    +0.000 C 
ENDROOT
BRANCH   4   7
ATOM      7  N   UNL     1       2.305   1.608  19.417  0.00  0.00    +0.000 N 
ATOM      8  C   UNL     1       3.468   1.888  18.766  0.00  0.00    +0.000 C 
ATOM      9  O   UNL     1       3.796   1.194  17.804  0.00  0.00    +0.000 OA
ATOM     10  H   UNL     1       1.843   0.822  18.968  0.00  0.00    +0.000 HD
BRANCH   8  11
ATOM     11  C   UNL     1       4.342   3.018  19.241  0.00  0.00    +0.000 C 
BRANCH  11  12
ATOM     12  O   UNL     1       4.240   4.113  18.338  0.00  0.00    +0.000 OA
BRANCH  12  13
ATOM     13  C   UNL     1       5.282   4.292  17.491  0.00  0.00    +0.000 A 
ATOM     14  C   UNL     1       6.523   4.748  17.923  0.00  0.00    +0.000 A 
ATOM     15  C   UNL     1       7.574   4.871  17.011  0.00  0.00    +0.000 A 
ATOM     16  C   UNL     1       7.349   4.591  15.668  0.00  0.00    +0.000 A 
ATOM     17  C   UNL     1       6.089   4.189  15.231  0.00  0.00    +0.000 A 
ATOM     18 CL   UNL     1       5.828   3.880  13.559  0.00  0.00    +0.000 Cl
ATOM     19  C   UNL     1       5.045   4.038  16.139  0.00  0.00    +0.000 A 
ENDBRANCH  12  13
ENDBRANCH  11  12
ENDBRANCH   8  11
ENDBRANCH   4   7
BRANCH   1  20
ATOM     20  C   UNL     1       2.546   6.379  19.826  0.00  0.00    +0.000 C 
BRANCH  20  24
ATOM     21  C   UNL     1      -0.011  10.062  22.254  0.00  0.00    +0.000 C 
ATOM     22  C   UNL     1       0.742   9.312  21.206  0.00  0.00    +0.000 A 
ATOM     23  C   UNL     1       1.329   8.071  21.365  0.00  0.00    +0.000 A 
ATOM     24  C   UNL     1       1.824   7.653  20.113  0.00  0.00    +0.000 A 
ATOM     25  C   UNL     1       1.545   8.661  19.201  0.00  0.00    +0.000 A 
ATOM     26  C   UNL     1       1.996   8.707  17.772  0.00  0.00    +0.000 C 
ATOM     27  N   UNL     1       0.893   9.704  19.869  0.00  0.00    +0.000 N 
BRANCH  27  28
ATOM     28  C   UNL     1       0.507  10.952  19.288  0.00  0.00    +0.000 A 
ATOM     29  C   UNL     1       1.393  12.039  19.282  0.00  0.00    +0.000 A 
ATOM     30  C   UNL     1       0.987  13.293  18.826  0.00  0.00    +0.000 A 
ATOM     31  C   UNL     1      -0.293  13.460  18.311  0.00  0.00    +0.000 A 
ATOM     32  C   UNL     1      -1.168  12.379  18.266  0.00  0.00    +0.000 A 
ATOM     33  C   UNL     1      -0.778  11.135  18.768  0.00  0.00    +0.000 A 
ENDBRANCH  27  28
ENDBRANCH  20  24
ENDBRANCH   1  20
TORSDOF 7
ENDMDL
MODEL 3
REMARK VINA RESULT:      -9.1      1.330      1.715
REMARK  Name = 
REMARK  9 active torsions:
REMARK  status: ('A' for Active; 'I' for Inactive)
REMARK    1  A    between atoms: C_1  and  C_2
REMARK    2  A    between atoms: C_4  and  C_5
REMARK    3  A    between atoms: C_5  and  N_6
REMARK    4  A    between atoms: C_9  and  N_10
REMARK    5  A    between atoms: C_11  and  C_13
REMARK    6  A    between atoms: C_13  and  O_14
REMARK    7  A    between atoms: O_14  and  C_15
REMARK    8  A    between atoms: C_24  and  C_25
REMARK    9  A    between atoms: N_26  and  C_27
REMARK                            x       y       z     vdW  Elec       q    Type
REMARK                         _______ _______ _______ _____ _____    ______ ____
ROOT
ATOM      1  N   UNL     1       1.658   5.194  20.088  0.00  0.00    +0.000 NA
ATOM      2  C   UNL     1       1.256   4.554  18.838  0.00  0.00    +0.000 C 
ATOM      3  C   UNL     1       0.564   3.219  19.035  0.00  0.00    +0.000 C 
ATOM      4  C   UNL     1       1.402   2.259  19.869  0.00  0.00    +0.000 C 
ATOM      5  C   UNL     1       1.710   2.894  21.226  0.00  0.00    +0.000 C 
ATOM      6  C   UNL     1       2.111   4.375  21.210  0.00  0.00    +0.000 C 
ENDROOT
BRANCH   4   7
ATOM      7  N   UNL     1       2.482   1.621  19.100  0.00  0.00    +0.000 N 
ATOM      8  C   UNL     1       3.729   2.005  18.709  0.00  0.00    +0.000 C 
ATOM      9  O   UNL     1       4.337   1.318  17.889  0.00  0.00    +0.000 OA
ATOM     10  H   UNL     1       2.217   0.772  18.608  0.00  0.00    +0.000 HD
BRANCH   8  11
ATOM     11  C   UNL     1       4.352   3.243  19.297  0.00  0.00    +0.000 C 
BRANCH  11  12
ATOM     12  O   UNL     1       5.565   3.538  18.614  0.00  0.00    +0.000 OA
BRANCH  12  13
ATOM     13  C   UNL     1       5.468   4.378  17.555  0.00  0.00    +0.000 A 
ATOM     14  C   UNL     1       4.935   5.658  17.666  0.00  0.00    +0.000 A 
ATOM     15  C   UNL     1       4.901   6.495  16.548  0.00  0.00    +0.000 A 
ATOM     16  C   UNL     1       5.348   6.016  15.321  0.00  0.00    +0.000 A 
ATOM     17  C   UNL     1       5.827   4.714  15.203  0.00  0.00    +0.000 A 
ATOM     18 CL   UNL     1       6.343   4.133  13.668  0.00  0.00    +0.000 Cl
ATOM     19  C   UNL     1       5.889   3.884  16.319  0.00  0.00    +0.000 A 
ENDBRANCH  12  13
ENDBRANCH  11  12
ENDBRANCH   8  11
ENDBRANCH   4   7
BRANCH   1  20
ATOM     20  C   UNL     1       2.545   6.353  19.867  0.00  0.00    +0.000 C 
BRANCH  20  24
ATOM     21  C   UNL     1       0.002   9.962  22.417  0.00  0.00    +0.000 C 
ATOM     22  C   UNL     1       0.735   9.237  21.338  0.00  0.00    +0.000 A 
ATOM     23  C   UNL     1       1.347   8.005  21.464  0.00  0.00    +0.000 A 
ATOM     24  C   UNL     1       1.811   7.610  20.192  0.00  0.00    +0.000 A 
ATOM     25  C   UNL     1       1.487   8.624  19.302  0.00  0.00    +0.000 A 
ATOM     26  C   UNL     1       1.893   8.695  17.860  0.00  0.00    +0.000 C 
ATOM     27  N   UNL     1       0.838   9.648  20.002  0.00  0.00    +0.000 N 
BRANCH  27  28
ATOM     28  C   UNL     1       0.413  10.895  19.448  0.00  0.00    +0.000 A 
ATOM     29  C   UNL     1      -0.864  11.025  18.882  0.00  0.00    +0.000 A 
ATOM     30  C   UNL     1      -1.245  12.199  18.233  0.00  0.00    +0.000 A 
ATOM     31  C   UNL     1      -0.376  13.282  18.196  0.00  0.00    +0.000 A 
ATOM     32  C   UNL     1       0.877  13.185  18.795  0.00  0.00    +0.000 A 
ATOM     33  C   UNL     1       1.278  11.993  19.402  0.00  0.00    +0.000 A 
ENDBRANCH  27  28
ENDBRANCH  20  24
ENDBRANCH   1  20
TORSDOF 7
ENDMDL
MODEL 4
REMARK VINA RESULT:      -9.1      0.830      1.193
REMARK  Name = 
REMARK  9 active torsions:
REMARK  status: ('A' for Active; 'I' for Inactive)
REMARK    1  A    between atoms: C_1  and  C_2
REMARK    2  A    between atoms: C_4  and  C_5
REMARK    3  A    between atoms: C_5  and  N_6
REMARK    4  A    between atoms: C_9  and  N_10
REMARK    5  A    between atoms: C_11  and  C_13
REMARK    6  A    between atoms: C_13  and  O_14
REMARK    7  A    between atoms: O_14  and  C_15
REMARK    8  A    between atoms: C_24  and  C_25
REMARK    9  A    between atoms: N_26  and  C_27
REMARK                            x       y       z     vdW  Elec       q    Type
REMARK                         _______ _______ _______ _____ _____    ______ ____
ROOT
ATOM      1  N   UNL     1       1.593   5.337  19.613  0.00  0.00    +0.000 NA
ATOM      2  C   UNL     1       1.604   4.700  18.299  0.00  0.00    +0.000 C 
ATOM      3  C   UNL     1       0.799   3.415  18.241  0.00  0.00    +0.000 C 
ATOM      4  C   UNL     1       1.232   2.421  19.309  0.00  0.00    +0.000 C 
ATOM      5  C   UNL     1       1.094   3.061  20.691  0.00  0.00    +0.000 C 
ATOM      6  C   UNL     1       1.575   4.513  20.820  0.00  0.00    +0.000 C 
ENDROOT
BRANCH   4   7
ATOM      7  N   UNL     1       2.466   1.699  18.959  0.00  0.00    +0.000 N 
ATOM      8  C   UNL     1       3.782   2.043  18.881  0.00  0.00    +0.000 C 
ATOM      9  O   UNL     1       4.574   1.261  18.357  0.00  0.00    +0.000 OA
ATOM     10  H   UNL     1       2.325   0.790  18.527  0.00  0.00    +0.000 HD
BRANCH   8  11
ATOM     11  C   UNL     1       4.250   3.354  19.452  0.00  0.00    +0.000 C 
BRANCH  11  12
ATOM     12  O   UNL     1       5.656   3.476  19.281  0.00  0.00    +0.000 OA
BRANCH  12  13
ATOM     13  C   UNL     1       6.092   4.612  18.682  0.00  0.00    +0.000 A 
ATOM     14  C   UNL     1       7.180   5.334  19.159  0.00  0.00    +0.000 A 
ATOM     15  C   UNL     1       7.611   6.474  18.475  0.00  0.00    +0.000 A 
ATOM     16  C   UNL     1       6.908   6.905  17.356  0.00  0.00    +0.000 A 
ATOM     17  C   UNL     1       5.784   6.211  16.916  0.00  0.00    +0.000 A 
ATOM     18 CL   UNL     1       4.911   6.784  15.548  0.00  0.00    +0.000 Cl
ATOM     19  C   UNL     1       5.366   5.059  17.577  0.00  0.00    +0.000 A 
ENDBRANCH  12  13
ENDBRANCH  11  12
ENDBRANCH   8  11
ENDBRANCH   4   7
BRANCH   1  20
ATOM     20  C   UNL     1       2.578   6.432  19.716  0.00  0.00    +0.000 C 
BRANCH  20  24
ATOM     21  C   UNL     1       0.085  10.100  22.232  0.00  0.00    +0.000 C 
ATOM     22  C   UNL     1       0.818   9.359  21.164  0.00  0.00    +0.000 A 
ATOM     23  C   UNL     1       1.395   8.111  21.297  0.00  0.00    +0.000 A 
ATOM     24  C   UNL     1       1.872   7.708  20.032  0.00  0.00    +0.000 A 
ATOM     25  C   UNL     1       1.591   8.733  19.140  0.00  0.00    +0.000 A 
ATOM     26  C   UNL     1       2.025   8.797  17.706  0.00  0.00    +0.000 C 
ATOM     27  N   UNL     1       0.956   9.771  19.832  0.00  0.00    +0.000 N 
BRANCH  27  28
ATOM     28  C   UNL     1       0.575  11.031  19.274  0.00  0.00    +0.000 A 
ATOM     29  C   UNL     1       1.451  12.126  19.324  0.00  0.00    +0.000 A 
ATOM     30  C   UNL     1       1.046  13.388  18.891  0.00  0.00    +0.000 A 
ATOM     31  C   UNL     1      -0.220  13.559  18.346  0.00  0.00    +0.000 A 
ATOM     32  C   UNL     1      -1.084  12.472  18.246  0.00  0.00    +0.000 A 
ATOM     33  C   UNL     1      -0.696  11.218  18.725  0.00  0.00    +0.000 A 
ENDBRANCH  27  28
ENDBRANCH  20  24
ENDBRANCH   1  20
TORSDOF 7
ENDMDL
MODEL 5
REMARK VINA RESULT:      -8.8      0.955      1.548
REMARK  Name = 
REMARK  9 active torsions:
REMARK  status: ('A' for Active; 'I' for Inactive)
REMARK    1  A    between atoms: C_1  and  C_2
REMARK    2  A    between atoms: C_4  and  C_5
REMARK    3  A    between atoms: C_5  and  N_6
REMARK    4  A    between atoms: C_9  and  N_10
REMARK    5  A    between atoms: C_11  and  C_13
REMARK    6  A    between atoms: C_13  and  O_14
REMARK    7  A    between atoms: O_14  and  C_15
REMARK    8  A    between atoms: C_24  and  C_25
REMARK    9  A    between atoms: N_26  and  C_27
REMARK                            x       y       z     vdW  Elec       q    Type
REMARK                         _______ _______ _______ _____ _____    ______ ____
ROOT
ATOM      1  N   UNL     1       1.875   5.466  19.419  0.00  0.00    +0.000 NA
ATOM      2  C   UNL     1       2.386   4.589  18.370  0.00  0.00    +0.000 C 
ATOM      3  C   UNL     1       1.669   3.254  18.293  0.00  0.00    +0.000 C 
ATOM      4  C   UNL     1       1.669   2.527  19.630  0.00  0.00    +0.000 C 
ATOM      5  C   UNL     1       1.015   3.411  20.694  0.00  0.00    +0.000 C 
ATOM      6  C   UNL     1       1.404   4.895  20.679  0.00  0.00    +0.000 C 
ENDROOT
BRANCH   4   7
ATOM      7  N   UNL     1       2.947   1.858  19.922  0.00  0.00    +0.000 N 
ATOM      8  C   UNL     1       4.256   2.221  19.828  0.00  0.00    +0.000 C 
ATOM      9  O   UNL     1       5.126   1.361  19.959  0.00  0.00    +0.000 OA
ATOM     10  H   UNL     1       2.881   0.856  20.082  0.00  0.00    +0.000 HD
BRANCH   8  11
ATOM     11  C   UNL     1       4.620   3.662  19.589  0.00  0.00    +0.000 C 
BRANCH  11  12
ATOM     12  O   UNL     1       5.962   3.746  19.125  0.00  0.00    +0.000 OA
BRANCH  12  13
ATOM     13  C   UNL     1       6.320   4.910  18.531  0.00  0.00    +0.000 A 
ATOM     14  C   UNL     1       7.381   5.684  18.988  0.00  0.00    +0.000 A 
ATOM     15  C   UNL     1       7.731   6.853  18.308  0.00  0.00    +0.000 A 
ATOM     16  C   UNL     1       6.975   7.260  17.214  0.00  0.00    +0.000 A 
ATOM     17  C   UNL     1       5.878   6.512  16.795  0.00  0.00    +0.000 A 
ATOM     18 CL   UNL     1       4.939   7.054  15.460  0.00  0.00    +0.000 Cl
ATOM     19  C   UNL     1       5.541   5.332  17.452  0.00  0.00    +0.000 A 
ENDBRANCH  12  13
ENDBRANCH  11  12
ENDBRANCH   8  11
ENDBRANCH   4   7
BRANCH   1  20
ATOM     20  C   UNL     1       2.742   6.640  19.644  0.00  0.00    +0.000 C 
BRANCH  20  24
ATOM     21  C   UNL     1      -0.198   9.868  22.276  0.00  0.00    +0.000 C 
ATOM     22  C   UNL     1       0.647   9.277  21.197  0.00  0.00    +0.000 A 
ATOM     23  C   UNL     1       1.338   8.084  21.274  0.00  0.00    +0.000 A 
ATOM     24  C   UNL     1       1.902   7.817  20.009  0.00  0.00    +0.000 A 
ATOM     25  C   UNL     1       1.557   8.870  19.174  0.00  0.00    +0.000 A 
ATOM     26  C   UNL     1       2.039   9.075  17.769  0.00  0.00    +0.000 C 
ATOM     27  N   UNL     1       0.796   9.792  19.902  0.00  0.00    +0.000 N 
BRANCH  27  28
ATOM     28  C   UNL     1       0.315  11.045  19.411  0.00  0.00    +0.000 A 
ATOM     29  C   UNL     1      -0.896  11.117  18.708  0.00  0.00    +0.000 A 
ATOM     30  C   UNL     1      -1.316  12.311  18.122  0.00  0.00    +0.000 A 
ATOM     31  C   UNL     1      -0.559  13.465  18.286  0.00  0.00    +0.000 A 
ATOM     32  C   UNL     1       0.621  13.421  19.023  0.00  0.00    +0.000 A 
ATOM     33  C   UNL     1       1.067  12.214  19.567  0.00  0.00    +0.000 A 
ENDBRANCH  27  28
ENDBRANCH  20  24
ENDBRANCH   1  20
TORSDOF 7
ENDMDL
MODEL 6
REMARK VINA RESULT:      -8.7      0.904      1.368
REMARK  Name = 
REMARK  9 active torsions:
REMARK  status: ('A' for Active; 'I' for Inactive)
REMARK    1  A    between atoms: C_1  and  C_2
REMARK    2  A    between atoms: C_4  and  C_5
REMARK    3  A    between atoms: C_5  and  N_6
REMARK    4  A    between atoms: C_9  and  N_10
REMARK    5  A    between atoms: C_11  and  C_13
REMARK    6  A    between atoms: C_13  and  O_14
REMARK    7  A    between atoms: O_14  and  C_15
REMARK    8  A    between atoms: C_24  and  C_25
REMARK    9  A    between atoms: N_26  and  C_27
REMARK                            x       y       z     vdW  Elec       q    Type
REMARK                         _______ _______ _______ _____ _____    ______ ____
ROOT
ATOM      1  N   UNL     1       1.762   5.188  20.373  0.00  0.00    +0.000 NA
ATOM      2  C   UNL     1       1.020   4.442  19.360  0.00  0.00    +0.000 C 
ATOM      3  C   UNL     1       0.471   3.119  19.860  0.00  0.00    +0.000 C 
ATOM      4  C   UNL     1       1.558   2.242  20.466  0.00  0.00    +0.000 C 
ATOM      5  C   UNL     1       2.243   2.991  21.611  0.00  0.00    +0.000 C 
ATOM      6  C   UNL     1       2.565   4.470  21.360  0.00  0.00    +0.000 C 
ENDROOT
BRANCH   4   7
ATOM      7  N   UNL     1       2.374   1.554  19.452  0.00  0.00    +0.000 N 
ATOM      8  C   UNL     1       3.421   1.922  18.662  0.00  0.00    +0.000 C 
ATOM      9  O   UNL     1       3.775   1.173  17.752  0.00  0.00    +0.000 OA
ATOM     10  H   UNL     1       2.006   0.660  19.137  0.00  0.00    +0.000 HD
BRANCH   8  11
ATOM     11  C   UNL     1       4.142   3.217  18.925  0.00  0.00    +0.000 C 
BRANCH  11  12
ATOM     12  O   UNL     1       3.925   4.113  17.842  0.00  0.00    +0.000 OA
BRANCH  12  13
ATOM     13  C   UNL     1       5.007   4.807  17.411  0.00  0.00    +0.000 A 
ATOM     14  C   UNL     1       5.219   5.097  16.068  0.00  0.00    +0.000 A 
ATOM     15  C   UNL     1       6.330   5.854  15.688  0.00  0.00    +0.000 A 
ATOM     16  C   UNL     1       7.244   6.259  16.654  0.00  0.00    +0.000 A 
ATOM     17  C   UNL     1       7.057   5.917  17.991  0.00  0.00    +0.000 A 
ATOM     18 CL   UNL     1       8.219   6.401  19.163  0.00  0.00    +0.000 Cl
ATOM     19  C   UNL     1       5.938   5.186  18.380  0.00  0.00    +0.000 A 
ENDBRANCH  12  13
ENDBRANCH  11  12
ENDBRANCH   8  11
ENDBRANCH   4   7
BRANCH   1  20
ATOM     20  C   UNL     1       2.496   6.335  19.803  0.00  0.00    +0.000 C 
BRANCH  20  24
ATOM     21  C   UNL     1      -0.013   9.939  22.393  0.00  0.00    +0.000 C 
ATOM     22  C   UNL     1       0.724   9.223  21.310  0.00  0.00    +0.000 A 
ATOM     23  C   UNL     1       1.306   7.975  21.417  0.00  0.00    +0.000 A 
ATOM     24  C   UNL     1       1.785   7.600  20.144  0.00  0.00    +0.000 A 
ATOM     25  C   UNL     1       1.501   8.643  19.274  0.00  0.00    +0.000 A 
ATOM     26  C   UNL     1       1.936   8.739  17.842  0.00  0.00    +0.000 C 
ATOM     27  N   UNL     1       0.862   9.664  19.987  0.00  0.00    +0.000 N 
BRANCH  27  28
ATOM     28  C   UNL     1       0.476  10.934  19.456  0.00  0.00    +0.000 A 
ATOM     29  C   UNL     1      -0.790  11.109  18.877  0.00  0.00    +0.000 A 
ATOM     30  C   UNL     1      -1.132  12.307  18.251  0.00  0.00    +0.000 A 
ATOM     31  C   UNL     1      -0.235  13.367  18.249  0.00  0.00    +0.000 A 
ATOM     32  C   UNL     1       1.007  13.225  18.860  0.00  0.00    +0.000 A 
ATOM     33  C   UNL     1       1.369  12.009  19.444  0.00  0.00    +0.000 A 
ENDBRANCH  27  28
ENDBRANCH  20  24
ENDBRANCH   1  20
TORSDOF 7
ENDMDL
MODEL 7
REMARK VINA RESULT:      -8.5      1.201      1.478
REMARK  Name = 
REMARK  9 active torsions:
REMARK  status: ('A' for Active; 'I' for Inactive)
REMARK    1  A    between atoms: C_1  and  C_2
REMARK    2  A    between atoms: C_4  and  C_5
REMARK    3  A    between atoms: C_5  and  N_6
REMARK    4  A    between atoms: C_9  and  N_10
REMARK    5  A    between atoms: C_11  and  C_13
REMARK    6  A    between atoms: C_13  and  O_14
REMARK    7  A    between atoms: O_14  and  C_15
REMARK    8  A    between atoms: C_24  and  C_25
REMARK    9  A    between atoms: N_26  and  C_27
REMARK                            x       y       z     vdW  Elec       q    Type
REMARK                         _______ _______ _______ _____ _____    ______ ____
ROOT
ATOM      1  N   UNL     1       2.294   5.268  20.450  0.00  0.00    +0.000 NA
ATOM      2  C   UNL     1       1.053   4.810  19.833  0.00  0.00    +0.000 C 
ATOM      3  C   UNL     1       0.587   3.457  20.338  0.00  0.00    +0.000 C 
ATOM      4  C   UNL     1       1.666   2.393  20.198  0.00  0.00    +0.000 C 
ATOM      5  C   UNL     1       2.920   2.831  20.957  0.00  0.00    +0.000 C 
ATOM      6  C   UNL     1       3.332   4.301  20.800  0.00  0.00    +0.000 C 
ENDROOT
BRANCH   4   7
ATOM      7  N   UNL     1       1.787   1.872  18.827  0.00  0.00    +0.000 N 
ATOM      8  C   UNL     1       2.640   2.106  17.791  0.00  0.00    +0.000 C 
ATOM      9  O   UNL     1       2.366   1.658  16.678  0.00  0.00    +0.000 OA
ATOM     10  H   UNL     1       0.988   1.338  18.497  0.00  0.00    +0.000 HD
BRANCH   8  11
ATOM     11  C   UNL     1       3.908   2.883  18.023  0.00  0.00    +0.000 C 
BRANCH  11  12
ATOM     12  O   UNL     1       4.199   3.676  16.879  0.00  0.00    +0.000 OA
BRANCH  12  13
ATOM     13  C   UNL     1       4.987   4.759  17.084  0.00  0.00    +0.000 A 
ATOM     14  C   UNL     1       4.862   5.924  16.336  0.00  0.00    +0.000 A 
ATOM     15  C   UNL     1       5.673   7.025  16.622  0.00  0.00    +0.000 A 
ATOM     16  C   UNL     1       6.639   6.922  17.617  0.00  0.00    +0.000 A 
ATOM     17  C   UNL     1       6.799   5.734  18.326  0.00  0.00    +0.000 A 
ATOM     18 CL   UNL     1       8.023   5.619  19.530  0.00  0.00    +0.000 Cl
ATOM     19  C   UNL     1       5.975   4.642  18.063  0.00  0.00    +0.000 A 
ENDBRANCH  12  13
ENDBRANCH  11  12
ENDBRANCH   8  11
ENDBRANCH   4   7
BRANCH   1  20
ATOM     20  C   UNL     1       2.859   6.450  19.768  0.00  0.00    +0.000 C 
BRANCH  20  24
ATOM     21  C   UNL     1      -0.173   9.804  22.123  0.00  0.00    +0.000 C 
ATOM     22  C   UNL     1       0.702   9.156  21.104  0.00  0.00    +0.000 A 
ATOM     23  C   UNL     1       1.402   7.977  21.271  0.00  0.00    +0.000 A 
ATOM     24  C   UNL     1       2.000   7.638  20.039  0.00  0.00    +0.000 A 
ATOM     25  C   UNL     1       1.666   8.634  19.132  0.00  0.00    +0.000 A 
ATOM     26  C   UNL     1       2.181   8.756  17.729  0.00  0.00    +0.000 C 
ATOM     27  N   UNL     1       0.879   9.591  19.783  0.00  0.00    +0.000 N 
BRANCH  27  28
ATOM     28  C   UNL     1       0.399  10.807  19.204  0.00  0.00    +0.000 A 
ATOM     29  C   UNL     1       1.172  11.976  19.261  0.00  0.00    +0.000 A 
ATOM     30  C   UNL     1       0.665  13.193  18.806  0.00  0.00    +0.000 A 
ATOM     31  C   UNL     1      -0.599  13.244  18.231  0.00  0.00    +0.000 A 
ATOM     32  C   UNL     1      -1.359  12.083  18.124  0.00  0.00    +0.000 A 
ATOM     33  C   UNL     1      -0.871  10.874  18.624  0.00  0.00    +0.000 A 
ENDBRANCH  27  28
ENDBRANCH  20  24
ENDBRANCH   1  20
TORSDOF 7
ENDMDL
MODEL 8
REMARK VINA RESULT:      -8.4      1.216      1.470
REMARK  Name = 
REMARK  9 active torsions:
REMARK  status: ('A' for Active; 'I' for Inactive)
REMARK    1  A    between atoms: C_1  and  C_2
REMARK    2  A    between atoms: C_4  and  C_5
REMARK    3  A    between atoms: C_5  and  N_6
REMARK    4  A    between atoms: C_9  and  N_10
REMARK    5  A    between atoms: C_11  and  C_13
REMARK    6  A    between atoms: C_13  and  O_14
REMARK    7  A    between atoms: O_14  and  C_15
REMARK    8  A    between atoms: C_24  and  C_25
REMARK    9  A    between atoms: N_26  and  C_27
REMARK                            x       y       z     vdW  Elec       q    Type
REMARK                         _______ _______ _______ _____ _____    ______ ____
ROOT
ATOM      1  N   UNL     1       2.210   5.322  20.398  0.00  0.00    +0.000 NA
ATOM      2  C   UNL     1       0.967   4.800  19.835  0.00  0.00    +0.000 C 
ATOM      3  C   UNL     1       0.574   3.443  20.388  0.00  0.00    +0.000 C 
ATOM      4  C   UNL     1       1.689   2.419  20.234  0.00  0.00    +0.000 C 
ATOM      5  C   UNL     1       2.950   2.924  20.938  0.00  0.00    +0.000 C 
ATOM      6  C   UNL     1       3.297   4.405  20.733  0.00  0.00    +0.000 C 
ENDROOT
BRANCH   4   7
ATOM      7  N   UNL     1       1.784   1.871  18.871  0.00  0.00    +0.000 N 
ATOM      8  C   UNL     1       2.596   2.107  17.803  0.00  0.00    +0.000 C 
ATOM      9  O   UNL     1       2.301   1.624  16.710  0.00  0.00    +0.000 OA
ATOM     10  H   UNL     1       0.992   1.303  18.579  0.00  0.00    +0.000 HD
BRANCH   8  11
ATOM     11  C   UNL     1       3.844   2.930  17.976  0.00  0.00    +0.000 C 
BRANCH  11  12
ATOM     12  O   UNL     1       3.761   4.101  17.173  0.00  0.00    +0.000 OA
BRANCH  12  13
ATOM     13  C   UNL     1       4.920   4.531  16.618  0.00  0.00    +0.000 A 
ATOM     14  C   UNL     1       5.468   3.938  15.486  0.00  0.00    +0.000 A 
ATOM     15  C   UNL     1       6.643   4.453  14.932  0.00  0.00    +0.000 A 
ATOM     16  C   UNL     1       7.282   5.519  15.556  0.00  0.00    +0.000 A 
ATOM     17  C   UNL     1       6.760   6.072  16.722  0.00  0.00    +0.000 A 
ATOM     18 CL   UNL     1       7.587   7.368  17.493  0.00  0.00    +0.000 Cl
ATOM     19  C   UNL     1       5.575   5.581  17.263  0.00  0.00    +0.000 A 
ENDBRANCH  12  13
ENDBRANCH  11  12
ENDBRANCH   8  11
ENDBRANCH   4   7
BRANCH   1  20
ATOM     20  C   UNL     1       2.703   6.508  19.669  0.00  0.00    +0.000 C 
BRANCH  20  24
ATOM     21  C   UNL     1      -0.225   9.754  22.293  0.00  0.00    +0.000 C 
ATOM     22  C   UNL     1       0.628   9.162  21.221  0.00  0.00    +0.000 A 
ATOM     23  C   UNL     1       1.296   7.955  21.294  0.00  0.00    +0.000 A 
ATOM     24  C   UNL     1       1.878   7.695  20.036  0.00  0.00    +0.000 A 
ATOM     25  C   UNL     1       1.567   8.766  19.210  0.00  0.00    +0.000 A 
ATOM     26  C   UNL     1       2.078   8.981  17.816  0.00  0.00    +0.000 C 
ATOM     27  N   UNL     1       0.810   9.692  19.937  0.00  0.00    +0.000 N 
BRANCH  27  28
ATOM     28  C   UNL     1       0.361  10.960  19.455  0.00  0.00    +0.000 A 
ATOM     29  C   UNL     1       1.067  12.132  19.767  0.00  0.00    +0.000 A 
ATOM     30  C   UNL     1       0.575  13.384  19.404  0.00  0.00    +0.000 A 
ATOM     31  C   UNL     1      -0.600  13.479  18.669  0.00  0.00    +0.000 A 
ATOM     32  C   UNL     1      -1.288  12.323  18.310  0.00  0.00    +0.000 A 
ATOM     33  C   UNL     1      -0.821  11.071  18.716  0.00  0.00    +0.000 A 
ENDBRANCH  27  28
ENDBRANCH  20  24
ENDBRANCH   1  20
TORSDOF 7
ENDMDL
MODEL 9
REMARK VINA RESULT:      -8.3      2.116      3.822
REMARK  Name = 
REMARK  9 active torsions:
REMARK  status: ('A' for Active; 'I' for Inactive)
REMARK    1  A    between atoms: C_1  and  C_2
REMARK    2  A    between atoms: C_4  and  C_5
REMARK    3  A    between atoms: C_5  and  N_6
REMARK    4  A    between atoms: C_9  and  N_10
REMARK    5  A    between atoms: C_11  and  C_13
REMARK    6  A    between atoms: C_13  and  O_14
REMARK    7  A    between atoms: O_14  and  C_15
REMARK    8  A    between atoms: C_24  and  C_25
REMARK    9  A    between atoms: N_26  and  C_27
REMARK                            x       y       z     vdW  Elec       q    Type
REMARK                         _______ _______ _______ _____ _____    ______ ____
ROOT
ATOM      1  N   UNL     1       1.267   9.194  19.502  0.00  0.00    +0.000 NA
ATOM      2  C   UNL     1       1.348   7.974  20.299  0.00  0.00    +0.000 C 
ATOM      3  C   UNL     1       2.583   7.141  20.012  0.00  0.00    +0.000 C 
ATOM      4  C   UNL     1       2.717   6.810  18.532  0.00  0.00    +0.000 C 
ATOM      5  C   UNL     1       2.758   8.105  17.719  0.00  0.00    +0.000 C 
ATOM      6  C   UNL     1       1.760   9.197  18.126  0.00  0.00    +0.000 C 
ENDROOT
BRANCH   4   7
ATOM      7  N   UNL     1       1.839   5.708  18.107  0.00  0.00    +0.000 N 
ATOM      8  C   UNL     1       1.983   4.357  18.012  0.00  0.00    +0.000 C 
ATOM      9  O   UNL     1       1.122   3.703  17.423  0.00  0.00    +0.000 OA
ATOM     10  H   UNL     1       0.989   5.995  17.629  0.00  0.00    +0.000 HD
BRANCH   8  11
ATOM     11  C   UNL     1       3.171   3.683  18.644  0.00  0.00    +0.000 C 
BRANCH  11  12
ATOM     12  O   UNL     1       4.034   3.185  17.628  0.00  0.00    +0.000 OA
BRANCH  12  13
ATOM     13  C   UNL     1       5.006   4.027  17.201  0.00  0.00    +0.000 A 
ATOM     14  C   UNL     1       5.200   4.320  15.855  0.00  0.00    +0.000 A 
ATOM     15  C   UNL     1       6.190   5.229  15.478  0.00  0.00    +0.000 A 
ATOM     16  C   UNL     1       7.012   5.788  16.450  0.00  0.00    +0.000 A 
ATOM     17  C   UNL     1       6.852   5.448  17.791  0.00  0.00    +0.000 A 
ATOM     18 CL   UNL     1       7.902   6.127  18.972  0.00  0.00    +0.000 Cl
ATOM     19  C   UNL     1       5.848   4.563  18.177  0.00  0.00    +0.000 A 
ENDBRANCH  12  13
ENDBRANCH  11  12
ENDBRANCH   8  11
ENDBRANCH   4   7
BRANCH   1  20
ATOM     20  C   UNL     1      -0.051   9.851  19.609  0.00  0.00    +0.000 C 
BRANCH  20  24
ATOM     21  C   UNL     1       1.836  14.221  21.435  0.00  0.00    +0.000 C 
ATOM     22  C   UNL     1       1.011  13.244  20.666  0.00  0.00    +0.000 A 
ATOM     23  C   UNL     1       1.199  11.876  20.635  0.00  0.00    +0.000 A 
ATOM     24  C   UNL     1       0.138  11.301  19.904  0.00  0.00    +0.000 A 
ATOM     25  C   UNL     1      -0.681  12.338  19.482  0.00  0.00    +0.000 A 
ATOM     26  C   UNL     1      -1.864  12.211  18.569  0.00  0.00    +0.000 C 
ATOM     27  N   UNL     1      -0.141  13.549  19.929  0.00  0.00    +0.000 N 
BRANCH  27  28
ATOM     28  C   UNL     1      -0.657  14.849  19.634  0.00  0.00    +0.000 A 
ATOM     29  C   UNL     1      -0.125  15.604  18.578  0.00  0.00    +0.000 A 
ATOM     30  C   UNL     1      -0.537  16.917  18.356  0.00  0.00    +0.000 A 
ATOM     31  C   UNL     1      -1.533  17.473  19.149  0.00  0.00    +0.000 A 
ATOM     32  C   UNL     1      -2.105  16.720  20.171  0.00  0.00    +0.000 A 
ATOM     33  C   UNL     1      -1.657  15.422  20.425  0.00  0.00    +0.000 A 
ENDBRANCH  27  28
ENDBRANCH  20  24
ENDBRANCH   1  20
TORSDOF 7
ENDMDL
