MODEL 1
REMARK VINA RESULT:      -7.1      0.000      0.000
REMARK  Name = 
REMARK  4 active torsions:
REMARK  status: ('A' for Active; 'I' for Inactive)
REMARK    1  A    between atoms: C_2  and  C_20
REMARK    2  A    between atoms: N_3  and  C_4
REMARK    3  A    between atoms: C_4  and  C_5
REMARK    4  A    between atoms: C_10  and  C_11
REMARK                            x       y       z     vdW  Elec       q    Type
REMARK                         _______ _______ _______ _____ _____    ______ ____
ROOT
ATOM      1  C   UNL     1       7.671   5.737  18.546  0.00  0.00    +0.000 C 
ATOM      2  C   UNL     1       6.911   6.786  17.732  0.00  0.00    +0.000 C 
ATOM      3  N   UNL     1       5.515   6.415  17.716  0.00  0.00    +0.000 N 
ATOM      4  N   UNL     1       4.701   6.694  16.692  0.00  0.00    +0.000 NA
ATOM      5  N   UNL     1       3.546   6.087  16.938  0.00  0.00    +0.000 NA
ATOM      6  C   UNL     1       3.656   5.421  18.136  0.00  0.00    +0.000 A 
ATOM      7  C   UNL     1       4.929   5.602  18.639  0.00  0.00    +0.000 A 
ATOM      8  C   UNL     1       5.687   5.040  19.773  0.00  0.00    +0.000 C 
ATOM      9  O   UNL     1       7.014   5.580  19.822  0.00  0.00    +0.000 OA
ENDROOT
BRANCH   6  10
ATOM     10  C   UNL     1       2.605   4.610  18.711  0.00  0.00    +0.000 A 
ATOM     11  C   UNL     1       2.141   3.480  18.038  0.00  0.00    +0.000 A 
ATOM     12  C   UNL     1       1.132   2.735  18.626  0.00  0.00    +0.000 A 
ATOM     13  N   UNL     1       0.567   3.038  19.814  0.00  0.00    +0.000 NA
ATOM     14  C   UNL     1       1.030   4.136  20.445  0.00  0.00    +0.000 A 
ATOM     15  C   UNL     1       2.037   4.939  19.943  0.00  0.00    +0.000 A 
ENDBRANCH   6  10
BRANCH   1  16
ATOM     16  C   UNL     1       7.813   4.403  17.782  0.00  0.00    +0.000 C 
BRANCH  16  19
ATOM     17  O   UNL     1       5.837   3.365  16.157  0.00  0.00    +0.000 OA
ATOM     18  C   UNL     1       6.729   4.022  15.617  0.00  0.00    +0.000 C 
ATOM     19  N   UNL     1       7.755   4.571  16.343  0.00  0.00    +0.000 N 
ATOM     20  H   UNL     1       8.344   5.269  15.903  0.00  0.00    +0.000 HD
BRANCH  18  21
ATOM     21  C   UNL     1       6.744   4.242  14.175  0.00  0.00    +0.000 A 
ATOM     22  C   UNL     1       5.872   3.565  13.255  0.00  0.00    +0.000 A 
ATOM     23  C   UNL     1       6.117   3.892  11.938  0.00  0.00    +0.000 A 
ATOM     24  S   UNL     1       7.373   5.036  11.794  0.00  0.00    +0.000 S 
ATOM     25  C   UNL     1       7.600   5.089  13.488  0.00  0.00    +0.000 A 
ENDBRANCH  18  21
ENDBRANCH  16  19
ENDBRANCH   1  16
TORSDOF 4
ENDMDL
MODEL 2
REMARK VINA RESULT:      -6.9      6.752      8.879
REMARK  Name = 
REMARK  4 active torsions:
REMARK  status: ('A' for Active; 'I' for Inactive)
REMARK    1  A    between atoms: C_2  and  C_20
REMARK    2  A    between atoms: N_3  and  C_4
REMARK    3  A    between atoms: C_4  and  C_5
REMARK    4  A    between atoms: C_10  and  C_11
REMARK                            x       y       z     vdW  Elec       q    Type
REMARK                         _______ _______ _______ _____ _____    ______ ____
ROOT
ATOM      1  C   UNL     1       0.903  10.316  18.460  0.00  0.00    +0.000 C 
ATOM      2  C   UNL     1       1.094   9.965  19.937  0.00  0.00    +0.000 C 
ATOM      3  N   UNL     1       1.539   8.593  20.017  0.00  0.00    +0.000 N 
ATOM      4  N   UNL     1       1.243   7.793  21.046  0.00  0.00    +0.000 NA
ATOM      5  N   UNL     1       1.674   6.578  20.729  0.00  0.00    +0.000 NA
ATOM      6  C   UNL     1       2.244   6.635  19.479  0.00  0.00    +0.000 A 
ATOM      7  C   UNL     1       2.142   7.924  18.995  0.00  0.00    +0.000 A 
ATOM      8  C   UNL     1       2.418   8.570  17.697  0.00  0.00    +0.000 C 
ATOM      9  O   UNL     1       2.107   9.969  17.744  0.00  0.00    +0.000 OA
ENDROOT
BRANCH   6  10
ATOM     10  C   UNL     1       2.787   5.489  18.783  0.00  0.00    +0.000 A 
ATOM     11  C   UNL     1       4.143   5.183  18.883  0.00  0.00    +0.000 A 
ATOM     12  C   UNL     1       4.618   4.077  18.197  0.00  0.00    +0.000 A 
ATOM     13  N   UNL     1       3.845   3.275  17.433  0.00  0.00    +0.000 NA
ATOM     14  C   UNL     1       2.537   3.592  17.350  0.00  0.00    +0.000 A 
ATOM     15  C   UNL     1       1.969   4.671  18.002  0.00  0.00    +0.000 A 
ENDBRANCH   6  10
BRANCH   1  16
ATOM     16  C   UNL     1      -0.356   9.649  17.865  0.00  0.00    +0.000 C 
BRANCH  16  19
ATOM     17  O   UNL     1      -2.438   9.968  16.080  0.00  0.00    +0.000 OA
ATOM     18  C   UNL     1      -2.555  10.496  17.188  0.00  0.00    +0.000 C 
ATOM     19  N   UNL     1      -1.568  10.396  18.136  0.00  0.00    +0.000 N 
ATOM     20  H   UNL     1      -1.784  10.659  19.092  0.00  0.00    +0.000 HD
BRANCH  18  21
ATOM     21  C   UNL     1      -3.743  11.261  17.544  0.00  0.00    +0.000 A 
ATOM     22  C   UNL     1      -3.995  11.779  18.861  0.00  0.00    +0.000 A 
ATOM     23  C   UNL     1      -5.214  12.414  18.968  0.00  0.00    +0.000 A 
ATOM     24  S   UNL     1      -6.056  12.422  17.486  0.00  0.00    +0.000 S 
ATOM     25  C   UNL     1      -4.799  11.569  16.699  0.00  0.00    +0.000 A 
ENDBRANCH  18  21
ENDBRANCH  16  19
ENDBRANCH   1  16
TORSDOF 4
ENDMDL
MODEL 3
REMARK VINA RESULT:      -6.8      4.728      8.018
REMARK  Name = 
REMARK  4 active torsions:
REMARK  status: ('A' for Active; 'I' for Inactive)
REMARK    1  A    between atoms: C_2  and  C_20
REMARK    2  A    between atoms: N_3  and  C_4
REMARK    3  A    between atoms: C_4  and  C_5
REMARK    4  A    between atoms: C_10  and  C_11
REMARK                            x       y       z     vdW  Elec       q    Type
REMARK                         _______ _______ _______ _____ _____    ______ ____
ROOT
ATOM      1  C   UNL     1       1.797   5.326  20.673  0.00  0.00    +0.000 C 
ATOM      2  C   UNL     1       1.158   4.261  19.779  0.00  0.00    +0.000 C 
ATOM      3  N   UNL     1       2.043   4.025  18.661  0.00  0.00    +0.000 N 
ATOM      4  N   UNL     1       1.604   3.667  17.451  0.00  0.00    +0.000 NA
ATOM      5  N   UNL     1       2.653   3.681  16.638  0.00  0.00    +0.000 NA
ATOM      6  C   UNL     1       3.758   4.057  17.366  0.00  0.00    +0.000 A 
ATOM      7  C   UNL     1       3.375   4.308  18.669  0.00  0.00    +0.000 A 
ATOM      8  C   UNL     1       4.045   4.871  19.857  0.00  0.00    +0.000 C 
ATOM      9  O   UNL     1       3.149   4.922  20.975  0.00  0.00    +0.000 OA
ENDROOT
BRANCH   6  10
ATOM     10  C   UNL     1       5.080   4.226  16.803  0.00  0.00    +0.000 A 
ATOM     11  C   UNL     1       5.265   4.198  15.422  0.00  0.00    +0.000 A 
ATOM     12  C   UNL     1       6.550   4.361  14.931  0.00  0.00    +0.000 A 
ATOM     13  N   UNL     1       7.638   4.543  15.709  0.00  0.00    +0.000 NA
ATOM     14  C   UNL     1       7.434   4.564  17.042  0.00  0.00    +0.000 A 
ATOM     15  C   UNL     1       6.190   4.417  17.627  0.00  0.00    +0.000 A 
ENDBRANCH   6  10
BRANCH   1  16
ATOM     16  C   UNL     1       1.723   6.732  20.041  0.00  0.00    +0.000 C 
BRANCH  16  19
ATOM     17  O   UNL     1       1.279   9.376  19.376  0.00  0.00    +0.000 OA
ATOM     18  C   UNL     1       0.875   8.991  20.475  0.00  0.00    +0.000 C 
ATOM     19  N   UNL     1       1.056   7.697  20.893  0.00  0.00    +0.000 N 
ATOM     20  H   UNL     1       0.534   7.367  21.698  0.00  0.00    +0.000 HD
BRANCH  18  21
ATOM     21  C   UNL     1       0.190   9.894  21.392  0.00  0.00    +0.000 A 
ATOM     22  C   UNL     1      -0.420   9.472  22.623  0.00  0.00    +0.000 A 
ATOM     23  C   UNL     1      -1.062  10.495  23.288  0.00  0.00    +0.000 A 
ATOM     24  S   UNL     1      -0.915  11.978  22.459  0.00  0.00    +0.000 S 
ATOM     25  C   UNL     1      -0.003  11.255  21.205  0.00  0.00    +0.000 A 
ENDBRANCH  18  21
ENDBRANCH  16  19
ENDBRANCH   1  16
TORSDOF 4
ENDMDL
MODEL 4
REMARK VINA RESULT:      -6.7      7.002      9.122
REMARK  Name = 
REMARK  4 active torsions:
REMARK  status: ('A' for Active; 'I' for Inactive)
REMARK    1  A    between atoms: C_2  and  C_20
REMARK    2  A    between atoms: N_3  and  C_4
REMARK    3  A    between atoms: C_4  and  C_5
REMARK    4  A    between atoms: C_10  and  C_11
REMARK                            x       y       z     vdW  Elec       q    Type
REMARK                         _______ _______ _______ _____ _____    ______ ____
ROOT
ATOM      1  C   UNL     1       0.642  10.539  18.780  0.00  0.00    +0.000 C 
ATOM      2  C   UNL     1       0.875  10.008  20.195  0.00  0.00    +0.000 C 
ATOM      3  N   UNL     1       1.434   8.680  20.089  0.00  0.00    +0.000 N 
ATOM      4  N   UNL     1       1.215   7.726  20.999  0.00  0.00    +0.000 NA
ATOM      5  N   UNL     1       1.745   6.606  20.521  0.00  0.00    +0.000 NA
ATOM      6  C   UNL     1       2.297   6.880  19.292  0.00  0.00    +0.000 A 
ATOM      7  C   UNL     1       2.083   8.210  18.988  0.00  0.00    +0.000 A 
ATOM      8  C   UNL     1       2.293   9.048  17.791  0.00  0.00    +0.000 C 
ATOM      9  O   UNL     1       1.866  10.396  18.028  0.00  0.00    +0.000 OA
ENDROOT
BRANCH   6  10
ATOM     10  C   UNL     1       2.930   5.890  18.449  0.00  0.00    +0.000 A 
ATOM     11  C   UNL     1       2.259   4.712  18.122  0.00  0.00    +0.000 A 
ATOM     12  C   UNL     1       2.906   3.793  17.313  0.00  0.00    +0.000 A 
ATOM     13  N   UNL     1       4.151   3.965  16.822  0.00  0.00    +0.000 NA
ATOM     14  C   UNL     1       4.781   5.111  17.153  0.00  0.00    +0.000 A 
ATOM     15  C   UNL     1       4.217   6.091  17.948  0.00  0.00    +0.000 A 
ENDBRANCH   6  10
BRANCH   1  16
ATOM     16  C   UNL     1      -0.561   9.855  18.095  0.00  0.00    +0.000 C 
BRANCH  16  19
ATOM     17  O   UNL     1      -2.423  10.607  16.200  0.00  0.00    +0.000 OA
ATOM     18  C   UNL     1      -2.689  10.841  17.381  0.00  0.00    +0.000 C 
ATOM     19  N   UNL     1      -1.821  10.508  18.390  0.00  0.00    +0.000 N 
ATOM     20  H   UNL     1      -2.158  10.523  19.347  0.00  0.00    +0.000 HD
BRANCH  18  21
ATOM     21  C   UNL     1      -3.936  11.491  17.765  0.00  0.00    +0.000 A 
ATOM     22  C   UNL     1      -5.030  11.717  16.861  0.00  0.00    +0.000 A 
ATOM     23  C   UNL     1      -6.075  12.406  17.438  0.00  0.00    +0.000 A 
ATOM     24  S   UNL     1      -5.769  12.763  19.077  0.00  0.00    +0.000 S 
ATOM     25  C   UNL     1      -4.236  12.007  19.017  0.00  0.00    +0.000 A 
ENDBRANCH  18  21
ENDBRANCH  16  19
ENDBRANCH   1  16
TORSDOF 4
ENDMDL
MODEL 5
REMARK VINA RESULT:      -6.6      4.005      5.657
REMARK  Name = 
REMARK  4 active torsions:
REMARK  status: ('A' for Active; 'I' for Inactive)
REMARK    1  A    between atoms: C_2  and  C_20
REMARK    2  A    between atoms: N_3  and  C_4
REMARK    3  A    between atoms: C_4  and  C_5
REMARK    4  A    between atoms: C_10  and  C_11
REMARK                            x       y       z     vdW  Elec       q    Type
REMARK                         _______ _______ _______ _____ _____    ______ ____
ROOT
ATOM      1  C   UNL     1       7.969   7.204  17.304  0.00  0.00    +0.000 C 
ATOM      2  C   UNL     1       8.295   6.261  18.464  0.00  0.00    +0.000 C 
ATOM      3  N   UNL     1       7.096   5.525  18.793  0.00  0.00    +0.000 N 
ATOM      4  N   UNL     1       6.820   5.103  20.031  0.00  0.00    +0.000 NA
ATOM      5  N   UNL     1       5.590   4.603  20.005  0.00  0.00    +0.000 NA
ATOM      6  C   UNL     1       5.102   4.724  18.725  0.00  0.00    +0.000 A 
ATOM      7  C   UNL     1       6.053   5.340  17.936  0.00  0.00    +0.000 A 
ATOM      8  C   UNL     1       6.074   5.870  16.558  0.00  0.00    +0.000 C 
ATOM      9  O   UNL     1       7.353   6.438  16.247  0.00  0.00    +0.000 OA
ENDROOT
BRANCH   6  10
ATOM     10  C   UNL     1       3.771   4.324  18.325  0.00  0.00    +0.000 A 
ATOM     11  C   UNL     1       3.488   2.985  18.060  0.00  0.00    +0.000 A 
ATOM     12  C   UNL     1       2.200   2.651  17.677  0.00  0.00    +0.000 A 
ATOM     13  N   UNL     1       1.197   3.545  17.542  0.00  0.00    +0.000 NA
ATOM     14  C   UNL     1       1.496   4.835  17.801  0.00  0.00    +0.000 A 
ATOM     15  C   UNL     1       2.749   5.266  18.194  0.00  0.00    +0.000 A 
ENDBRANCH   6  10
BRANCH   1  16
ATOM     16  C   UNL     1       7.103   8.399  17.756  0.00  0.00    +0.000 C 
BRANCH  16  19
ATOM     17  O   UNL     1       9.101   9.434  19.356  0.00  0.00    +0.000 OA
ATOM     18  C   UNL     1       8.743  10.108  18.388  0.00  0.00    +0.000 C 
ATOM     19  N   UNL     1       7.753   9.677  17.542  0.00  0.00    +0.000 N 
ATOM     20  H   UNL     1       7.633  10.150  16.653  0.00  0.00    +0.000 HD
BRANCH  18  21
ATOM     21  C   UNL     1       9.348  11.403  18.098  0.00  0.00    +0.000 A 
ATOM     22  C   UNL     1      10.736  11.581  17.772  0.00  0.00    +0.000 A 
ATOM     23  C   UNL     1      11.086  12.903  17.601  0.00  0.00    +0.000 A 
ATOM     24  S   UNL     1       9.749  13.942  17.800  0.00  0.00    +0.000 S 
ATOM     25  C   UNL     1       8.702  12.629  18.125  0.00  0.00    +0.000 A 
ENDBRANCH  18  21
ENDBRANCH  16  19
ENDBRANCH   1  16
TORSDOF 4
ENDMDL
MODEL 6
REMARK VINA RESULT:      -6.6      2.502      4.167
REMARK  Name = 
REMARK  4 active torsions:
REMARK  status: ('A' for Active; 'I' for Inactive)
REMARK    1  A    between atoms: C_2  and  C_20
REMARK    2  A    between atoms: N_3  and  C_4
REMARK    3  A    between atoms: C_4  and  C_5
REMARK    4  A    between atoms: C_10  and  C_11
REMARK                            x       y       z     vdW  Elec       q    Type
REMARK                         _______ _______ _______ _____ _____    ______ ____
ROOT
ATOM      1  C   UNL     1       3.137   2.569  17.788  0.00  0.00    +0.000 C 
ATOM      2  C   UNL     1       2.645   2.221  19.194  0.00  0.00    +0.000 C 
ATOM      3  N   UNL     1       2.320   3.454  19.873  0.00  0.00    +0.000 N 
ATOM      4  N   UNL     1       2.444   3.609  21.196  0.00  0.00    +0.000 NA
ATOM      5  N   UNL     1       2.209   4.888  21.460  0.00  0.00    +0.000 NA
ATOM      6  C   UNL     1       1.939   5.531  20.275  0.00  0.00    +0.000 A 
ATOM      7  C   UNL     1       2.031   4.624  19.238  0.00  0.00    +0.000 A 
ATOM      8  C   UNL     1       2.002   4.723  17.765  0.00  0.00    +0.000 C 
ATOM      9  O   UNL     1       2.166   3.433  17.161  0.00  0.00    +0.000 OA
ENDROOT
BRANCH   6  10
ATOM     10  C   UNL     1       1.676   6.949  20.163  0.00  0.00    +0.000 A 
ATOM     11  C   UNL     1       1.023   7.626  21.192  0.00  0.00    +0.000 A 
ATOM     12  C   UNL     1       0.791   8.984  21.039  0.00  0.00    +0.000 A 
ATOM     13  N   UNL     1       1.158   9.693  19.951  0.00  0.00    +0.000 NA
ATOM     14  C   UNL     1       1.787   9.016  18.968  0.00  0.00    +0.000 A 
ATOM     15  C   UNL     1       2.068   7.664  19.031  0.00  0.00    +0.000 A 
ENDBRANCH   6  10
BRANCH   1  16
ATOM     16  C   UNL     1       4.554   3.182  17.807  0.00  0.00    +0.000 C 
BRANCH  16  19
ATOM     17  O   UNL     1       4.954   5.478  16.327  0.00  0.00    +0.000 OA
ATOM     18  C   UNL     1       5.329   4.413  15.834  0.00  0.00    +0.000 C 
ATOM     19  N   UNL     1       5.166   3.221  16.494  0.00  0.00    +0.000 N 
ATOM     20  H   UNL     1       5.668   2.406  16.157  0.00  0.00    +0.000 HD
BRANCH  18  21
ATOM     21  C   UNL     1       5.958   4.363  14.519  0.00  0.00    +0.000 A 
ATOM     22  C   UNL     1       5.465   3.569  13.427  0.00  0.00    +0.000 A 
ATOM     23  C   UNL     1       6.264   3.636  12.306  0.00  0.00    +0.000 A 
ATOM     24  S   UNL     1       7.596   4.674  12.539  0.00  0.00    +0.000 S 
ATOM     25  C   UNL     1       7.115   5.029  14.142  0.00  0.00    +0.000 A 
ENDBRANCH  18  21
ENDBRANCH  16  19
ENDBRANCH   1  16
TORSDOF 4
ENDMDL
MODEL 7
REMARK VINA RESULT:      -6.6      3.468      5.063
REMARK  Name = 
REMARK  4 active torsions:
REMARK  status: ('A' for Active; 'I' for Inactive)
REMARK    1  A    between atoms: C_2  and  C_20
REMARK    2  A    between atoms: N_3  and  C_4
REMARK    3  A    between atoms: C_4  and  C_5
REMARK    4  A    between atoms: C_10  and  C_11
REMARK                            x       y       z     vdW  Elec       q    Type
REMARK                         _______ _______ _______ _____ _____    ______ ____
ROOT
ATOM      1  C   UNL     1       5.467   6.959  16.142  0.00  0.00    +0.000 C 
ATOM      2  C   UNL     1       5.384   5.616  15.415  0.00  0.00    +0.000 C 
ATOM      3  N   UNL     1       4.750   4.666  16.301  0.00  0.00    +0.000 N 
ATOM      4  N   UNL     1       5.031   3.359  16.286  0.00  0.00    +0.000 NA
ATOM      5  N   UNL     1       4.392   2.813  17.313  0.00  0.00    +0.000 NA
ATOM      6  C   UNL     1       3.706   3.806  17.972  0.00  0.00    +0.000 A 
ATOM      7  C   UNL     1       3.948   5.013  17.346  0.00  0.00    +0.000 A 
ATOM      8  C   UNL     1       3.634   6.423  17.652  0.00  0.00    +0.000 C 
ATOM      9  O   UNL     1       4.154   7.295  16.640  0.00  0.00    +0.000 OA
ENDROOT
BRANCH   6  10
ATOM     10  C   UNL     1       2.927   3.594  19.171  0.00  0.00    +0.000 A 
ATOM     11  C   UNL     1       3.482   2.928  20.263  0.00  0.00    +0.000 A 
ATOM     12  C   UNL     1       2.696   2.746  21.389  0.00  0.00    +0.000 A 
ATOM     13  N   UNL     1       1.419   3.172  21.494  0.00  0.00    +0.000 NA
ATOM     14  C   UNL     1       0.903   3.812  20.425  0.00  0.00    +0.000 A 
ATOM     15  C   UNL     1       1.609   4.047  19.260  0.00  0.00    +0.000 A 
ENDBRANCH   6  10
BRANCH   1  16
ATOM     16  C   UNL     1       6.540   6.952  17.251  0.00  0.00    +0.000 C 
BRANCH  16  19
ATOM     17  O   UNL     1       8.663   7.458  18.943  0.00  0.00    +0.000 OA
ATOM     18  C   UNL     1       8.179   8.417  18.338  0.00  0.00    +0.000 C 
ATOM     19  N   UNL     1       7.119   8.261  17.481  0.00  0.00    +0.000 N 
ATOM     20  H   UNL     1       6.886   9.022  16.851  0.00  0.00    +0.000 HD
BRANCH  18  21
ATOM     21  C   UNL     1       8.703   9.767  18.508  0.00  0.00    +0.000 A 
ATOM     22  C   UNL     1       8.474  10.836  17.575  0.00  0.00    +0.000 A 
ATOM     23  C   UNL     1       9.123  12.002  17.919  0.00  0.00    +0.000 A 
ATOM     24  S   UNL     1       9.991  11.837  19.377  0.00  0.00    +0.000 S 
ATOM     25  C   UNL     1       9.508  10.205  19.548  0.00  0.00    +0.000 A 
ENDBRANCH  18  21
ENDBRANCH  16  19
ENDBRANCH   1  16
TORSDOF 4
ENDMDL
MODEL 8
REMARK VINA RESULT:      -6.5      3.033      4.742
REMARK  Name = 
REMARK  4 active torsions:
REMARK  status: ('A' for Active; 'I' for Inactive)
REMARK    1  A    between atoms: C_2  and  C_20
REMARK    2  A    between atoms: N_3  and  C_4
REMARK    3  A    between atoms: C_4  and  C_5
REMARK    4  A    between atoms: C_10  and  C_11
REMARK                            x       y       z     vdW  Elec       q    Type
REMARK                         _______ _______ _______ _____ _____    ______ ____
ROOT
ATOM      1  C   UNL     1       2.023   2.147  20.161  0.00  0.00    +0.000 C 
ATOM      2  C   UNL     1       3.398   2.627  20.629  0.00  0.00    +0.000 C 
ATOM      3  N   UNL     1       3.498   4.041  20.348  0.00  0.00    +0.000 N 
ATOM      4  N   UNL     1       4.656   4.643  20.056  0.00  0.00    +0.000 NA
ATOM      5  N   UNL     1       4.367   5.892  19.711  0.00  0.00    +0.000 NA
ATOM      6  C   UNL     1       3.005   6.057  19.791  0.00  0.00    +0.000 A 
ATOM      7  C   UNL     1       2.427   4.864  20.177  0.00  0.00    +0.000 A 
ATOM      8  C   UNL     1       1.040   4.371  20.291  0.00  0.00    +0.000 C 
ATOM      9  O   UNL     1       1.016   3.008  20.734  0.00  0.00    +0.000 OA
ENDROOT
BRANCH   6  10
ATOM     10  C   UNL     1       2.316   7.282  19.446  0.00  0.00    +0.000 A 
ATOM     11  C   UNL     1       1.611   7.990  20.418  0.00  0.00    +0.000 A 
ATOM     12  C   UNL     1       0.965   9.156  20.040  0.00  0.00    +0.000 A 
ATOM     13  N   UNL     1       0.973   9.649  18.783  0.00  0.00    +0.000 NA
ATOM     14  C   UNL     1       1.659   8.945  17.860  0.00  0.00    +0.000 A 
ATOM     15  C   UNL     1       2.341   7.775  18.141  0.00  0.00    +0.000 A 
ENDBRANCH   6  10
BRANCH   1  16
ATOM     16  C   UNL     1       1.931   2.066  18.622  0.00  0.00    +0.000 C 
BRANCH  16  19
ATOM     17  O   UNL     1       1.963   4.165  16.828  0.00  0.00    +0.000 OA
ATOM     18  C   UNL     1       3.039   3.623  17.087  0.00  0.00    +0.000 C 
ATOM     19  N   UNL     1       3.119   2.569  17.961  0.00  0.00    +0.000 N 
ATOM     20  H   UNL     1       4.032   2.290  18.306  0.00  0.00    +0.000 HD
BRANCH  18  21
ATOM     21  C   UNL     1       4.282   4.069  16.469  0.00  0.00    +0.000 A 
ATOM     22  C   UNL     1       4.638   5.451  16.299  0.00  0.00    +0.000 A 
ATOM     23  C   UNL     1       5.832   5.624  15.632  0.00  0.00    +0.000 A 
ATOM     24  S   UNL     1       6.553   4.133  15.229  0.00  0.00    +0.000 S 
ATOM     25  C   UNL     1       5.268   3.253  15.936  0.00  0.00    +0.000 A 
ENDBRANCH  18  21
ENDBRANCH  16  19
ENDBRANCH   1  16
TORSDOF 4
ENDMDL
MODEL 9
REMARK VINA RESULT:      -6.3      3.244      6.542
REMARK  Name = 
REMARK  4 active torsions:
REMARK  status: ('A' for Active; 'I' for Inactive)
REMARK    1  A    between atoms: C_2  and  C_20
REMARK    2  A    between atoms: N_3  and  C_4
REMARK    3  A    between atoms: C_4  and  C_5
REMARK    4  A    between atoms: C_10  and  C_11
REMARK                            x       y       z     vdW  Elec       q    Type
REMARK                         _______ _______ _______ _____ _____    ______ ____
ROOT
ATOM      1  C   UNL     1       1.676   2.447  20.449  0.00  0.00    +0.000 C 
ATOM      2  C   UNL     1       0.879   2.959  19.247  0.00  0.00    +0.000 C 
ATOM      3  N   UNL     1       1.812   3.527  18.300  0.00  0.00    +0.000 N 
ATOM      4  N   UNL     1       1.496   4.543  17.491  0.00  0.00    +0.000 NA
ATOM      5  N   UNL     1       2.612   4.905  16.871  0.00  0.00    +0.000 NA
ATOM      6  C   UNL     1       3.633   4.096  17.311  0.00  0.00    +0.000 A 
ATOM      7  C   UNL     1       3.137   3.217  18.254  0.00  0.00    +0.000 A 
ATOM      8  C   UNL     1       3.740   2.233  19.174  0.00  0.00    +0.000 C 
ATOM      9  O   UNL     1       2.734   1.590  19.968  0.00  0.00    +0.000 OA
ENDROOT
BRANCH   6  10
ATOM     10  C   UNL     1       5.009   4.225  16.886  0.00  0.00    +0.000 A 
ATOM     11  C   UNL     1       5.348   4.069  15.543  0.00  0.00    +0.000 A 
ATOM     12  C   UNL     1       6.680   4.198  15.184  0.00  0.00    +0.000 A 
ATOM     13  N   UNL     1       7.674   4.465  16.059  0.00  0.00    +0.000 NA
ATOM     14  C   UNL     1       7.322   4.610  17.352  0.00  0.00    +0.000 A 
ATOM     15  C   UNL     1       6.021   4.505  17.807  0.00  0.00    +0.000 A 
ENDBRANCH   6  10
BRANCH   1  16
ATOM     16  C   UNL     1       2.200   3.601  21.330  0.00  0.00    +0.000 C 
BRANCH  16  19
ATOM     17  O   UNL     1       3.813   5.634  20.386  0.00  0.00    +0.000 OA
ATOM     18  C   UNL     1       2.600   5.848  20.436  0.00  0.00    +0.000 C 
ATOM     19  N   UNL     1       1.723   4.900  20.897  0.00  0.00    +0.000 N 
ATOM     20  H   UNL     1       0.731   5.031  20.729  0.00  0.00    +0.000 HD
BRANCH  18  21
ATOM     21  C   UNL     1       2.036   7.126  20.016  0.00  0.00    +0.000 A 
ATOM     22  C   UNL     1       2.254   7.708  18.720  0.00  0.00    +0.000 A 
ATOM     23  C   UNL     1       1.671   8.949  18.579  0.00  0.00    +0.000 A 
ATOM     24  S   UNL     1       0.832   9.417  19.987  0.00  0.00    +0.000 S 
ATOM     25  C   UNL     1       1.253   7.967  20.791  0.00  0.00    +0.000 A 
ENDBRANCH  18  21
ENDBRANCH  16  19
ENDBRANCH   1  16
TORSDOF 4
ENDMDL
