MODEL 1
REMARK VINA RESULT:      -8.9      0.000      0.000
REMARK  Name = 
REMARK  6 active torsions:
REMARK  status: ('A' for Active; 'I' for Inactive)
REMARK    1  A    between atoms: C_2  and  C_10
REMARK    2  A    between atoms: N_3  and  C_4
REMARK    3  A    between atoms: C_10  and  C_11
REMARK    4  A    between atoms: C_10  and  N_18
REMARK    5  A    between atoms: C_11  and  C_12
REMARK    6  A    between atoms: C_23  and  O_24
REMARK                            x       y       z     vdW  Elec       q    Type
REMARK                         _______ _______ _______ _____ _____    ______ ____
ROOT
ATOM      1  C   UNL     1      -0.078  10.451  18.285  0.00  0.00    +0.000 C 
ENDROOT
BRANCH   1   2
ATOM      2  N   UNL     1       1.303   9.582  17.668  0.00  0.00    +0.000 N 
ATOM      3  C   UNL     1       2.122   8.659  18.419  0.00  0.00    +0.000 C 
ATOM      4  O   UNL     1       1.892   8.704  19.637  0.00  0.00    +0.000 OA
ATOM      5  N   UNL     1       3.181   7.687  17.737  0.00  0.00    +0.000 N 
ATOM      6  C   UNL     1       2.840   6.690  18.870  0.00  0.00    +0.000 C 
ATOM      7  C   UNL     1       2.191   5.535  18.156  0.00  0.00    +0.000 C 
ATOM      8  N   UNL     1       2.897   4.539  17.788  0.00  0.00    +0.000 NA
ATOM      9  C   UNL     1       4.174   5.045  17.496  0.00  0.00    +0.000 A 
ATOM     10  C   UNL     1       5.111   3.994  17.219  0.00  0.00    +0.000 A 
ATOM     11  C   UNL     1       6.274   4.259  16.502  0.00  0.00    +0.000 A 
ATOM     12  C   UNL     1       6.463   5.587  16.167  0.00  0.00    +0.000 A 
ATOM     13  C   UNL     1       5.519   6.694  16.493  0.00  0.00    +0.000 A 
ATOM     14  C   UNL     1       4.317   6.507  17.222  0.00  0.00    +0.000 A 
ATOM     15  H   UNL     1       1.500   9.781  16.695  0.00  0.00    +0.000 HD
BRANCH   7  16
ATOM     16  O   UNL     1       1.094   5.825  17.438  0.00  0.00    +0.000 OA
ATOM     17  H   UNL     1       0.894   6.772  17.588  0.00  0.00    +0.000 HD
ENDBRANCH   7  16
ENDBRANCH   1   2
BRANCH   1  19
ATOM     18  O   UNL     1       1.127  11.957  19.961  0.00  0.00    +0.000 OA
ATOM     19  C   UNL     1       0.017  11.622  19.536  0.00  0.00    +0.000 C 
ATOM     20  N   UNL     1      -1.162  12.287  20.036  0.00  0.00    +0.000 N 
ATOM     21  H   UNL     1      -2.042  12.196  19.549  0.00  0.00    +0.000 HD
BRANCH  20  22
ATOM     22  C   UNL     1      -1.240  13.181  21.265  0.00  0.00    +0.000 C 
ATOM     23  C   UNL     1      -2.600  13.891  21.439  0.00  0.00    +0.000 C 
ATOM     24  C   UNL     1      -3.714  13.004  22.011  0.00  0.00    +0.000 C 
ATOM     25  C   UNL     1      -3.344  12.375  23.351  0.00  0.00    +0.000 C 
ATOM     26  C   UNL     1      -2.017  11.633  23.245  0.00  0.00    +0.000 C 
ATOM     27  C   UNL     1      -0.911  12.513  22.648  0.00  0.00    +0.000 C 
ENDBRANCH  20  22
ENDBRANCH   1  19
BRANCH   1  28
ATOM     28  C   UNL     1      -1.376   9.605  18.580  0.00  0.00    +0.000 C 
BRANCH  28  29
ATOM     29  C   UNL     1      -2.407   9.851  17.503  0.00  0.00    +0.000 A 
ATOM     30  C   UNL     1      -2.170   9.640  16.134  0.00  0.00    +0.000 A 
ATOM     31  C   UNL     1      -2.943  10.319  15.180  0.00  0.00    +0.000 A 
ATOM     32  C   UNL     1      -3.997  11.119  15.599  0.00  0.00    +0.000 A 
ATOM     33  C   UNL     1      -4.328  11.177  16.933  0.00  0.00    +0.000 A 
ATOM     34  C   UNL     1      -3.555  10.523  17.882  0.00  0.00    +0.000 A 
ENDBRANCH  28  29
ENDBRANCH   1  28
TORSDOF 6
ENDMDL
MODEL 2
REMARK VINA RESULT:      -8.7      2.519      9.022
REMARK  Name = 
REMARK  6 active torsions:
REMARK  status: ('A' for Active; 'I' for Inactive)
REMARK    1  A    between atoms: C_2  and  C_10
REMARK    2  A    between atoms: N_3  and  C_4
REMARK    3  A    between atoms: C_10  and  C_11
REMARK    4  A    between atoms: C_10  and  N_18
REMARK    5  A    between atoms: C_11  and  C_12
REMARK    6  A    between atoms: C_23  and  O_24
REMARK                            x       y       z     vdW  Elec       q    Type
REMARK                         _______ _______ _______ _____ _____    ______ ____
ROOT
ATOM      1  C   UNL     1       3.671   6.866  17.794  0.00  0.00    +0.000 C 
ENDROOT
BRANCH   1   2
ATOM      2  N   UNL     1       3.207   8.536  17.990  0.00  0.00    +0.000 N 
ATOM      3  C   UNL     1       1.863   9.054  17.895  0.00  0.00    +0.000 C 
ATOM      4  O   UNL     1       1.067   8.225  17.428  0.00  0.00    +0.000 OA
ATOM      5  N   UNL     1       1.464  10.522  18.363  0.00  0.00    +0.000 N 
ATOM      6  C   UNL     1       0.094   9.915  18.748  0.00  0.00    +0.000 C 
ATOM      7  C   UNL     1       0.042  10.052  20.246  0.00  0.00    +0.000 C 
ATOM      8  N   UNL     1      -0.509  11.076  20.770  0.00  0.00    +0.000 NA
ATOM      9  C   UNL     1      -0.303  12.139  19.876  0.00  0.00    +0.000 A 
ATOM     10  C   UNL     1      -1.015  13.318  20.279  0.00  0.00    +0.000 A 
ATOM     11  C   UNL     1      -0.625  14.570  19.811  0.00  0.00    +0.000 A 
ATOM     12  C   UNL     1       0.417  14.554  18.902  0.00  0.00    +0.000 A 
ATOM     13  C   UNL     1       1.130  13.330  18.439  0.00  0.00    +0.000 A 
ATOM     14  C   UNL     1       0.792  12.020  18.865  0.00  0.00    +0.000 A 
ATOM     15  H   UNL     1       3.989   9.148  18.187  0.00  0.00    +0.000 HD
BRANCH   7  16
ATOM     16  O   UNL     1       1.031   9.453  20.928  0.00  0.00    +0.000 OA
ATOM     17  H   UNL     1       1.666  10.152  21.188  0.00  0.00    +0.000 HD
ENDBRANCH   7  16
ENDBRANCH   1   2
BRANCH   1  19
ATOM     18  O   UNL     1       2.176   5.698  19.506  0.00  0.00    +0.000 OA
ATOM     19  C   UNL     1       2.777   5.549  18.438  0.00  0.00    +0.000 C 
ATOM     20  N   UNL     1       2.642   4.307  17.716  0.00  0.00    +0.000 N 
ATOM     21  H   UNL     1       2.930   4.246  16.750  0.00  0.00    +0.000 HD
BRANCH  20  22
ATOM     22  C   UNL     1       2.058   3.010  18.257  0.00  0.00    +0.000 C 
ATOM     23  C   UNL     1       3.072   2.143  19.034  0.00  0.00    +0.000 C 
ATOM     24  C   UNL     1       3.352   2.618  20.467  0.00  0.00    +0.000 C 
ATOM     25  C   UNL     1       2.087   2.726  21.315  0.00  0.00    +0.000 C 
ATOM     26  C   UNL     1       1.047   3.593  20.615  0.00  0.00    +0.000 C 
ATOM     27  C   UNL     1       0.789   3.133  19.174  0.00  0.00    +0.000 C 
ENDBRANCH  20  22
ENDBRANCH   1  19
BRANCH   1  28
ATOM     28  C   UNL     1       5.191   6.517  18.032  0.00  0.00    +0.000 C 
BRANCH  28  29
ATOM     29  C   UNL     1       5.791   5.942  16.770  0.00  0.00    +0.000 A 
ATOM     30  C   UNL     1       5.162   5.992  15.515  0.00  0.00    +0.000 A 
ATOM     31  C   UNL     1       5.506   5.059  14.525  0.00  0.00    +0.000 A 
ATOM     32  C   UNL     1       6.532   4.156  14.765  0.00  0.00    +0.000 A 
ATOM     33  C   UNL     1       7.258   4.234  15.931  0.00  0.00    +0.000 A 
ATOM     34  C   UNL     1       6.910   5.143  16.921  0.00  0.00    +0.000 A 
ENDBRANCH  28  29
ENDBRANCH   1  28
TORSDOF 6
ENDMDL
MODEL 3
REMARK VINA RESULT:      -8.7      2.106      9.539
REMARK  Name = 
REMARK  6 active torsions:
REMARK  status: ('A' for Active; 'I' for Inactive)
REMARK    1  A    between atoms: C_2  and  C_10
REMARK    2  A    between atoms: N_3  and  C_4
REMARK    3  A    between atoms: C_10  and  C_11
REMARK    4  A    between atoms: C_10  and  N_18
REMARK    5  A    between atoms: C_11  and  C_12
REMARK    6  A    between atoms: C_23  and  O_24
REMARK                            x       y       z     vdW  Elec       q    Type
REMARK                         _______ _______ _______ _____ _____    ______ ____
ROOT
ATOM      1  C   UNL     1       2.336   6.721  19.098  0.00  0.00    +0.000 C 
ENDROOT
BRANCH   1   2
ATOM      2  N   UNL     1       1.453   7.876  20.064  0.00  0.00    +0.000 N 
ATOM      3  C   UNL     1       1.310   9.283  19.773  0.00  0.00    +0.000 C 
ATOM      4  O   UNL     1       2.075   9.661  18.872  0.00  0.00    +0.000 OA
ATOM      5  N   UNL     1       0.268  10.222  20.523  0.00  0.00    +0.000 N 
ATOM      6  C   UNL     1       0.160  10.994  19.187  0.00  0.00    +0.000 C 
ATOM      7  C   UNL     1      -1.258  10.757  18.742  0.00  0.00    +0.000 C 
ATOM      8  N   UNL     1      -2.168  11.596  19.049  0.00  0.00    +0.000 NA
ATOM      9  C   UNL     1      -1.800  12.145  20.288  0.00  0.00    +0.000 A 
ATOM     10  C   UNL     1      -2.666  13.223  20.671  0.00  0.00    +0.000 A 
ATOM     11  C   UNL     1      -2.762  13.609  22.005  0.00  0.00    +0.000 A 
ATOM     12  C   UNL     1      -1.920  12.933  22.869  0.00  0.00    +0.000 A 
ATOM     13  C   UNL     1      -0.981  11.846  22.473  0.00  0.00    +0.000 A 
ATOM     14  C   UNL     1      -0.822  11.398  21.137  0.00  0.00    +0.000 A 
ATOM     15  H   UNL     1       1.026   7.467  20.885  0.00  0.00    +0.000 HD
BRANCH   7  16
ATOM     16  O   UNL     1      -1.618   9.475  18.574  0.00  0.00    +0.000 OA
ATOM     17  H   UNL     1      -1.458   9.251  17.634  0.00  0.00    +0.000 HD
ENDBRANCH   7  16
ENDBRANCH   1   2
BRANCH   1  19
ATOM     18  O   UNL     1       3.156   8.053  17.077  0.00  0.00    +0.000 OA
ATOM     19  C   UNL     1       3.460   7.164  17.879  0.00  0.00    +0.000 C 
ATOM     20  N   UNL     1       4.780   6.585  17.827  0.00  0.00    +0.000 N 
ATOM     21  H   UNL     1       5.125   6.033  18.599  0.00  0.00    +0.000 HD
BRANCH  20  22
ATOM     22  C   UNL     1       5.786   6.735  16.694  0.00  0.00    +0.000 C 
ATOM     23  C   UNL     1       7.188   6.178  17.023  0.00  0.00    +0.000 C 
ATOM     24  C   UNL     1       7.306   4.650  16.928  0.00  0.00    +0.000 C 
ATOM     25  C   UNL     1       6.899   4.107  15.561  0.00  0.00    +0.000 C 
ATOM     26  C   UNL     1       5.507   4.600  15.183  0.00  0.00    +0.000 C 
ATOM     27  C   UNL     1       5.383   6.124  15.305  0.00  0.00    +0.000 C 
ENDBRANCH  20  22
ENDBRANCH   1  19
BRANCH   1  28
ATOM     28  C   UNL     1       1.513   5.509  18.512  0.00  0.00    +0.000 C 
BRANCH  28  29
ATOM     29  C   UNL     1       1.752   4.273  19.347  0.00  0.00    +0.000 A 
ATOM     30  C   UNL     1       0.895   3.851  20.378  0.00  0.00    +0.000 A 
ATOM     31  C   UNL     1       1.388   3.026  21.400  0.00  0.00    +0.000 A 
ATOM     32  C   UNL     1       2.693   2.558  21.330  0.00  0.00    +0.000 A 
ATOM     33  C   UNL     1       3.465   2.835  20.226  0.00  0.00    +0.000 A 
ATOM     34  C   UNL     1       2.989   3.666  19.221  0.00  0.00    +0.000 A 
ENDBRANCH  28  29
ENDBRANCH   1  28
TORSDOF 6
ENDMDL
MODEL 4
REMARK VINA RESULT:      -8.6      2.459      9.168
REMARK  Name = 
REMARK  6 active torsions:
REMARK  status: ('A' for Active; 'I' for Inactive)
REMARK    1  A    between atoms: C_2  and  C_10
REMARK    2  A    between atoms: N_3  and  C_4
REMARK    3  A    between atoms: C_10  and  C_11
REMARK    4  A    between atoms: C_10  and  N_18
REMARK    5  A    between atoms: C_11  and  C_12
REMARK    6  A    between atoms: C_23  and  O_24
REMARK                            x       y       z     vdW  Elec       q    Type
REMARK                         _______ _______ _______ _____ _____    ______ ____
ROOT
ATOM      1  C   UNL     1       3.097   7.496  17.966  0.00  0.00    +0.000 C 
ENDROOT
BRANCH   1   2
ATOM      2  N   UNL     1       2.676   9.182  18.121  0.00  0.00    +0.000 N 
ATOM      3  C   UNL     1       1.337   9.723  18.088  0.00  0.00    +0.000 C 
ATOM      4  O   UNL     1       0.499   8.891  17.707  0.00  0.00    +0.000 OA
ATOM      5  N   UNL     1       0.995  11.216  18.517  0.00  0.00    +0.000 N 
ATOM      6  C   UNL     1      -0.359  10.653  19.012  0.00  0.00    +0.000 C 
ATOM      7  C   UNL     1      -0.314  10.853  20.503  0.00  0.00    +0.000 C 
ATOM      8  N   UNL     1      -0.812  11.908  21.017  0.00  0.00    +0.000 NA
ATOM      9  C   UNL     1      -0.645  12.929  20.067  0.00  0.00    +0.000 A 
ATOM     10  C   UNL     1      -1.309  14.137  20.464  0.00  0.00    +0.000 A 
ATOM     11  C   UNL     1      -0.928  15.361  19.920  0.00  0.00    +0.000 A 
ATOM     12  C   UNL     1       0.054  15.287  18.949  0.00  0.00    +0.000 A 
ATOM     13  C   UNL     1       0.715  14.031  18.495  0.00  0.00    +0.000 A 
ATOM     14  C   UNL     1       0.382  12.746  18.996  0.00  0.00    +0.000 A 
ATOM     15  H   UNL     1       3.479   9.785  18.242  0.00  0.00    +0.000 HD
BRANCH   7  16
ATOM     16  O   UNL     1       0.705  10.262  21.147  0.00  0.00    +0.000 OA
ATOM     17  H   UNL     1       0.719  10.623  22.057  0.00  0.00    +0.000 HD
ENDBRANCH   7  16
ENDBRANCH   1   2
BRANCH   1  19
ATOM     18  O   UNL     1       2.380   6.489  20.203  0.00  0.00    +0.000 OA
ATOM     19  C   UNL     1       2.483   6.265  18.993  0.00  0.00    +0.000 C 
ATOM     20  N   UNL     1       2.001   5.012  18.462  0.00  0.00    +0.000 N 
ATOM     21  H   UNL     1       1.865   4.901  17.468  0.00  0.00    +0.000 HD
BRANCH  20  22
ATOM     22  C   UNL     1       1.628   3.776  19.268  0.00  0.00    +0.000 C 
ATOM     23  C   UNL     1       1.319   2.534  18.403  0.00  0.00    +0.000 C 
ATOM     24  C   UNL     1       2.560   1.810  17.862  0.00  0.00    +0.000 C 
ATOM     25  C   UNL     1       3.526   1.381  18.962  0.00  0.00    +0.000 C 
ATOM     26  C   UNL     1       3.894   2.569  19.843  0.00  0.00    +0.000 C 
ATOM     27  C   UNL     1       2.653   3.308  20.361  0.00  0.00    +0.000 C 
ENDBRANCH  20  22
ENDBRANCH   1  19
BRANCH   1  28
ATOM     28  C   UNL     1       4.623   7.161  17.752  0.00  0.00    +0.000 C 
BRANCH  28  29
ATOM     29  C   UNL     1       4.769   6.049  16.739  0.00  0.00    +0.000 A 
ATOM     30  C   UNL     1       4.771   4.685  17.074  0.00  0.00    +0.000 A 
ATOM     31  C   UNL     1       5.376   3.756  16.213  0.00  0.00    +0.000 A 
ATOM     32  C   UNL     1       5.883   4.185  14.994  0.00  0.00    +0.000 A 
ATOM     33  C   UNL     1       5.718   5.493  14.602  0.00  0.00    +0.000 A 
ATOM     34  C   UNL     1       5.136   6.420  15.458  0.00  0.00    +0.000 A 
ENDBRANCH  28  29
ENDBRANCH   1  28
TORSDOF 6
ENDMDL
MODEL 5
REMARK VINA RESULT:      -8.5      0.655      1.288
REMARK  Name = 
REMARK  6 active torsions:
REMARK  status: ('A' for Active; 'I' for Inactive)
REMARK    1  A    between atoms: C_2  and  C_10
REMARK    2  A    between atoms: N_3  and  C_4
REMARK    3  A    between atoms: C_10  and  C_11
REMARK    4  A    between atoms: C_10  and  N_18
REMARK    5  A    between atoms: C_11  and  C_12
REMARK    6  A    between atoms: C_23  and  O_24
REMARK                            x       y       z     vdW  Elec       q    Type
REMARK                         _______ _______ _______ _____ _____    ______ ____
ROOT
ATOM      1  C   UNL     1       0.166  10.318  18.751  0.00  0.00    +0.000 C 
ENDROOT
BRANCH   1   2
ATOM      2  N   UNL     1       1.470   9.443  17.991  0.00  0.00    +0.000 N 
ATOM      3  C   UNL     1       2.271   8.415  18.614  0.00  0.00    +0.000 C 
ATOM      4  O   UNL     1       2.097   8.357  19.841  0.00  0.00    +0.000 OA
ATOM      5  N   UNL     1       3.245   7.459  17.796  0.00  0.00    +0.000 N 
ATOM      6  C   UNL     1       2.901   6.379  18.849  0.00  0.00    +0.000 C 
ATOM      7  C   UNL     1       2.160   5.329  18.065  0.00  0.00    +0.000 C 
ATOM      8  N   UNL     1       2.795   4.338  17.574  0.00  0.00    +0.000 NA
ATOM      9  C   UNL     1       4.083   4.805  17.267  0.00  0.00    +0.000 A 
ATOM     10  C   UNL     1       4.949   3.740  16.851  0.00  0.00    +0.000 A 
ATOM     11  C   UNL     1       6.092   4.013  16.105  0.00  0.00    +0.000 A 
ATOM     12  C   UNL     1       6.337   5.356  15.883  0.00  0.00    +0.000 A 
ATOM     13  C   UNL     1       5.469   6.473  16.354  0.00  0.00    +0.000 A 
ATOM     14  C   UNL     1       4.292   6.278  17.121  0.00  0.00    +0.000 A 
ATOM     15  H   UNL     1       1.634   9.722  17.033  0.00  0.00    +0.000 HD
BRANCH   7  16
ATOM     16  O   UNL     1       1.049   5.739  17.431  0.00  0.00    +0.000 OA
ATOM     17  H   UNL     1       0.640   4.947  17.026  0.00  0.00    +0.000 HD
ENDBRANCH   7  16
ENDBRANCH   1   2
BRANCH   1  19
ATOM     18  O   UNL     1       1.419  11.281  20.760  0.00  0.00    +0.000 OA
ATOM     19  C   UNL     1       0.297  11.075  20.286  0.00  0.00    +0.000 C 
ATOM     20  N   UNL     1      -0.868  11.555  20.990  0.00  0.00    +0.000 N 
ATOM     21  H   UNL     1      -1.761  11.602  20.522  0.00  0.00    +0.000 HD
BRANCH  20  22
ATOM     22  C   UNL     1      -0.910  12.052  22.429  0.00  0.00    +0.000 C 
ATOM     23  C   UNL     1      -0.717  13.578  22.570  0.00  0.00    +0.000 C 
ATOM     24  C   UNL     1      -1.965  14.411  22.242  0.00  0.00    +0.000 C 
ATOM     25  C   UNL     1      -3.179  14.017  23.078  0.00  0.00    +0.000 C 
ATOM     26  C   UNL     1      -3.443  12.520  22.964  0.00  0.00    +0.000 C 
ATOM     27  C   UNL     1      -2.188  11.690  23.265  0.00  0.00    +0.000 C 
ENDBRANCH  20  22
ENDBRANCH   1  19
BRANCH   1  28
ATOM     28  C   UNL     1      -1.257   9.638  18.723  0.00  0.00    +0.000 C 
BRANCH  28  29
ATOM     29  C   UNL     1      -2.162  10.378  17.764  0.00  0.00    +0.000 A 
ATOM     30  C   UNL     1      -3.170  11.268  18.174  0.00  0.00    +0.000 A 
ATOM     31  C   UNL     1      -4.252  11.534  17.321  0.00  0.00    +0.000 A 
ATOM     32  C   UNL     1      -4.267  10.988  16.045  0.00  0.00    +0.000 A 
ATOM     33  C   UNL     1      -3.188  10.263  15.595  0.00  0.00    +0.000 A 
ATOM     34  C   UNL     1      -2.123   9.981  16.440  0.00  0.00    +0.000 A 
ENDBRANCH  28  29
ENDBRANCH   1  28
TORSDOF 6
ENDMDL
MODEL 6
REMARK VINA RESULT:      -8.5      2.807      9.009
REMARK  Name = 
REMARK  6 active torsions:
REMARK  status: ('A' for Active; 'I' for Inactive)
REMARK    1  A    between atoms: C_2  and  C_10
REMARK    2  A    between atoms: N_3  and  C_4
REMARK    3  A    between atoms: C_10  and  C_11
REMARK    4  A    between atoms: C_10  and  N_18
REMARK    5  A    between atoms: C_11  and  C_12
REMARK    6  A    between atoms: C_23  and  O_24
REMARK                            x       y       z     vdW  Elec       q    Type
REMARK                         _______ _______ _______ _____ _____    ______ ____
ROOT
ATOM      1  C   UNL     1       3.111   6.581  17.376  0.00  0.00    +0.000 C 
ENDROOT
BRANCH   1   2
ATOM      2  N   UNL     1       3.084   8.264  17.834  0.00  0.00    +0.000 N 
ATOM      3  C   UNL     1       1.913   9.108  17.876  0.00  0.00    +0.000 C 
ATOM      4  O   UNL     1       0.930   8.582  17.331  0.00  0.00    +0.000 OA
ATOM      5  N   UNL     1       1.899  10.540  18.569  0.00  0.00    +0.000 N 
ATOM      6  C   UNL     1       0.423  10.240  18.924  0.00  0.00    +0.000 C 
ATOM      7  C   UNL     1       0.420  10.157  20.427  0.00  0.00    +0.000 C 
ATOM      8  N   UNL     1       0.148  11.193  21.119  0.00  0.00    +0.000 NA
ATOM      9  C   UNL     1       0.608  12.296  20.379  0.00  0.00    +0.000 A 
ATOM     10  C   UNL     1       0.219  13.538  20.981  0.00  0.00    +0.000 A 
ATOM     11  C   UNL     1       0.907  14.711  20.682  0.00  0.00    +0.000 A 
ATOM     12  C   UNL     1       1.904  14.576  19.734  0.00  0.00    +0.000 A 
ATOM     13  C   UNL     1       2.283  13.298  19.067  0.00  0.00    +0.000 A 
ATOM     14  C   UNL     1       1.630  12.063  19.313  0.00  0.00    +0.000 A 
ATOM     15  H   UNL     1       3.996   8.627  18.081  0.00  0.00    +0.000 HD
BRANCH   7  16
ATOM     16  O   UNL     1       1.231   9.235  20.970  0.00  0.00    +0.000 OA
ATOM     17  H   UNL     1       1.757   9.686  21.661  0.00  0.00    +0.000 HD
ENDBRANCH   7  16
ENDBRANCH   1   2
BRANCH   1  19
ATOM     18  O   UNL     1       2.395   5.498  19.577  0.00  0.00    +0.000 OA
ATOM     19  C   UNL     1       2.488   5.319  18.359  0.00  0.00    +0.000 C 
ATOM     20  N   UNL     1       1.990   4.093  17.783  0.00  0.00    +0.000 N 
ATOM     21  H   UNL     1       1.848   4.021  16.786  0.00  0.00    +0.000 HD
BRANCH  20  22
ATOM     22  C   UNL     1       1.607   2.831  18.543  0.00  0.00    +0.000 C 
ATOM     23  C   UNL     1       2.815   1.993  19.015  0.00  0.00    +0.000 C 
ATOM     24  C   UNL     1       3.519   2.536  20.267  0.00  0.00    +0.000 C 
ATOM     25  C   UNL     1       2.576   2.701  21.455  0.00  0.00    +0.000 C 
ATOM     26  C   UNL     1       1.367   3.543  21.064  0.00  0.00    +0.000 C 
ATOM     27  C   UNL     1       0.681   3.015  19.798  0.00  0.00    +0.000 C 
ENDBRANCH  20  22
ENDBRANCH   1  19
BRANCH   1  28
ATOM     28  C   UNL     1       4.458   6.032  16.766  0.00  0.00    +0.000 C 
BRANCH  28  29
ATOM     29  C   UNL     1       5.615   6.386  17.671  0.00  0.00    +0.000 A 
ATOM     30  C   UNL     1       6.577   7.362  17.361  0.00  0.00    +0.000 A 
ATOM     31  C   UNL     1       7.843   7.310  17.965  0.00  0.00    +0.000 A 
ATOM     32  C   UNL     1       8.098   6.349  18.934  0.00  0.00    +0.000 A 
ATOM     33  C   UNL     1       7.090   5.513  19.355  0.00  0.00    +0.000 A 
ATOM     34  C   UNL     1       5.842   5.548  18.748  0.00  0.00    +0.000 A 
ENDBRANCH  28  29
ENDBRANCH   1  28
TORSDOF 6
ENDMDL
MODEL 7
REMARK VINA RESULT:      -8.3      2.328      9.468
REMARK  Name = 
REMARK  6 active torsions:
REMARK  status: ('A' for Active; 'I' for Inactive)
REMARK    1  A    between atoms: C_2  and  C_10
REMARK    2  A    between atoms: N_3  and  C_4
REMARK    3  A    between atoms: C_10  and  C_11
REMARK    4  A    between atoms: C_10  and  N_18
REMARK    5  A    between atoms: C_11  and  C_12
REMARK    6  A    between atoms: C_23  and  O_24
REMARK                            x       y       z     vdW  Elec       q    Type
REMARK                         _______ _______ _______ _____ _____    ______ ____
ROOT
ATOM      1  C   UNL     1       1.611   5.595  20.284  0.00  0.00    +0.000 C 
ENDROOT
BRANCH   1   2
ATOM      2  N   UNL     1       0.785   6.929  21.047  0.00  0.00    +0.000 N 
ATOM      3  C   UNL     1       1.137   8.323  20.916  0.00  0.00    +0.000 C 
ATOM      4  O   UNL     1       2.243   8.485  20.378  0.00  0.00    +0.000 OA
ATOM      5  N   UNL     1       0.187   9.506  21.396  0.00  0.00    +0.000 N 
ATOM      6  C   UNL     1       0.774  10.317  20.216  0.00  0.00    +0.000 C 
ATOM      7  C   UNL     1      -0.401  10.526  19.298  0.00  0.00    +0.000 C 
ATOM      8  N   UNL     1      -1.101  11.587  19.396  0.00  0.00    +0.000 NA
ATOM      9  C   UNL     1      -1.066  11.963  20.749  0.00  0.00    +0.000 A 
ATOM     10  C   UNL     1      -1.690  13.237  20.962  0.00  0.00    +0.000 A 
ATOM     11  C   UNL     1      -2.148  13.593  22.228  0.00  0.00    +0.000 A 
ATOM     12  C   UNL     1      -1.883  12.671  23.224  0.00  0.00    +0.000 A 
ATOM     13  C   UNL     1      -1.191  11.366  23.021  0.00  0.00    +0.000 A 
ATOM     14  C   UNL     1      -0.693  10.933  21.766  0.00  0.00    +0.000 A 
ATOM     15  H   UNL     1       0.001   6.640  21.618  0.00  0.00    +0.000 HD
BRANCH   7  16
ATOM     16  O   UNL     1      -1.007   9.414  18.851  0.00  0.00    +0.000 OA
ATOM     17  H   UNL     1      -1.575   9.084  19.576  0.00  0.00    +0.000 HD
ENDBRANCH   7  16
ENDBRANCH   1   2
BRANCH   1  19
ATOM     18  O   UNL     1       1.636   5.984  17.758  0.00  0.00    +0.000 OA
ATOM     19  C   UNL     1       2.336   5.689  18.731  0.00  0.00    +0.000 C 
ATOM     20  N   UNL     1       3.759   5.521  18.554  0.00  0.00    +0.000 N 
ATOM     21  H   UNL     1       4.373   5.508  19.355  0.00  0.00    +0.000 HD
BRANCH  20  22
ATOM     22  C   UNL     1       4.491   5.379  17.227  0.00  0.00    +0.000 C 
ATOM     23  C   UNL     1       5.044   6.709  16.671  0.00  0.00    +0.000 C 
ATOM     24  C   UNL     1       6.341   7.189  17.338  0.00  0.00    +0.000 C 
ATOM     25  C   UNL     1       7.462   6.156  17.271  0.00  0.00    +0.000 C 
ATOM     26  C   UNL     1       6.990   4.818  17.829  0.00  0.00    +0.000 C 
ATOM     27  C   UNL     1       5.679   4.354  17.181  0.00  0.00    +0.000 C 
ENDBRANCH  20  22
ENDBRANCH   1  19
BRANCH   1  28
ATOM     28  C   UNL     1       0.897   4.189  20.345  0.00  0.00    +0.000 C 
BRANCH  28  29
ATOM     29  C   UNL     1       1.895   3.092  20.052  0.00  0.00    +0.000 A 
ATOM     30  C   UNL     1       3.058   2.874  20.809  0.00  0.00    +0.000 A 
ATOM     31  C   UNL     1       4.148   2.202  20.235  0.00  0.00    +0.000 A 
ATOM     32  C   UNL     1       4.029   1.677  18.956  0.00  0.00    +0.000 A 
ATOM     33  C   UNL     1       2.825   1.744  18.294  0.00  0.00    +0.000 A 
ATOM     34  C   UNL     1       1.749   2.424  18.849  0.00  0.00    +0.000 A 
ENDBRANCH  28  29
ENDBRANCH   1  28
TORSDOF 6
ENDMDL
MODEL 8
REMARK VINA RESULT:      -8.3      1.697      3.821
REMARK  Name = 
REMARK  6 active torsions:
REMARK  status: ('A' for Active; 'I' for Inactive)
REMARK    1  A    between atoms: C_2  and  C_10
REMARK    2  A    between atoms: N_3  and  C_4
REMARK    3  A    between atoms: C_10  and  C_11
REMARK    4  A    between atoms: C_10  and  N_18
REMARK    5  A    between atoms: C_11  and  C_12
REMARK    6  A    between atoms: C_23  and  O_24
REMARK                            x       y       z     vdW  Elec       q    Type
REMARK                         _______ _______ _______ _____ _____    ______ ____
ROOT
ATOM      1  C   UNL     1      -0.071  10.069  18.601  0.00  0.00    +0.000 C 
ENDROOT
BRANCH   1   2
ATOM      2  N   UNL     1       1.235   9.235  17.801  0.00  0.00    +0.000 N 
ATOM      3  C   UNL     1       2.159   8.319  18.427  0.00  0.00    +0.000 C 
ATOM      4  O   UNL     1       2.085   8.343  19.665  0.00  0.00    +0.000 OA
ATOM      5  N   UNL     1       3.140   7.376  17.601  0.00  0.00    +0.000 N 
ATOM      6  C   UNL     1       2.963   6.358  18.753  0.00  0.00    +0.000 C 
ATOM      7  C   UNL     1       2.249   5.200  18.109  0.00  0.00    +0.000 C 
ATOM      8  N   UNL     1       2.920   4.223  17.639  0.00  0.00    +0.000 NA
ATOM      9  C   UNL     1       4.141   4.757  17.194  0.00  0.00    +0.000 A 
ATOM     10  C   UNL     1       5.053   3.728  16.785  0.00  0.00    +0.000 A 
ATOM     11  C   UNL     1       6.111   4.025  15.930  0.00  0.00    +0.000 A 
ATOM     12  C   UNL     1       6.232   5.361  15.595  0.00  0.00    +0.000 A 
ATOM     13  C   UNL     1       5.318   6.445  16.055  0.00  0.00    +0.000 A 
ATOM     14  C   UNL     1       4.222   6.226  16.928  0.00  0.00    +0.000 A 
ATOM     15  H   UNL     1       1.303   9.450  16.815  0.00  0.00    +0.000 HD
BRANCH   7  16
ATOM     16  O   UNL     1       1.064   5.478  17.541  0.00  0.00    +0.000 OA
ATOM     17  H   UNL     1       0.370   5.205  18.175  0.00  0.00    +0.000 HD
ENDBRANCH   7  16
ENDBRANCH   1   2
BRANCH   1  19
ATOM     18  O   UNL     1      -1.777  10.027  16.699  0.00  0.00    +0.000 OA
ATOM     19  C   UNL     1      -1.580  10.409  17.857  0.00  0.00    +0.000 C 
ATOM     20  N   UNL     1      -2.650  11.050  18.583  0.00  0.00    +0.000 N 
ATOM     21  H   UNL     1      -2.589  11.162  19.585  0.00  0.00    +0.000 HD
BRANCH  20  22
ATOM     22  C   UNL     1      -3.946  11.586  17.991  0.00  0.00    +0.000 C 
ATOM     23  C   UNL     1      -4.994  10.494  17.686  0.00  0.00    +0.000 C 
ATOM     24  C   UNL     1      -5.762   9.987  18.915  0.00  0.00    +0.000 C 
ATOM     25  C   UNL     1      -6.465  11.106  19.680  0.00  0.00    +0.000 C 
ATOM     26  C   UNL     1      -5.478  12.211  20.036  0.00  0.00    +0.000 C 
ATOM     27  C   UNL     1      -4.692  12.698  18.811  0.00  0.00    +0.000 C 
ENDBRANCH  20  22
ENDBRANCH   1  19
BRANCH   1  28
ATOM     28  C   UNL     1       0.309  11.361  19.423  0.00  0.00    +0.000 C 
BRANCH  28  29
ATOM     29  C   UNL     1       0.081  11.119  20.897  0.00  0.00    +0.000 A 
ATOM     30  C   UNL     1       0.489   9.954  21.568  0.00  0.00    +0.000 A 
ATOM     31  C   UNL     1      -0.150   9.575  22.759  0.00  0.00    +0.000 A 
ATOM     32  C   UNL     1      -1.115  10.406  23.310  0.00  0.00    +0.000 A 
ATOM     33  C   UNL     1      -1.379  11.628  22.737  0.00  0.00    +0.000 A 
ATOM     34  C   UNL     1      -0.764  12.000  21.549  0.00  0.00    +0.000 A 
ENDBRANCH  28  29
ENDBRANCH   1  28
TORSDOF 6
ENDMDL
MODEL 9
REMARK VINA RESULT:      -8.2      1.734      2.536
REMARK  Name = 
REMARK  6 active torsions:
REMARK  status: ('A' for Active; 'I' for Inactive)
REMARK    1  A    between atoms: C_2  and  C_10
REMARK    2  A    between atoms: N_3  and  C_4
REMARK    3  A    between atoms: C_10  and  C_11
REMARK    4  A    between atoms: C_10  and  N_18
REMARK    5  A    between atoms: C_11  and  C_12
REMARK    6  A    between atoms: C_23  and  O_24
REMARK                            x       y       z     vdW  Elec       q    Type
REMARK                         _______ _______ _______ _____ _____    ______ ____
ROOT
ATOM      1  C   UNL     1       0.045  10.578  18.276  0.00  0.00    +0.000 C 
ENDROOT
BRANCH   1   2
ATOM      2  N   UNL     1       1.370   9.652  17.621  0.00  0.00    +0.000 N 
ATOM      3  C   UNL     1       2.182   8.709  18.354  0.00  0.00    +0.000 C 
ATOM      4  O   UNL     1       1.998   8.776  19.579  0.00  0.00    +0.000 OA
ATOM      5  N   UNL     1       3.179   7.690  17.647  0.00  0.00    +0.000 N 
ATOM      6  C   UNL     1       2.844   6.720  18.805  0.00  0.00    +0.000 C 
ATOM      7  C   UNL     1       2.128   5.581  18.130  0.00  0.00    +0.000 C 
ATOM      8  N   UNL     1       2.784   4.555  17.750  0.00  0.00    +0.000 NA
ATOM      9  C   UNL     1       4.067   5.010  17.404  0.00  0.00    +0.000 A 
ATOM     10  C   UNL     1       4.954   3.923  17.108  0.00  0.00    +0.000 A 
ATOM     11  C   UNL     1       6.099   4.137  16.346  0.00  0.00    +0.000 A 
ATOM     12  C   UNL     1       6.323   5.453  15.987  0.00  0.00    +0.000 A 
ATOM     13  C   UNL     1       5.433   6.598  16.332  0.00  0.00    +0.000 A 
ATOM     14  C   UNL     1       4.252   6.464  17.107  0.00  0.00    +0.000 A 
ATOM     15  H   UNL     1       1.538   9.832  16.640  0.00  0.00    +0.000 HD
BRANCH   7  16
ATOM     16  O   UNL     1       1.016   5.903  17.449  0.00  0.00    +0.000 OA
ATOM     17  H   UNL     1       1.130   5.567  16.536  0.00  0.00    +0.000 HD
ENDBRANCH   7  16
ENDBRANCH   1   2
BRANCH   1  19
ATOM     18  O   UNL     1       0.575  11.482  20.607  0.00  0.00    +0.000 OA
ATOM     19  C   UNL     1       0.237  11.803  19.464  0.00  0.00    +0.000 C 
ATOM     20  N   UNL     1       0.099  13.200  19.133  0.00  0.00    +0.000 N 
ATOM     21  H   UNL     1       0.049  13.492  18.167  0.00  0.00    +0.000 HD
BRANCH  20  22
ATOM     22  C   UNL     1       0.041  14.359  20.119  0.00  0.00    +0.000 C 
ATOM     23  C   UNL     1       1.416  14.994  20.419  0.00  0.00    +0.000 C 
ATOM     24  C   UNL     1       1.932  15.944  19.329  0.00  0.00    +0.000 C 
ATOM     25  C   UNL     1       0.956  17.075  19.016  0.00  0.00    +0.000 C 
ATOM     26  C   UNL     1      -0.422  16.515  18.684  0.00  0.00    +0.000 C 
ATOM     27  C   UNL     1      -0.924  15.544  19.761  0.00  0.00    +0.000 C 
ENDBRANCH  20  22
ENDBRANCH   1  19
BRANCH   1  28
ATOM     28  C   UNL     1      -1.250   9.775  18.686  0.00  0.00    +0.000 C 
BRANCH  28  29
ATOM     29  C   UNL     1      -2.323   9.959  17.638  0.00  0.00    +0.000 A 
ATOM     30  C   UNL     1      -2.149   9.643  16.280  0.00  0.00    +0.000 A 
ATOM     31  C   UNL     1      -2.953  10.263  15.312  0.00  0.00    +0.000 A 
ATOM     32  C   UNL     1      -3.976  11.111  15.714  0.00  0.00    +0.000 A 
ATOM     33  C   UNL     1      -4.248  11.273  17.053  0.00  0.00    +0.000 A 
ATOM     34  C   UNL     1      -3.443  10.677  18.015  0.00  0.00    +0.000 A 
ENDBRANCH  28  29
ENDBRANCH   1  28
TORSDOF 6
ENDMDL
