MODEL 1
REMARK VINA RESULT:      -7.7      0.000      0.000
REMARK  Name = 
REMARK  13 active torsions:
REMARK  status: ('A' for Active; 'I' for Inactive)
REMARK    1  A    between atoms: C_1  and  C_2
REMARK    2  A    between atoms: C_2  and  C_3
REMARK    3  A    between atoms: C_3  and  C_4
REMARK    4  A    between atoms: C_3  and  C_5
REMARK    5  A    between atoms: C_3  and  C_24
REMARK    6  A    between atoms: C_5  and  C_6
REMARK    7  A    between atoms: C_9  and  O_10
REMARK    8  A    between atoms: O_10  and  C_11
REMARK    9  A    between atoms: C_11  and  C_12
REMARK   10  A    between atoms: C_12  and  C_13
REMARK   11  A    between atoms: C_13  and  O_14
REMARK   12  A    between atoms: O_14  and  C_15
REMARK   13  A    between atoms: C_24  and  O_26
REMARK                            x       y       z     vdW  Elec       q    Type
REMARK                         _______ _______ _______ _____ _____    ______ ____
ROOT
ATOM      1  C   UNL     1       4.310   4.249  17.324  0.00  0.00    +0.000 A 
ATOM      2  C   UNL     1       4.485   5.356  18.156  0.00  0.00    +0.000 A 
ATOM      3  C   UNL     1       5.574   6.202  17.986  0.00  0.00    +0.000 A 
ATOM      4  C   UNL     1       6.538   5.942  17.009  0.00  0.00    +0.000 A 
ATOM      5  C   UNL     1       6.430   4.775  16.254  0.00  0.00    +0.000 A 
ATOM      6  C   UNL     1       5.323   3.929  16.412  0.00  0.00    +0.000 A 
ENDROOT
BRANCH   1   7
ATOM      7  C   UNL     1       3.011   3.475  17.390  0.00  0.00    +0.000 C 
BRANCH   7   8
ATOM      8  C   UNL     1       2.700   2.804  18.774  0.00  0.00    +0.000 C 
ATOM      9  C   UNL     1       1.462   1.889  18.629  0.00  0.00    +0.000 C 
BRANCH   8  11
ATOM     10  C   UNL     1       0.977   4.005  20.330  0.00  0.00    +0.000 C 
ATOM     11  C   UNL     1       2.433   3.828  19.914  0.00  0.00    +0.000 C 
ENDBRANCH   8  11
BRANCH   8  12
ATOM     12  C   UNL     1       3.907   1.924  19.134  0.00  0.00    +0.000 C 
ATOM     13  O   UNL     1       4.679   2.151  20.054  0.00  0.00    +0.000 OA
BRANCH  12  14
ATOM     14  O   UNL     1       4.069   0.833  18.354  0.00  0.00    +0.000 OA
ATOM     15  H   UNL     1       4.536   0.980  17.512  0.00  0.00    +0.000 HD
ENDBRANCH  12  14
ENDBRANCH   8  12
ENDBRANCH   7   8
ENDBRANCH   1   7
BRANCH   4  16
ATOM     16  O   UNL     1       7.601   6.770  16.718  0.00  0.00    +0.000 OA
BRANCH  16  17
ATOM     17  C   UNL     1       7.465   8.074  17.281  0.00  0.00    +0.000 C 
BRANCH  17  18
ATOM     18  C   UNL     1       8.490   8.364  18.366  0.00  0.00    +0.000 C 
BRANCH  18  19
ATOM     19  C   UNL     1       8.711   9.878  18.395  0.00  0.00    +0.000 C 
BRANCH  19  20
ATOM     20  O   UNL     1       9.205  10.279  19.665  0.00  0.00    +0.000 OA
BRANCH  20  21
ATOM     21  C   UNL     1       9.941  11.438  19.715  0.00  0.00    +0.000 A 
ATOM     22  C   UNL     1      10.941  11.477  18.730  0.00  0.00    +0.000 A 
ATOM     23  C   UNL     1      11.859  12.526  18.668  0.00  0.00    +0.000 A 
ATOM     24  C   UNL     1      11.797  13.558  19.596  0.00  0.00    +0.000 A 
ATOM     25  C   UNL     1      10.809  13.538  20.578  0.00  0.00    +0.000 A 
ATOM     26  C   UNL     1       9.884  12.484  20.650  0.00  0.00    +0.000 A 
ATOM     27 CL   UNL     1       8.796  12.577  21.990  0.00  0.00    +0.000 Cl
ENDBRANCH  20  21
ENDBRANCH  19  20
ENDBRANCH  18  19
ENDBRANCH  17  18
ENDBRANCH  16  17
ENDBRANCH   4  16
TORSDOF 11
ENDMDL
MODEL 2
REMARK VINA RESULT:      -7.7      4.373      7.227
REMARK  Name = 
REMARK  13 active torsions:
REMARK  status: ('A' for Active; 'I' for Inactive)
REMARK    1  A    between atoms: C_1  and  C_2
REMARK    2  A    between atoms: C_2  and  C_3
REMARK    3  A    between atoms: C_3  and  C_4
REMARK    4  A    between atoms: C_3  and  C_5
REMARK    5  A    between atoms: C_3  and  C_24
REMARK    6  A    between atoms: C_5  and  C_6
REMARK    7  A    between atoms: C_9  and  O_10
REMARK    8  A    between atoms: O_10  and  C_11
REMARK    9  A    between atoms: C_11  and  C_12
REMARK   10  A    between atoms: C_12  and  C_13
REMARK   11  A    between atoms: C_13  and  O_14
REMARK   12  A    between atoms: O_14  and  C_15
REMARK   13  A    between atoms: C_24  and  O_26
REMARK                            x       y       z     vdW  Elec       q    Type
REMARK                         _______ _______ _______ _____ _____    ______ ____
ROOT
ATOM      1  C   UNL     1       3.845   3.427  16.988  0.00  0.00    +0.000 A 
ATOM      2  C   UNL     1       2.558   3.947  17.135  0.00  0.00    +0.000 A 
ATOM      3  C   UNL     1       1.709   3.462  18.122  0.00  0.00    +0.000 A 
ATOM      4  C   UNL     1       2.107   2.418  18.961  0.00  0.00    +0.000 A 
ATOM      5  C   UNL     1       3.345   1.817  18.742  0.00  0.00    +0.000 A 
ATOM      6  C   UNL     1       4.211   2.316  17.758  0.00  0.00    +0.000 A 
ENDROOT
BRANCH   1   7
ATOM      7  C   UNL     1       4.817   4.116  16.055  0.00  0.00    +0.000 C 
BRANCH   7   8
ATOM      8  C   UNL     1       5.831   5.094  16.747  0.00  0.00    +0.000 C 
ATOM      9  C   UNL     1       5.843   4.818  18.269  0.00  0.00    +0.000 C 
BRANCH   8  11
ATOM     10  C   UNL     1       6.342   7.596  17.302  0.00  0.00    +0.000 C 
ATOM     11  C   UNL     1       5.503   6.596  16.515  0.00  0.00    +0.000 C 
ENDBRANCH   8  11
BRANCH   8  12
ATOM     12  C   UNL     1       7.227   4.772  16.191  0.00  0.00    +0.000 C 
ATOM     13  O   UNL     1       7.626   5.112  15.087  0.00  0.00    +0.000 OA
BRANCH  12  14
ATOM     14  O   UNL     1       8.026   4.073  17.026  0.00  0.00    +0.000 OA
ATOM     15  H   UNL     1       7.796   4.123  17.972  0.00  0.00    +0.000 HD
ENDBRANCH  12  14
ENDBRANCH   8  12
ENDBRANCH   7   8
ENDBRANCH   1   7
BRANCH   4  16
ATOM     16  O   UNL     1       1.363   1.935  20.016  0.00  0.00    +0.000 OA
BRANCH  16  17
ATOM     17  C   UNL     1       1.020   2.942  20.967  0.00  0.00    +0.000 C 
BRANCH  17  18
ATOM     18  C   UNL     1       2.152   3.922  21.230  0.00  0.00    +0.000 C 
BRANCH  18  19
ATOM     19  C   UNL     1       1.607   5.330  20.974  0.00  0.00    +0.000 C 
BRANCH  19  20
ATOM     20  O   UNL     1       2.597   6.134  20.351  0.00  0.00    +0.000 OA
BRANCH  20  21
ATOM     21  C   UNL     1       2.167   7.263  19.696  0.00  0.00    +0.000 A 
ATOM     22  C   UNL     1       2.576   7.289  18.353  0.00  0.00    +0.000 A 
ATOM     23  C   UNL     1       2.323   8.393  17.537  0.00  0.00    +0.000 A 
ATOM     24  C   UNL     1       1.656   9.497  18.052  0.00  0.00    +0.000 A 
ATOM     25  C   UNL     1       1.239   9.489  19.382  0.00  0.00    +0.000 A 
ATOM     26  C   UNL     1       1.494   8.384  20.211  0.00  0.00    +0.000 A 
ATOM     27 CL   UNL     1       0.992   8.589  21.852  0.00  0.00    +0.000 Cl
ENDBRANCH  20  21
ENDBRANCH  19  20
ENDBRANCH  18  19
ENDBRANCH  17  18
ENDBRANCH  16  17
ENDBRANCH   4  16
TORSDOF 11
ENDMDL
MODEL 3
REMARK VINA RESULT:      -7.5      1.978      2.633
REMARK  Name = 
REMARK  13 active torsions:
REMARK  status: ('A' for Active; 'I' for Inactive)
REMARK    1  A    between atoms: C_1  and  C_2
REMARK    2  A    between atoms: C_2  and  C_3
REMARK    3  A    between atoms: C_3  and  C_4
REMARK    4  A    between atoms: C_3  and  C_5
REMARK    5  A    between atoms: C_3  and  C_24
REMARK    6  A    between atoms: C_5  and  C_6
REMARK    7  A    between atoms: C_9  and  O_10
REMARK    8  A    between atoms: O_10  and  C_11
REMARK    9  A    between atoms: C_11  and  C_12
REMARK   10  A    between atoms: C_12  and  C_13
REMARK   11  A    between atoms: C_13  and  O_14
REMARK   12  A    between atoms: O_14  and  C_15
REMARK   13  A    between atoms: C_24  and  O_26
REMARK                            x       y       z     vdW  Elec       q    Type
REMARK                         _______ _______ _______ _____ _____    ______ ____
ROOT
ATOM      1  C   UNL     1       2.936   5.121  17.625  0.00  0.00    +0.000 A 
ATOM      2  C   UNL     1       3.970   4.519  16.905  0.00  0.00    +0.000 A 
ATOM      3  C   UNL     1       5.103   5.243  16.559  0.00  0.00    +0.000 A 
ATOM      4  C   UNL     1       5.217   6.597  16.884  0.00  0.00    +0.000 A 
ATOM      5  C   UNL     1       4.138   7.231  17.499  0.00  0.00    +0.000 A 
ATOM      6  C   UNL     1       3.000   6.499  17.865  0.00  0.00    +0.000 A 
ENDROOT
BRANCH   1   7
ATOM      7  C   UNL     1       1.820   4.258  18.173  0.00  0.00    +0.000 C 
BRANCH   7   8
ATOM      8  C   UNL     1       1.982   3.827  19.673  0.00  0.00    +0.000 C 
ATOM      9  C   UNL     1       1.738   5.054  20.583  0.00  0.00    +0.000 C 
BRANCH   8  11
ATOM     10  C   UNL     1       3.768   1.968  19.243  0.00  0.00    +0.000 C 
ATOM     11  C   UNL     1       3.381   3.233  20.001  0.00  0.00    +0.000 C 
ENDBRANCH   8  11
BRANCH   8  12
ATOM     12  C   UNL     1       0.890   2.787  19.969  0.00  0.00    +0.000 C 
ATOM     13  O   UNL     1       0.247   2.198  19.113  0.00  0.00    +0.000 OA
BRANCH  12  14
ATOM     14  O   UNL     1       0.680   2.538  21.280  0.00  0.00    +0.000 OA
ATOM     15  H   UNL     1       1.365   2.006  21.724  0.00  0.00    +0.000 HD
ENDBRANCH  12  14
ENDBRANCH   8  12
ENDBRANCH   7   8
ENDBRANCH   1   7
BRANCH   4  16
ATOM     16  O   UNL     1       6.337   7.367  16.653  0.00  0.00    +0.000 OA
BRANCH  16  17
ATOM     17  C   UNL     1       7.514   6.840  17.262  0.00  0.00    +0.000 C 
BRANCH  17  18
ATOM     18  C   UNL     1       8.054   7.723  18.376  0.00  0.00    +0.000 C 
BRANCH  18  19
ATOM     19  C   UNL     1       8.404   9.079  17.757  0.00  0.00    +0.000 C 
BRANCH  19  20
ATOM     20  O   UNL     1       8.559  10.058  18.774  0.00  0.00    +0.000 OA
BRANCH  20  21
ATOM     21  C   UNL     1       9.373  11.129  18.494  0.00  0.00    +0.000 A 
ATOM     22  C   UNL     1      10.626  11.025  19.120  0.00  0.00    +0.000 A 
ATOM     23  C   UNL     1      11.566  12.053  19.039  0.00  0.00    +0.000 A 
ATOM     24  C   UNL     1      11.268  13.211  18.332  0.00  0.00    +0.000 A 
ATOM     25  C   UNL     1      10.031  13.331  17.702  0.00  0.00    +0.000 A 
ATOM     26  C   UNL     1       9.078  12.303  17.781  0.00  0.00    +0.000 A 
ATOM     27 CL   UNL     1       7.568  12.666  17.022  0.00  0.00    +0.000 Cl
ENDBRANCH  20  21
ENDBRANCH  19  20
ENDBRANCH  18  19
ENDBRANCH  17  18
ENDBRANCH  16  17
ENDBRANCH   4  16
TORSDOF 11
ENDMDL
MODEL 4
REMARK VINA RESULT:      -7.4      1.487      1.972
REMARK  Name = 
REMARK  13 active torsions:
REMARK  status: ('A' for Active; 'I' for Inactive)
REMARK    1  A    between atoms: C_1  and  C_2
REMARK    2  A    between atoms: C_2  and  C_3
REMARK    3  A    between atoms: C_3  and  C_4
REMARK    4  A    between atoms: C_3  and  C_5
REMARK    5  A    between atoms: C_3  and  C_24
REMARK    6  A    between atoms: C_5  and  C_6
REMARK    7  A    between atoms: C_9  and  O_10
REMARK    8  A    between atoms: O_10  and  C_11
REMARK    9  A    between atoms: C_11  and  C_12
REMARK   10  A    between atoms: C_12  and  C_13
REMARK   11  A    between atoms: C_13  and  O_14
REMARK   12  A    between atoms: O_14  and  C_15
REMARK   13  A    between atoms: C_24  and  O_26
REMARK                            x       y       z     vdW  Elec       q    Type
REMARK                         _______ _______ _______ _____ _____    ______ ____
ROOT
ATOM      1  C   UNL     1       4.558   4.146  18.691  0.00  0.00    +0.000 A 
ATOM      2  C   UNL     1       4.620   4.257  17.301  0.00  0.00    +0.000 A 
ATOM      3  C   UNL     1       5.597   5.038  16.698  0.00  0.00    +0.000 A 
ATOM      4  C   UNL     1       6.511   5.763  17.466  0.00  0.00    +0.000 A 
ATOM      5  C   UNL     1       6.380   5.749  18.854  0.00  0.00    +0.000 A 
ATOM      6  C   UNL     1       5.406   4.947  19.465  0.00  0.00    +0.000 A 
ENDROOT
BRANCH   1   7
ATOM      7  C   UNL     1       3.628   3.123  19.309  0.00  0.00    +0.000 C 
BRANCH   7   8
ATOM      8  C   UNL     1       2.126   3.563  19.416  0.00  0.00    +0.000 C 
ATOM      9  C   UNL     1       2.056   5.100  19.567  0.00  0.00    +0.000 C 
BRANCH   8  11
ATOM     10  C   UNL     1       2.112   2.892  21.943  0.00  0.00    +0.000 C 
ATOM     11  C   UNL     1       1.372   2.910  20.610  0.00  0.00    +0.000 C 
ENDBRANCH   8  11
BRANCH   8  12
ATOM     12  C   UNL     1       1.443   3.179  18.094  0.00  0.00    +0.000 C 
ATOM     13  O   UNL     1       0.988   3.982  17.293  0.00  0.00    +0.000 OA
BRANCH  12  14
ATOM     14  O   UNL     1       1.382   1.852  17.849  0.00  0.00    +0.000 OA
ATOM     15  H   UNL     1       1.875   1.544  17.067  0.00  0.00    +0.000 HD
ENDBRANCH  12  14
ENDBRANCH   8  12
ENDBRANCH   7   8
ENDBRANCH   1   7
BRANCH   4  16
ATOM     16  O   UNL     1       7.560   6.495  16.951  0.00  0.00    +0.000 OA
BRANCH  16  17
ATOM     17  C   UNL     1       7.486   7.883  17.272  0.00  0.00    +0.000 C 
BRANCH  17  18
ATOM     18  C   UNL     1       8.412   8.282  18.409  0.00  0.00    +0.000 C 
BRANCH  18  19
ATOM     19  C   UNL     1       8.616   9.797  18.325  0.00  0.00    +0.000 C 
BRANCH  19  20
ATOM     20  O   UNL     1       9.683  10.198  19.171  0.00  0.00    +0.000 OA
BRANCH  20  21
ATOM     21  C   UNL     1      10.180  11.467  18.997  0.00  0.00    +0.000 A 
ATOM     22  C   UNL     1      10.705  11.661  17.710  0.00  0.00    +0.000 A 
ATOM     23  C   UNL     1      11.343  12.852  17.358  0.00  0.00    +0.000 A 
ATOM     24  C   UNL     1      11.470  13.873  18.291  0.00  0.00    +0.000 A 
ATOM     25  C   UNL     1      10.952  13.699  19.573  0.00  0.00    +0.000 A 
ATOM     26  C   UNL     1      10.312  12.503  19.937  0.00  0.00    +0.000 A 
ATOM     27 CL   UNL     1       9.820  12.429  21.592  0.00  0.00    +0.000 Cl
ENDBRANCH  20  21
ENDBRANCH  19  20
ENDBRANCH  18  19
ENDBRANCH  17  18
ENDBRANCH  16  17
ENDBRANCH   4  16
TORSDOF 11
ENDMDL
MODEL 5
REMARK VINA RESULT:      -7.2      1.710      2.145
REMARK  Name = 
REMARK  13 active torsions:
REMARK  status: ('A' for Active; 'I' for Inactive)
REMARK    1  A    between atoms: C_1  and  C_2
REMARK    2  A    between atoms: C_2  and  C_3
REMARK    3  A    between atoms: C_3  and  C_4
REMARK    4  A    between atoms: C_3  and  C_5
REMARK    5  A    between atoms: C_3  and  C_24
REMARK    6  A    between atoms: C_5  and  C_6
REMARK    7  A    between atoms: C_9  and  O_10
REMARK    8  A    between atoms: O_10  and  C_11
REMARK    9  A    between atoms: C_11  and  C_12
REMARK   10  A    between atoms: C_12  and  C_13
REMARK   11  A    between atoms: C_13  and  O_14
REMARK   12  A    between atoms: O_14  and  C_15
REMARK   13  A    between atoms: C_24  and  O_26
REMARK                            x       y       z     vdW  Elec       q    Type
REMARK                         _______ _______ _______ _____ _____    ______ ____
ROOT
ATOM      1  C   UNL     1       3.843   5.324  18.869  0.00  0.00    +0.000 A 
ATOM      2  C   UNL     1       5.027   5.053  19.558  0.00  0.00    +0.000 A 
ATOM      3  C   UNL     1       6.249   5.485  19.060  0.00  0.00    +0.000 A 
ATOM      4  C   UNL     1       6.328   6.163  17.841  0.00  0.00    +0.000 A 
ATOM      5  C   UNL     1       5.163   6.333  17.093  0.00  0.00    +0.000 A 
ATOM      6  C   UNL     1       3.926   5.914  17.602  0.00  0.00    +0.000 A 
ENDROOT
BRANCH   1   7
ATOM      7  C   UNL     1       2.517   5.035  19.538  0.00  0.00    +0.000 C 
BRANCH   7   8
ATOM      8  C   UNL     1       2.091   3.525  19.554  0.00  0.00    +0.000 C 
ATOM      9  C   UNL     1       1.340   3.223  20.871  0.00  0.00    +0.000 C 
BRANCH   8  11
ATOM     10  C   UNL     1       3.425   1.821  18.088  0.00  0.00    +0.000 C 
ATOM     11  C   UNL     1       3.288   2.540  19.425  0.00  0.00    +0.000 C 
ENDBRANCH   8  11
BRANCH   8  12
ATOM     12  C   UNL     1       1.114   3.315  18.386  0.00  0.00    +0.000 C 
ATOM     13  O   UNL     1       1.081   4.008  17.380  0.00  0.00    +0.000 OA
BRANCH  12  14
ATOM     14  O   UNL     1       0.266   2.273  18.532  0.00  0.00    +0.000 OA
ATOM     15  H   UNL     1      -0.680   2.501  18.580  0.00  0.00    +0.000 HD
ENDBRANCH  12  14
ENDBRANCH   8  12
ENDBRANCH   7   8
ENDBRANCH   1   7
BRANCH   4  16
ATOM     16  O   UNL     1       7.484   6.698  17.316  0.00  0.00    +0.000 OA
BRANCH  16  17
ATOM     17  C   UNL     1       7.543   8.119  17.423  0.00  0.00    +0.000 C 
BRANCH  17  18
ATOM     18  C   UNL     1       8.498   8.595  18.506  0.00  0.00    +0.000 C 
BRANCH  18  19
ATOM     19  C   UNL     1       8.915  10.025  18.153  0.00  0.00    +0.000 C 
BRANCH  19  20
ATOM     20  O   UNL     1       9.005  10.816  19.329  0.00  0.00    +0.000 OA
BRANCH  20  21
ATOM     21  C   UNL     1       9.547  12.072  19.201  0.00  0.00    +0.000 A 
ATOM     22  C   UNL     1       9.851  12.389  17.867  0.00  0.00    +0.000 A 
ATOM     23  C   UNL     1      10.494  13.581  17.532  0.00  0.00    +0.000 A 
ATOM     24  C   UNL     1      10.851  14.480  18.529  0.00  0.00    +0.000 A 
ATOM     25  C   UNL     1      10.555  14.185  19.858  0.00  0.00    +0.000 A 
ATOM     26  C   UNL     1       9.911  12.986  20.204  0.00  0.00    +0.000 A 
ATOM     27 CL   UNL     1       9.713  12.745  21.904  0.00  0.00    +0.000 Cl
ENDBRANCH  20  21
ENDBRANCH  19  20
ENDBRANCH  18  19
ENDBRANCH  17  18
ENDBRANCH  16  17
ENDBRANCH   4  16
TORSDOF 11
ENDMDL
MODEL 6
REMARK VINA RESULT:      -7.1      6.013      8.537
REMARK  Name = 
REMARK  13 active torsions:
REMARK  status: ('A' for Active; 'I' for Inactive)
REMARK    1  A    between atoms: C_1  and  C_2
REMARK    2  A    between atoms: C_2  and  C_3
REMARK    3  A    between atoms: C_3  and  C_4
REMARK    4  A    between atoms: C_3  and  C_5
REMARK    5  A    between atoms: C_3  and  C_24
REMARK    6  A    between atoms: C_5  and  C_6
REMARK    7  A    between atoms: C_9  and  O_10
REMARK    8  A    between atoms: O_10  and  C_11
REMARK    9  A    between atoms: C_11  and  C_12
REMARK   10  A    between atoms: C_12  and  C_13
REMARK   11  A    between atoms: C_13  and  O_14
REMARK   12  A    between atoms: O_14  and  C_15
REMARK   13  A    between atoms: C_24  and  O_26
REMARK                            x       y       z     vdW  Elec       q    Type
REMARK                         _______ _______ _______ _____ _____    ______ ____
ROOT
ATOM      1  C   UNL     1       3.740   5.670  18.747  0.00  0.00    +0.000 A 
ATOM      2  C   UNL     1       4.079   6.264  17.530  0.00  0.00    +0.000 A 
ATOM      3  C   UNL     1       3.600   7.526  17.202  0.00  0.00    +0.000 A 
ATOM      4  C   UNL     1       2.736   8.211  18.060  0.00  0.00    +0.000 A 
ATOM      5  C   UNL     1       2.302   7.574  19.222  0.00  0.00    +0.000 A 
ATOM      6  C   UNL     1       2.798   6.308  19.564  0.00  0.00    +0.000 A 
ENDROOT
BRANCH   1   7
ATOM      7  C   UNL     1       4.445   4.399  19.170  0.00  0.00    +0.000 C 
BRANCH   7   8
ATOM      8  C   UNL     1       3.503   3.186  19.491  0.00  0.00    +0.000 C 
ATOM      9  C   UNL     1       2.513   2.987  18.319  0.00  0.00    +0.000 C 
BRANCH   8  11
ATOM     10  C   UNL     1       1.349   2.640  20.867  0.00  0.00    +0.000 C 
ATOM     11  C   UNL     1       2.691   3.361  20.805  0.00  0.00    +0.000 C 
ENDBRANCH   8  11
BRANCH   8  12
ATOM     12  C   UNL     1       4.389   1.935  19.587  0.00  0.00    +0.000 C 
ATOM     13  O   UNL     1       5.161   1.702  20.506  0.00  0.00    +0.000 OA
BRANCH  12  14
ATOM     14  O   UNL     1       4.256   1.062  18.564  0.00  0.00    +0.000 OA
ATOM     15  H   UNL     1       4.486   0.136  18.765  0.00  0.00    +0.000 HD
ENDBRANCH  12  14
ENDBRANCH   8  12
ENDBRANCH   7   8
ENDBRANCH   1   7
BRANCH   4  16
ATOM     16  O   UNL     1       2.283   9.495  17.853  0.00  0.00    +0.000 OA
BRANCH  16  17
ATOM     17  C   UNL     1       1.344   9.924  18.838  0.00  0.00    +0.000 C 
BRANCH  17  18
ATOM     18  C   UNL     1       0.688  11.253  18.496  0.00  0.00    +0.000 C 
BRANCH  18  19
ATOM     19  C   UNL     1      -0.607  11.346  19.308  0.00  0.00    +0.000 C 
BRANCH  19  20
ATOM     20  O   UNL     1      -1.462  10.256  18.995  0.00  0.00    +0.000 OA
BRANCH  20  21
ATOM     21  C   UNL     1      -2.382  10.447  17.993  0.00  0.00    +0.000 A 
ATOM     22  C   UNL     1      -2.032   9.774  16.811  0.00  0.00    +0.000 A 
ATOM     23  C   UNL     1      -2.786   9.914  15.645  0.00  0.00    +0.000 A 
ATOM     24  C   UNL     1      -3.907  10.735  15.638  0.00  0.00    +0.000 A 
ATOM     25  C   UNL     1      -4.272  11.408  16.802  0.00  0.00    +0.000 A 
ATOM     26  C   UNL     1      -3.516  11.276  17.978  0.00  0.00    +0.000 A 
ATOM     27 CL   UNL     1      -4.061  12.258  19.292  0.00  0.00    +0.000 Cl
ENDBRANCH  20  21
ENDBRANCH  19  20
ENDBRANCH  18  19
ENDBRANCH  17  18
ENDBRANCH  16  17
ENDBRANCH   4  16
TORSDOF 11
ENDMDL
MODEL 7
REMARK VINA RESULT:      -7.1      5.613      8.440
REMARK  Name = 
REMARK  13 active torsions:
REMARK  status: ('A' for Active; 'I' for Inactive)
REMARK    1  A    between atoms: C_1  and  C_2
REMARK    2  A    between atoms: C_2  and  C_3
REMARK    3  A    between atoms: C_3  and  C_4
REMARK    4  A    between atoms: C_3  and  C_5
REMARK    5  A    between atoms: C_3  and  C_24
REMARK    6  A    between atoms: C_5  and  C_6
REMARK    7  A    between atoms: C_9  and  O_10
REMARK    8  A    between atoms: O_10  and  C_11
REMARK    9  A    between atoms: C_11  and  C_12
REMARK   10  A    between atoms: C_12  and  C_13
REMARK   11  A    between atoms: C_13  and  O_14
REMARK   12  A    between atoms: O_14  and  C_15
REMARK   13  A    between atoms: C_24  and  O_26
REMARK                            x       y       z     vdW  Elec       q    Type
REMARK                         _______ _______ _______ _____ _____    ______ ____
ROOT
ATOM      1  C   UNL     1       4.356   4.155  17.601  0.00  0.00    +0.000 A 
ATOM      2  C   UNL     1       2.985   4.097  17.343  0.00  0.00    +0.000 A 
ATOM      3  C   UNL     1       2.086   4.797  18.136  0.00  0.00    +0.000 A 
ATOM      4  C   UNL     1       2.526   5.540  19.234  0.00  0.00    +0.000 A 
ATOM      5  C   UNL     1       3.880   5.508  19.566  0.00  0.00    +0.000 A 
ATOM      6  C   UNL     1       4.792   4.816  18.756  0.00  0.00    +0.000 A 
ENDROOT
BRANCH   1   7
ATOM      7  C   UNL     1       5.323   3.564  16.598  0.00  0.00    +0.000 C 
BRANCH   7   8
ATOM      8  C   UNL     1       6.055   4.605  15.680  0.00  0.00    +0.000 C 
ATOM      9  C   UNL     1       5.127   5.820  15.449  0.00  0.00    +0.000 C 
BRANCH   8  11
ATOM     10  C   UNL     1       5.369   3.922  13.252  0.00  0.00    +0.000 C 
ATOM     11  C   UNL     1       6.473   4.027  14.298  0.00  0.00    +0.000 C 
ENDBRANCH   8  11
BRANCH   8  12
ATOM     12  C   UNL     1       7.298   5.089  16.442  0.00  0.00    +0.000 C 
ATOM     13  O   UNL     1       7.647   6.258  16.525  0.00  0.00    +0.000 OA
BRANCH  12  14
ATOM     14  O   UNL     1       8.008   4.115  17.051  0.00  0.00    +0.000 OA
ATOM     15  H   UNL     1       7.507   3.546  17.663  0.00  0.00    +0.000 HD
ENDBRANCH  12  14
ENDBRANCH   8  12
ENDBRANCH   7   8
ENDBRANCH   1   7
BRANCH   4  16
ATOM     16  O   UNL     1       1.715   6.329  20.022  0.00  0.00    +0.000 OA
BRANCH  16  17
ATOM     17  C   UNL     1       2.144   7.688  20.083  0.00  0.00    +0.000 C 
BRANCH  17  18
ATOM     18  C   UNL     1       1.753   8.492  18.853  0.00  0.00    +0.000 C 
BRANCH  18  19
ATOM     19  C   UNL     1       0.826   9.618  19.318  0.00  0.00    +0.000 C 
BRANCH  19  20
ATOM     20  O   UNL     1       0.164  10.201  18.205  0.00  0.00    +0.000 OA
BRANCH  20  21
ATOM     21  C   UNL     1      -1.027  10.842  18.448  0.00  0.00    +0.000 A 
ATOM     22  C   UNL     1      -0.992  11.603  19.627  0.00  0.00    +0.000 A 
ATOM     23  C   UNL     1      -2.130  12.258  20.102  0.00  0.00    +0.000 A 
ATOM     24  C   UNL     1      -3.328  12.160  19.406  0.00  0.00    +0.000 A 
ATOM     25  C   UNL     1      -3.381  11.411  18.233  0.00  0.00    +0.000 A 
ATOM     26  C   UNL     1      -2.242  10.746  17.749  0.00  0.00    +0.000 A 
ATOM     27 CL   UNL     1      -2.518   9.789  16.337  0.00  0.00    +0.000 Cl
ENDBRANCH  20  21
ENDBRANCH  19  20
ENDBRANCH  18  19
ENDBRANCH  17  18
ENDBRANCH  16  17
ENDBRANCH   4  16
TORSDOF 11
ENDMDL
MODEL 8
REMARK VINA RESULT:      -7.1      1.802      2.321
REMARK  Name = 
REMARK  13 active torsions:
REMARK  status: ('A' for Active; 'I' for Inactive)
REMARK    1  A    between atoms: C_1  and  C_2
REMARK    2  A    between atoms: C_2  and  C_3
REMARK    3  A    between atoms: C_3  and  C_4
REMARK    4  A    between atoms: C_3  and  C_5
REMARK    5  A    between atoms: C_3  and  C_24
REMARK    6  A    between atoms: C_5  and  C_6
REMARK    7  A    between atoms: C_9  and  O_10
REMARK    8  A    between atoms: O_10  and  C_11
REMARK    9  A    between atoms: C_11  and  C_12
REMARK   10  A    between atoms: C_12  and  C_13
REMARK   11  A    between atoms: C_13  and  O_14
REMARK   12  A    between atoms: O_14  and  C_15
REMARK   13  A    between atoms: C_24  and  O_26
REMARK                            x       y       z     vdW  Elec       q    Type
REMARK                         _______ _______ _______ _____ _____    ______ ____
ROOT
ATOM      1  C   UNL     1       5.045   4.945  17.092  0.00  0.00    +0.000 A 
ATOM      2  C   UNL     1       6.300   4.376  17.313  0.00  0.00    +0.000 A 
ATOM      3  C   UNL     1       7.372   5.164  17.713  0.00  0.00    +0.000 A 
ATOM      4  C   UNL     1       7.231   6.545  17.863  0.00  0.00    +0.000 A 
ATOM      5  C   UNL     1       6.011   7.134  17.531  0.00  0.00    +0.000 A 
ATOM      6  C   UNL     1       4.923   6.339  17.143  0.00  0.00    +0.000 A 
ENDROOT
BRANCH   1   7
ATOM      7  C   UNL     1       3.853   4.039  16.870  0.00  0.00    +0.000 C 
BRANCH   7   8
ATOM      8  C   UNL     1       2.922   3.840  18.117  0.00  0.00    +0.000 C 
ATOM      9  C   UNL     1       1.497   4.329  17.771  0.00  0.00    +0.000 C 
BRANCH   8  11
ATOM     10  C   UNL     1       2.340   4.970  20.401  0.00  0.00    +0.000 C 
ATOM     11  C   UNL     1       3.413   4.594  19.386  0.00  0.00    +0.000 C 
ENDBRANCH   8  11
BRANCH   8  12
ATOM     12  C   UNL     1       2.856   2.331  18.399  0.00  0.00    +0.000 C 
ATOM     13  O   UNL     1       1.928   1.774  18.968  0.00  0.00    +0.000 OA
BRANCH  12  14
ATOM     14  O   UNL     1       3.915   1.621  17.954  0.00  0.00    +0.000 OA
ATOM     15  H   UNL     1       4.434   1.161  18.639  0.00  0.00    +0.000 HD
ENDBRANCH  12  14
ENDBRANCH   8  12
ENDBRANCH   7   8
ENDBRANCH   1   7
BRANCH   4  16
ATOM     16  O   UNL     1       8.215   7.386  18.334  0.00  0.00    +0.000 OA
BRANCH  16  17
ATOM     17  C   UNL     1       8.043   8.740  17.918  0.00  0.00    +0.000 C 
BRANCH  17  18
ATOM     18  C   UNL     1       8.912   9.717  18.694  0.00  0.00    +0.000 C 
BRANCH  18  19
ATOM     19  C   UNL     1       8.638  11.116  18.137  0.00  0.00    +0.000 C 
BRANCH  19  20
ATOM     20  O   UNL     1       9.845  11.710  17.683  0.00  0.00    +0.000 OA
BRANCH  20  21
ATOM     21  C   UNL     1      10.407  12.678  18.479  0.00  0.00    +0.000 A 
ATOM     22  C   UNL     1       9.738  12.814  19.706  0.00  0.00    +0.000 A 
ATOM     23  C   UNL     1      10.094  13.806  20.621  0.00  0.00    +0.000 A 
ATOM     24  C   UNL     1      11.127  14.686  20.324  0.00  0.00    +0.000 A 
ATOM     25  C   UNL     1      11.804  14.564  19.113  0.00  0.00    +0.000 A 
ATOM     26  C   UNL     1      11.451  13.571  18.184  0.00  0.00    +0.000 A 
ATOM     27 CL   UNL     1      12.333  13.633  16.700  0.00  0.00    +0.000 Cl
ENDBRANCH  20  21
ENDBRANCH  19  20
ENDBRANCH  18  19
ENDBRANCH  17  18
ENDBRANCH  16  17
ENDBRANCH   4  16
TORSDOF 11
ENDMDL
MODEL 9
REMARK VINA RESULT:      -7.1      1.621      1.923
REMARK  Name = 
REMARK  13 active torsions:
REMARK  status: ('A' for Active; 'I' for Inactive)
REMARK    1  A    between atoms: C_1  and  C_2
REMARK    2  A    between atoms: C_2  and  C_3
REMARK    3  A    between atoms: C_3  and  C_4
REMARK    4  A    between atoms: C_3  and  C_5
REMARK    5  A    between atoms: C_3  and  C_24
REMARK    6  A    between atoms: C_5  and  C_6
REMARK    7  A    between atoms: C_9  and  O_10
REMARK    8  A    between atoms: O_10  and  C_11
REMARK    9  A    between atoms: C_11  and  C_12
REMARK   10  A    between atoms: C_12  and  C_13
REMARK   11  A    between atoms: C_13  and  O_14
REMARK   12  A    between atoms: O_14  and  C_15
REMARK   13  A    between atoms: C_24  and  O_26
REMARK                            x       y       z     vdW  Elec       q    Type
REMARK                         _______ _______ _______ _____ _____    ______ ____
ROOT
ATOM      1  C   UNL     1       5.116   4.401  18.192  0.00  0.00    +0.000 A 
ATOM      2  C   UNL     1       5.997   4.925  19.139  0.00  0.00    +0.000 A 
ATOM      3  C   UNL     1       6.935   5.884  18.778  0.00  0.00    +0.000 A 
ATOM      4  C   UNL     1       7.046   6.315  17.454  0.00  0.00    +0.000 A 
ATOM      5  C   UNL     1       6.248   5.711  16.483  0.00  0.00    +0.000 A 
ATOM      6  C   UNL     1       5.289   4.755  16.848  0.00  0.00    +0.000 A 
ENDROOT
BRANCH   1   7
ATOM      7  C   UNL     1       3.971   3.526  18.653  0.00  0.00    +0.000 C 
BRANCH   7   8
ATOM      8  C   UNL     1       2.647   4.289  19.010  0.00  0.00    +0.000 C 
ATOM      9  C   UNL     1       2.698   5.708  18.400  0.00  0.00    +0.000 C 
BRANCH   8  11
ATOM     10  C   UNL     1       1.600   5.632  20.993  0.00  0.00    +0.000 C 
ATOM     11  C   UNL     1       2.395   4.412  20.540  0.00  0.00    +0.000 C 
ENDBRANCH   8  11
BRANCH   8  12
ATOM     12  C   UNL     1       1.489   3.524  18.350  0.00  0.00    +0.000 C 
ATOM     13  O   UNL     1       1.026   2.473  18.769  0.00  0.00    +0.000 OA
BRANCH  12  14
ATOM     14  O   UNL     1       0.981   4.106  17.242  0.00  0.00    +0.000 OA
ATOM     15  H   UNL     1       1.501   3.989  16.426  0.00  0.00    +0.000 HD
ENDBRANCH  12  14
ENDBRANCH   8  12
ENDBRANCH   7   8
ENDBRANCH   1   7
BRANCH   4  16
ATOM     16  O   UNL     1       7.888   7.319  17.025  0.00  0.00    +0.000 OA
BRANCH  16  17
ATOM     17  C   UNL     1       7.573   8.592  17.587  0.00  0.00    +0.000 C 
BRANCH  17  18
ATOM     18  C   UNL     1       8.632   9.093  18.557  0.00  0.00    +0.000 C 
BRANCH  18  19
ATOM     19  C   UNL     1       9.028  10.504  18.113  0.00  0.00    +0.000 C 
BRANCH  19  20
ATOM     20  O   UNL     1       9.303  11.316  19.245  0.00  0.00    +0.000 OA
BRANCH  20  21
ATOM     21  C   UNL     1      10.211  12.334  19.083  0.00  0.00    +0.000 A 
ATOM     22  C   UNL     1      10.890  12.251  17.856  0.00  0.00    +0.000 A 
ATOM     23  C   UNL     1      11.920  13.137  17.536  0.00  0.00    +0.000 A 
ATOM     24  C   UNL     1      12.294  14.123  18.440  0.00  0.00    +0.000 A 
ATOM     25  C   UNL     1      11.629  14.223  19.660  0.00  0.00    +0.000 A 
ATOM     26  C   UNL     1      10.594  13.333  19.993  0.00  0.00    +0.000 A 
ATOM     27 CL   UNL     1       9.952  13.545  21.583  0.00  0.00    +0.000 Cl
ENDBRANCH  20  21
ENDBRANCH  19  20
ENDBRANCH  18  19
ENDBRANCH  17  18
ENDBRANCH  16  17
ENDBRANCH   4  16
TORSDOF 11
ENDMDL
