MODEL 1
REMARK VINA RESULT:      -8.2      0.000      0.000
REMARK  Name = 
REMARK  6 active torsions:
REMARK  status: ('A' for Active; 'I' for Inactive)
REMARK    1  A    between atoms: C_2  and  O_3
REMARK    2  A    between atoms: C_2  and  C_4
REMARK    3  A    between atoms: C_4  and  C_5
REMARK    4  A    between atoms: C_5  and  N_6
REMARK    5  A    between atoms: C_8  and  C_9
REMARK    6  A    between atoms: C_15  and  C_16
REMARK                            x       y       z     vdW  Elec       q    Type
REMARK                         _______ _______ _______ _____ _____    ______ ____
ROOT
ATOM      1  N   UNL     1       4.991   6.250  17.331  0.00  0.00    +0.000 N 
ATOM      2  N   UNL     1       4.320   7.394  17.550  0.00  0.00    +0.000 NA
ATOM      3  C   UNL     1       3.199   6.954  18.154  0.00  0.00    +0.000 A 
ATOM      4  C   UNL     1       3.280   5.522  18.294  0.00  0.00    +0.000 A 
ATOM      5  N   UNL     1       4.426   5.097  17.728  0.00  0.00    +0.000 NA
ENDROOT
BRANCH   3   6
ATOM      6  C   UNL     1       2.164   7.875  18.632  0.00  0.00    +0.000 A 
ATOM      7  C   UNL     1       1.821   7.944  19.990  0.00  0.00    +0.000 A 
ATOM      8  C   UNL     1       1.069   9.017  20.479  0.00  0.00    +0.000 A 
ATOM      9  C   UNL     1       0.585   9.983  19.602  0.00  0.00    +0.000 A 
ATOM     10  C   UNL     1       0.820   9.859  18.233  0.00  0.00    +0.000 A 
ATOM     11  C   UNL     1       1.607   8.810  17.749  0.00  0.00    +0.000 A 
ENDBRANCH   3   6
BRANCH   4  12
ATOM     12  C   UNL     1       2.337   4.576  18.904  0.00  0.00    +0.000 A 
ATOM     13  C   UNL     1       2.198   4.514  20.298  0.00  0.00    +0.000 A 
ATOM     14  C   UNL     1       1.422   3.513  20.891  0.00  0.00    +0.000 A 
ATOM     15  C   UNL     1       0.790   2.555  20.101  0.00  0.00    +0.000 A 
ATOM     16  C   UNL     1       0.874   2.637  18.715  0.00  0.00    +0.000 A 
ATOM     17  C   UNL     1       1.603   3.669  18.124  0.00  0.00    +0.000 A 
ENDBRANCH   4  12
BRANCH   1  18
ATOM     18  C   UNL     1       6.279   6.230  16.659  0.00  0.00    +0.000 C 
BRANCH  18  19
ATOM     19  C   UNL     1       7.458   6.524  17.577  0.00  0.00    +0.000 C 
BRANCH  19  21
ATOM     20  O   UNL     1       7.800   5.526  19.753  0.00  0.00    +0.000 OA
ATOM     21  C   UNL     1       7.645   5.395  18.549  0.00  0.00    +0.000 C 
BRANCH  21  22
ATOM     22  O   UNL     1       7.623   4.184  17.950  0.00  0.00    +0.000 OA
ATOM     23  H   UNL     1       8.407   3.633  18.130  0.00  0.00    +0.000 HD
ENDBRANCH  21  22
ENDBRANCH  19  21
ENDBRANCH  18  19
ENDBRANCH   1  18
TORSDOF 6
ENDMDL
MODEL 2
REMARK VINA RESULT:      -8.1      1.031      4.274
REMARK  Name = 
REMARK  6 active torsions:
REMARK  status: ('A' for Active; 'I' for Inactive)
REMARK    1  A    between atoms: C_2  and  O_3
REMARK    2  A    between atoms: C_2  and  C_4
REMARK    3  A    between atoms: C_4  and  C_5
REMARK    4  A    between atoms: C_5  and  N_6
REMARK    5  A    between atoms: C_8  and  C_9
REMARK    6  A    between atoms: C_15  and  C_16
REMARK                            x       y       z     vdW  Elec       q    Type
REMARK                         _______ _______ _______ _____ _____    ______ ____
ROOT
ATOM      1  N   UNL     1       4.756   5.518  16.595  0.00  0.00    +0.000 N 
ATOM      2  N   UNL     1       4.374   4.412  17.260  0.00  0.00    +0.000 NA
ATOM      3  C   UNL     1       3.469   4.903  18.128  0.00  0.00    +0.000 A 
ATOM      4  C   UNL     1       3.335   6.321  17.906  0.00  0.00    +0.000 A 
ATOM      5  N   UNL     1       4.196   6.690  16.938  0.00  0.00    +0.000 NA
ENDROOT
BRANCH   3   6
ATOM      6  C   UNL     1       2.732   4.037  19.051  0.00  0.00    +0.000 A 
ATOM      7  C   UNL     1       3.280   3.650  20.284  0.00  0.00    +0.000 A 
ATOM      8  C   UNL     1       2.472   3.090  21.277  0.00  0.00    +0.000 A 
ATOM      9  C   UNL     1       1.129   2.834  21.017  0.00  0.00    +0.000 A 
ATOM     10  C   UNL     1       0.601   3.105  19.755  0.00  0.00    +0.000 A 
ATOM     11  C   UNL     1       1.399   3.704  18.775  0.00  0.00    +0.000 A 
ENDBRANCH   3   6
BRANCH   4  12
ATOM     12  C   UNL     1       2.465   7.304  18.565  0.00  0.00    +0.000 A 
ATOM     13  C   UNL     1       1.994   8.419  17.859  0.00  0.00    +0.000 A 
ATOM     14  C   UNL     1       1.298   9.437  18.520  0.00  0.00    +0.000 A 
ATOM     15  C   UNL     1       1.080   9.360  19.894  0.00  0.00    +0.000 A 
ATOM     16  C   UNL     1       1.494   8.234  20.597  0.00  0.00    +0.000 A 
ATOM     17  C   UNL     1       2.139   7.195  19.926  0.00  0.00    +0.000 A 
ENDBRANCH   4  12
BRANCH   1  18
ATOM     18  C   UNL     1       5.767   5.476  15.552  0.00  0.00    +0.000 C 
BRANCH  18  19
ATOM     19  C   UNL     1       7.069   4.813  15.981  0.00  0.00    +0.000 C 
BRANCH  19  21
ATOM     20  O   UNL     1       7.721   6.359  17.723  0.00  0.00    +0.000 OA
ATOM     21  C   UNL     1       7.419   5.226  17.381  0.00  0.00    +0.000 C 
BRANCH  21  22
ATOM     22  O   UNL     1       7.364   4.197  18.256  0.00  0.00    +0.000 OA
ATOM     23  H   UNL     1       6.526   3.700  18.238  0.00  0.00    +0.000 HD
ENDBRANCH  21  22
ENDBRANCH  19  21
ENDBRANCH  18  19
ENDBRANCH   1  18
TORSDOF 6
ENDMDL
MODEL 3
REMARK VINA RESULT:      -8.1      0.939      4.474
REMARK  Name = 
REMARK  6 active torsions:
REMARK  status: ('A' for Active; 'I' for Inactive)
REMARK    1  A    between atoms: C_2  and  O_3
REMARK    2  A    between atoms: C_2  and  C_4
REMARK    3  A    between atoms: C_4  and  C_5
REMARK    4  A    between atoms: C_5  and  N_6
REMARK    5  A    between atoms: C_8  and  C_9
REMARK    6  A    between atoms: C_15  and  C_16
REMARK                            x       y       z     vdW  Elec       q    Type
REMARK                         _______ _______ _______ _____ _____    ______ ____
ROOT
ATOM      1  N   UNL     1       5.271   5.567  17.671  0.00  0.00    +0.000 N 
ATOM      2  N   UNL     1       4.674   4.562  18.337  0.00  0.00    +0.000 NA
ATOM      3  C   UNL     1       3.576   5.165  18.833  0.00  0.00    +0.000 A 
ATOM      4  C   UNL     1       3.563   6.538  18.395  0.00  0.00    +0.000 A 
ATOM      5  N   UNL     1       4.679   6.773  17.678  0.00  0.00    +0.000 NA
ENDROOT
BRANCH   3   6
ATOM      6  C   UNL     1       2.574   4.430  19.610  0.00  0.00    +0.000 A 
ATOM      7  C   UNL     1       1.523   3.746  18.982  0.00  0.00    +0.000 A 
ATOM      8  C   UNL     1       0.762   2.810  19.688  0.00  0.00    +0.000 A 
ATOM      9  C   UNL     1       0.990   2.613  21.047  0.00  0.00    +0.000 A 
ATOM     10  C   UNL     1       1.953   3.374  21.708  0.00  0.00    +0.000 A 
ATOM     11  C   UNL     1       2.743   4.280  20.993  0.00  0.00    +0.000 A 
ENDBRANCH   3   6
BRANCH   4  12
ATOM     12  C   UNL     1       2.578   7.599  18.638  0.00  0.00    +0.000 A 
ATOM     13  C   UNL     1       2.308   8.555  17.649  0.00  0.00    +0.000 A 
ATOM     14  C   UNL     1       1.491   9.656  17.929  0.00  0.00    +0.000 A 
ATOM     15  C   UNL     1       0.949   9.822  19.202  0.00  0.00    +0.000 A 
ATOM     16  C   UNL     1       1.163   8.852  20.176  0.00  0.00    +0.000 A 
ATOM     17  C   UNL     1       1.933   7.728  19.879  0.00  0.00    +0.000 A 
ENDBRANCH   4  12
BRANCH   1  18
ATOM     18  C   UNL     1       6.536   5.386  16.980  0.00  0.00    +0.000 C 
BRANCH  18  19
ATOM     19  C   UNL     1       7.671   4.917  17.882  0.00  0.00    +0.000 C 
BRANCH  19  21
ATOM     20  O   UNL     1       8.267   7.099  18.739  0.00  0.00    +0.000 OA
ATOM     21  C   UNL     1       7.936   5.942  18.946  0.00  0.00    +0.000 C 
BRANCH  21  22
ATOM     22  O   UNL     1       7.766   5.452  20.195  0.00  0.00    +0.000 OA
ATOM     23  H   UNL     1       7.832   4.481  20.256  0.00  0.00    +0.000 HD
ENDBRANCH  21  22
ENDBRANCH  19  21
ENDBRANCH  18  19
ENDBRANCH   1  18
TORSDOF 6
ENDMDL
MODEL 4
REMARK VINA RESULT:      -8.1      0.184      1.040
REMARK  Name = 
REMARK  6 active torsions:
REMARK  status: ('A' for Active; 'I' for Inactive)
REMARK    1  A    between atoms: C_2  and  O_3
REMARK    2  A    between atoms: C_2  and  C_4
REMARK    3  A    between atoms: C_4  and  C_5
REMARK    4  A    between atoms: C_5  and  N_6
REMARK    5  A    between atoms: C_8  and  C_9
REMARK    6  A    between atoms: C_15  and  C_16
REMARK                            x       y       z     vdW  Elec       q    Type
REMARK                         _______ _______ _______ _____ _____    ______ ____
ROOT
ATOM      1  N   UNL     1       5.134   6.227  17.342  0.00  0.00    +0.000 N 
ATOM      2  N   UNL     1       4.422   7.348  17.560  0.00  0.00    +0.000 NA
ATOM      3  C   UNL     1       3.321   6.869  18.170  0.00  0.00    +0.000 A 
ATOM      4  C   UNL     1       3.454   5.441  18.313  0.00  0.00    +0.000 A 
ATOM      5  N   UNL     1       4.612   5.056  17.745  0.00  0.00    +0.000 NA
ENDROOT
BRANCH   3   6
ATOM      6  C   UNL     1       2.254   7.752  18.649  0.00  0.00    +0.000 A 
ATOM      7  C   UNL     1       1.888   7.786  20.003  0.00  0.00    +0.000 A 
ATOM      8  C   UNL     1       1.101   8.829  20.500  0.00  0.00    +0.000 A 
ATOM      9  C   UNL     1       0.605   9.799  19.634  0.00  0.00    +0.000 A 
ATOM     10  C   UNL     1       0.865   9.709  18.267  0.00  0.00    +0.000 A 
ATOM     11  C   UNL     1       1.686   8.690  17.775  0.00  0.00    +0.000 A 
ENDBRANCH   3   6
BRANCH   4  12
ATOM     12  C   UNL     1       2.548   4.463  18.930  0.00  0.00    +0.000 A 
ATOM     13  C   UNL     1       1.704   3.679  18.133  0.00  0.00    +0.000 A 
ATOM     14  C   UNL     1       0.730   2.861  18.718  0.00  0.00    +0.000 A 
ATOM     15  C   UNL     1       0.580   2.832  20.103  0.00  0.00    +0.000 A 
ATOM     16  C   UNL     1       1.447   3.562  20.908  0.00  0.00    +0.000 A 
ATOM     17  C   UNL     1       2.452   4.334  20.325  0.00  0.00    +0.000 A 
ENDBRANCH   4  12
BRANCH   1  18
ATOM     18  C   UNL     1       6.419   6.253  16.665  0.00  0.00    +0.000 C 
BRANCH  18  19
ATOM     19  C   UNL     1       7.598   6.527  17.590  0.00  0.00    +0.000 C 
BRANCH  19  21
ATOM     20  O   UNL     1       7.822   5.540  19.787  0.00  0.00    +0.000 OA
ATOM     21  C   UNL     1       7.748   5.404  18.576  0.00  0.00    +0.000 C 
BRANCH  21  22
ATOM     22  O   UNL     1       7.791   4.191  17.980  0.00  0.00    +0.000 OA
ATOM     23  H   UNL     1       6.930   3.877  17.645  0.00  0.00    +0.000 HD
ENDBRANCH  21  22
ENDBRANCH  19  21
ENDBRANCH  18  19
ENDBRANCH   1  18
TORSDOF 6
ENDMDL
MODEL 5
REMARK VINA RESULT:      -8.1      1.738      4.790
REMARK  Name = 
REMARK  6 active torsions:
REMARK  status: ('A' for Active; 'I' for Inactive)
REMARK    1  A    between atoms: C_2  and  O_3
REMARK    2  A    between atoms: C_2  and  C_4
REMARK    3  A    between atoms: C_4  and  C_5
REMARK    4  A    between atoms: C_5  and  N_6
REMARK    5  A    between atoms: C_8  and  C_9
REMARK    6  A    between atoms: C_15  and  C_16
REMARK                            x       y       z     vdW  Elec       q    Type
REMARK                         _______ _______ _______ _____ _____    ______ ____
ROOT
ATOM      1  N   UNL     1       4.733   6.046  17.138  0.00  0.00    +0.000 N 
ATOM      2  N   UNL     1       4.264   4.964  17.785  0.00  0.00    +0.000 NA
ATOM      3  C   UNL     1       3.246   5.480  18.500  0.00  0.00    +0.000 A 
ATOM      4  C   UNL     1       3.141   6.888  18.207  0.00  0.00    +0.000 A 
ATOM      5  N   UNL     1       4.128   7.226  17.356  0.00  0.00    +0.000 NA
ENDROOT
BRANCH   3   6
ATOM      6  C   UNL     1       2.390   4.643  19.344  0.00  0.00    +0.000 A 
ATOM      7  C   UNL     1       1.402   3.817  18.787  0.00  0.00    +0.000 A 
ATOM      8  C   UNL     1       0.806   2.809  19.551  0.00  0.00    +0.000 A 
ATOM      9  C   UNL     1       1.132   2.672  20.897  0.00  0.00    +0.000 A 
ATOM     10  C   UNL     1       2.025   3.564  21.490  0.00  0.00    +0.000 A 
ATOM     11  C   UNL     1       2.652   4.545  20.717  0.00  0.00    +0.000 A 
ENDBRANCH   3   6
BRANCH   4  12
ATOM     12  C   UNL     1       2.187   7.888  18.702  0.00  0.00    +0.000 A 
ATOM     13  C   UNL     1       1.668   8.861  17.837  0.00  0.00    +0.000 A 
ATOM     14  C   UNL     1       0.884   9.908  18.332  0.00  0.00    +0.000 A 
ATOM     15  C   UNL     1       0.624  10.004  19.698  0.00  0.00    +0.000 A 
ATOM     16  C   UNL     1       1.086   9.016  20.560  0.00  0.00    +0.000 A 
ATOM     17  C   UNL     1       1.822   7.943  20.057  0.00  0.00    +0.000 A 
ENDBRANCH   4  12
BRANCH   1  18
ATOM     18  C   UNL     1       5.879   5.974  16.248  0.00  0.00    +0.000 C 
BRANCH  18  19
ATOM     19  C   UNL     1       6.258   4.555  15.845  0.00  0.00    +0.000 C 
BRANCH  19  21
ATOM     20  O   UNL     1       7.641   5.373  14.037  0.00  0.00    +0.000 OA
ATOM     21  C   UNL     1       6.841   4.554  14.461  0.00  0.00    +0.000 C 
BRANCH  21  22
ATOM     22  O   UNL     1       6.388   3.528  13.706  0.00  0.00    +0.000 OA
ATOM     23  H   UNL     1       6.519   3.647  12.747  0.00  0.00    +0.000 HD
ENDBRANCH  21  22
ENDBRANCH  19  21
ENDBRANCH  18  19
ENDBRANCH   1  18
TORSDOF 6
ENDMDL
MODEL 6
REMARK VINA RESULT:      -8.1      0.873      4.341
REMARK  Name = 
REMARK  6 active torsions:
REMARK  status: ('A' for Active; 'I' for Inactive)
REMARK    1  A    between atoms: C_2  and  O_3
REMARK    2  A    between atoms: C_2  and  C_4
REMARK    3  A    between atoms: C_4  and  C_5
REMARK    4  A    between atoms: C_5  and  N_6
REMARK    5  A    between atoms: C_8  and  C_9
REMARK    6  A    between atoms: C_15  and  C_16
REMARK                            x       y       z     vdW  Elec       q    Type
REMARK                         _______ _______ _______ _____ _____    ______ ____
ROOT
ATOM      1  N   UNL     1       4.583   5.687  16.669  0.00  0.00    +0.000 N 
ATOM      2  N   UNL     1       4.085   4.660  17.381  0.00  0.00    +0.000 NA
ATOM      3  C   UNL     1       3.225   5.282  18.211  0.00  0.00    +0.000 A 
ATOM      4  C   UNL     1       3.236   6.693  17.918  0.00  0.00    +0.000 A 
ATOM      5  N   UNL     1       4.140   6.925  16.947  0.00  0.00    +0.000 NA
ENDROOT
BRANCH   3   6
ATOM      6  C   UNL     1       2.396   4.540  19.164  0.00  0.00    +0.000 A 
ATOM      7  C   UNL     1       1.351   3.709  18.730  0.00  0.00    +0.000 A 
ATOM      8  C   UNL     1       0.773   2.782  19.601  0.00  0.00    +0.000 A 
ATOM      9  C   UNL     1       1.173   2.735  20.933  0.00  0.00    +0.000 A 
ATOM     10  C   UNL     1       2.127   3.637  21.404  0.00  0.00    +0.000 A 
ATOM     11  C   UNL     1       2.736   4.536  20.524  0.00  0.00    +0.000 A 
ENDBRANCH   3   6
BRANCH   4  12
ATOM     12  C   UNL     1       2.464   7.790  18.516  0.00  0.00    +0.000 A 
ATOM     13  C   UNL     1       2.069   7.727  19.860  0.00  0.00    +0.000 A 
ATOM     14  C   UNL     1       1.204   8.689  20.392  0.00  0.00    +0.000 A 
ATOM     15  C   UNL     1       0.711   9.712  19.585  0.00  0.00    +0.000 A 
ATOM     16  C   UNL     1       1.138   9.818  18.265  0.00  0.00    +0.000 A 
ATOM     17  C   UNL     1       2.044   8.890  17.752  0.00  0.00    +0.000 A 
ENDBRANCH   4  12
BRANCH   1  18
ATOM     18  C   UNL     1       5.594   5.493  15.644  0.00  0.00    +0.000 C 
BRANCH  18  19
ATOM     19  C   UNL     1       6.755   4.610  16.082  0.00  0.00    +0.000 C 
BRANCH  19  21
ATOM     20  O   UNL     1       7.841   6.140  17.608  0.00  0.00    +0.000 OA
ATOM     21  C   UNL     1       7.280   5.074  17.410  0.00  0.00    +0.000 C 
BRANCH  21  22
ATOM     22  O   UNL     1       7.065   4.175  18.397  0.00  0.00    +0.000 OA
ATOM     23  H   UNL     1       7.039   4.561  19.292  0.00  0.00    +0.000 HD
ENDBRANCH  21  22
ENDBRANCH  19  21
ENDBRANCH  18  19
ENDBRANCH   1  18
TORSDOF 6
ENDMDL
MODEL 7
REMARK VINA RESULT:      -8.1      0.738      4.497
REMARK  Name = 
REMARK  6 active torsions:
REMARK  status: ('A' for Active; 'I' for Inactive)
REMARK    1  A    between atoms: C_2  and  O_3
REMARK    2  A    between atoms: C_2  and  C_4
REMARK    3  A    between atoms: C_4  and  C_5
REMARK    4  A    between atoms: C_5  and  N_6
REMARK    5  A    between atoms: C_8  and  C_9
REMARK    6  A    between atoms: C_15  and  C_16
REMARK                            x       y       z     vdW  Elec       q    Type
REMARK                         _______ _______ _______ _____ _____    ______ ____
ROOT
ATOM      1  N   UNL     1       4.609   6.546  17.317  0.00  0.00    +0.000 N 
ATOM      2  N   UNL     1       4.178   5.396  17.865  0.00  0.00    +0.000 NA
ATOM      3  C   UNL     1       3.102   5.801  18.566  0.00  0.00    +0.000 A 
ATOM      4  C   UNL     1       2.926   7.218  18.366  0.00  0.00    +0.000 A 
ATOM      5  N   UNL     1       3.926   7.672  17.587  0.00  0.00    +0.000 NA
ENDROOT
BRANCH   3   6
ATOM      6  C   UNL     1       2.262   4.859  19.309  0.00  0.00    +0.000 A 
ATOM      7  C   UNL     1       1.407   3.964  18.647  0.00  0.00    +0.000 A 
ATOM      8  C   UNL     1       0.850   2.879  19.328  0.00  0.00    +0.000 A 
ATOM      9  C   UNL     1       1.073   2.726  20.693  0.00  0.00    +0.000 A 
ATOM     10  C   UNL     1       1.823   3.676  21.385  0.00  0.00    +0.000 A 
ATOM     11  C   UNL     1       2.416   4.738  20.697  0.00  0.00    +0.000 A 
ENDBRANCH   3   6
BRANCH   4  12
ATOM     12  C   UNL     1       1.893   8.125  18.884  0.00  0.00    +0.000 A 
ATOM     13  C   UNL     1       1.240   9.019  18.025  0.00  0.00    +0.000 A 
ATOM     14  C   UNL     1       0.372   9.990  18.535  0.00  0.00    +0.000 A 
ATOM     15  C   UNL     1       0.161  10.089  19.908  0.00  0.00    +0.000 A 
ATOM     16  C   UNL     1       0.759   9.174  20.768  0.00  0.00    +0.000 A 
ATOM     17  C   UNL     1       1.581   8.172  20.252  0.00  0.00    +0.000 A 
ENDBRANCH   4  12
BRANCH   1  18
ATOM     18  C   UNL     1       5.793   6.602  16.478  0.00  0.00    +0.000 C 
BRANCH  18  19
ATOM     19  C   UNL     1       7.094   6.351  17.229  0.00  0.00    +0.000 C 
BRANCH  19  21
ATOM     20  O   UNL     1       7.943   4.287  16.297  0.00  0.00    +0.000 OA
ATOM     21  C   UNL     1       7.415   4.884  17.222  0.00  0.00    +0.000 C 
BRANCH  21  22
ATOM     22  O   UNL     1       7.057   4.268  18.371  0.00  0.00    +0.000 OA
ATOM     23  H   UNL     1       6.999   4.861  19.143  0.00  0.00    +0.000 HD
ENDBRANCH  21  22
ENDBRANCH  19  21
ENDBRANCH  18  19
ENDBRANCH   1  18
TORSDOF 6
ENDMDL
MODEL 8
REMARK VINA RESULT:      -8.0      1.266      1.991
REMARK  Name = 
REMARK  6 active torsions:
REMARK  status: ('A' for Active; 'I' for Inactive)
REMARK    1  A    between atoms: C_2  and  O_3
REMARK    2  A    between atoms: C_2  and  C_4
REMARK    3  A    between atoms: C_4  and  C_5
REMARK    4  A    between atoms: C_5  and  N_6
REMARK    5  A    between atoms: C_8  and  C_9
REMARK    6  A    between atoms: C_15  and  C_16
REMARK                            x       y       z     vdW  Elec       q    Type
REMARK                         _______ _______ _______ _____ _____    ______ ____
ROOT
ATOM      1  N   UNL     1       4.696   5.053  16.383  0.00  0.00    +0.000 N 
ATOM      2  N   UNL     1       4.309   6.300  16.705  0.00  0.00    +0.000 NA
ATOM      3  C   UNL     1       3.473   6.080  17.738  0.00  0.00    +0.000 A 
ATOM      4  C   UNL     1       3.428   4.664  18.004  0.00  0.00    +0.000 A 
ATOM      5  N   UNL     1       4.198   4.030  17.099  0.00  0.00    +0.000 NA
ENDROOT
BRANCH   3   6
ATOM      6  C   UNL     1       2.830   7.180  18.461  0.00  0.00    +0.000 A 
ATOM      7  C   UNL     1       2.447   8.359  17.804  0.00  0.00    +0.000 A 
ATOM      8  C   UNL     1       1.573   9.262  18.417  0.00  0.00    +0.000 A 
ATOM      9  C   UNL     1       1.143   9.036  19.721  0.00  0.00    +0.000 A 
ATOM     10  C   UNL     1       1.612   7.928  20.426  0.00  0.00    +0.000 A 
ATOM     11  C   UNL     1       2.452   7.003  19.799  0.00  0.00    +0.000 A 
ENDBRANCH   3   6
BRANCH   4  12
ATOM     12  C   UNL     1       2.695   3.918  19.035  0.00  0.00    +0.000 A 
ATOM     13  C   UNL     1       1.310   3.738  18.928  0.00  0.00    +0.000 A 
ATOM     14  C   UNL     1       0.584   3.168  19.979  0.00  0.00    +0.000 A 
ATOM     15  C   UNL     1       1.230   2.787  21.153  0.00  0.00    +0.000 A 
ATOM     16  C   UNL     1       2.612   2.910  21.251  0.00  0.00    +0.000 A 
ATOM     17  C   UNL     1       3.342   3.428  20.181  0.00  0.00    +0.000 A 
ENDBRANCH   4  12
BRANCH   1  18
ATOM     18  C   UNL     1       5.602   4.789  15.279  0.00  0.00    +0.000 C 
BRANCH  18  19
ATOM     19  C   UNL     1       6.966   4.267  15.711  0.00  0.00    +0.000 C 
BRANCH  19  21
ATOM     20  O   UNL     1       7.681   4.494  18.010  0.00  0.00    +0.000 OA
ATOM     21  C   UNL     1       7.435   5.008  16.930  0.00  0.00    +0.000 C 
BRANCH  21  22
ATOM     22  O   UNL     1       7.568   6.336  16.713  0.00  0.00    +0.000 OA
ATOM     23  H   UNL     1       8.230   6.567  16.036  0.00  0.00    +0.000 HD
ENDBRANCH  21  22
ENDBRANCH  19  21
ENDBRANCH  18  19
ENDBRANCH   1  18
TORSDOF 6
ENDMDL
MODEL 9
REMARK VINA RESULT:      -8.0      2.015      2.890
REMARK  Name = 
REMARK  6 active torsions:
REMARK  status: ('A' for Active; 'I' for Inactive)
REMARK    1  A    between atoms: C_2  and  O_3
REMARK    2  A    between atoms: C_2  and  C_4
REMARK    3  A    between atoms: C_4  and  C_5
REMARK    4  A    between atoms: C_5  and  N_6
REMARK    5  A    between atoms: C_8  and  C_9
REMARK    6  A    between atoms: C_15  and  C_16
REMARK                            x       y       z     vdW  Elec       q    Type
REMARK                         _______ _______ _______ _____ _____    ______ ____
ROOT
ATOM      1  N   UNL     1       4.992   4.111  16.546  0.00  0.00    +0.000 N 
ATOM      2  N   UNL     1       4.696   5.417  16.681  0.00  0.00    +0.000 NA
ATOM      3  C   UNL     1       3.803   5.401  17.689  0.00  0.00    +0.000 A 
ATOM      4  C   UNL     1       3.631   4.041  18.136  0.00  0.00    +0.000 A 
ATOM      5  N   UNL     1       4.383   3.235  17.363  0.00  0.00    +0.000 NA
ENDROOT
BRANCH   3   6
ATOM      6  C   UNL     1       3.222   6.634  18.228  0.00  0.00    +0.000 A 
ATOM      7  C   UNL     1       3.017   7.759  17.415  0.00  0.00    +0.000 A 
ATOM      8  C   UNL     1       2.196   8.805  17.845  0.00  0.00    +0.000 A 
ATOM      9  C   UNL     1       1.643   8.775  19.122  0.00  0.00    +0.000 A 
ATOM     10  C   UNL     1       1.937   7.718  19.982  0.00  0.00    +0.000 A 
ATOM     11  C   UNL     1       2.723   6.651  19.537  0.00  0.00    +0.000 A 
ENDBRANCH   3   6
BRANCH   4  12
ATOM     12  C   UNL     1       2.797   3.499  19.216  0.00  0.00    +0.000 A 
ATOM     13  C   UNL     1       1.400   3.491  19.097  0.00  0.00    +0.000 A 
ATOM     14  C   UNL     1       0.596   3.123  20.180  0.00  0.00    +0.000 A 
ATOM     15  C   UNL     1       1.177   2.774  21.398  0.00  0.00    +0.000 A 
ATOM     16  C   UNL     1       2.562   2.724  21.514  0.00  0.00    +0.000 A 
ATOM     17  C   UNL     1       3.363   3.038  20.415  0.00  0.00    +0.000 A 
ENDBRANCH   4  12
BRANCH   1  18
ATOM     18  C   UNL     1       5.919   3.634  15.535  0.00  0.00    +0.000 C 
BRANCH  18  19
ATOM     19  C   UNL     1       5.936   4.477  14.266  0.00  0.00    +0.000 C 
BRANCH  19  21
ATOM     20  O   UNL     1       7.848   5.443  13.144  0.00  0.00    +0.000 OA
ATOM     21  C   UNL     1       7.226   5.240  14.175  0.00  0.00    +0.000 C 
BRANCH  21  22
ATOM     22  O   UNL     1       7.646   5.697  15.376  0.00  0.00    +0.000 OA
ATOM     23  H   UNL     1       8.555   5.432  15.610  0.00  0.00    +0.000 HD
ENDBRANCH  21  22
ENDBRANCH  19  21
ENDBRANCH  18  19
ENDBRANCH   1  18
TORSDOF 6
ENDMDL
