MODEL 1
REMARK VINA RESULT:      -6.9      0.000      0.000
REMARK  Name = 
REMARK  23 active torsions:
REMARK  status: ('A' for Active; 'I' for Inactive)
REMARK    1  A    between atoms: C_1  and  O_2
REMARK    2  A    between atoms: O_2  and  C_3
REMARK    3  A    between atoms: C_6  and  C_7
REMARK    4  A    between atoms: C_7  and  C_8
REMARK    5  A    between atoms: C_8  and  N_9
REMARK    6  A    between atoms: N_9  and  C_10
REMARK    7  A    between atoms: N_9  and  C_11
REMARK    8  A    between atoms: C_11  and  C_12
REMARK    9  A    between atoms: C_12  and  C_13
REMARK   10  A    between atoms: C_13  and  C_14
REMARK   11  A    between atoms: C_14  and  C_15
REMARK   12  A    between atoms: C_14  and  C_17
REMARK   13  A    between atoms: C_14  and  C_29
REMARK   14  A    between atoms: C_19  and  O_20
REMARK   15  A    between atoms: O_20  and  C_21
REMARK   16  A    between atoms: C_22  and  O_23
REMARK   17  A    between atoms: O_23  and  C_24
REMARK   18  A    between atoms: C_25  and  O_26
REMARK   19  A    between atoms: O_26  and  C_27
REMARK   20  A    between atoms: C_29  and  C_30
REMARK   21  A    between atoms: C_29  and  C_31
REMARK   22  A    between atoms: C_33  and  O_34
REMARK   23  A    between atoms: O_34  and  C_35
REMARK                            x       y       z     vdW  Elec       q    Type
REMARK                         _______ _______ _______ _____ _____    ______ ____
ROOT
ATOM      1  C   UNL     1       3.287   5.408  19.085  0.00  0.00    +0.000 C 
ENDROOT
BRANCH   1   2
ATOM      2  C   UNL     1       2.562   6.767  19.246  0.00  0.00    +0.000 A 
ATOM      3  C   UNL     1       1.757   7.012  20.359  0.00  0.00    +0.000 A 
ATOM      4  C   UNL     1       1.076   8.222  20.515  0.00  0.00    +0.000 A 
ATOM      5  C   UNL     1       1.166   9.219  19.513  0.00  0.00    +0.000 A 
ATOM      6  C   UNL     1       1.970   8.996  18.381  0.00  0.00    +0.000 A 
ATOM      7  C   UNL     1       2.672   7.790  18.282  0.00  0.00    +0.000 A 
BRANCH   4   8
ATOM      8  O   UNL     1       0.289   8.493  21.607  0.00  0.00    +0.000 OA
ATOM      9  C   UNL     1       0.891   9.282  22.628  0.00  0.00    +0.000 C 
ENDBRANCH   4   8
BRANCH   5  10
ATOM     10  O   UNL     1       0.384  10.328  19.736  0.00  0.00    +0.000 OA
ATOM     11  C   UNL     1      -0.864  10.397  19.060  0.00  0.00    +0.000 C 
ENDBRANCH   5  10
BRANCH   6  12
ATOM     12  O   UNL     1       2.011   9.946  17.393  0.00  0.00    +0.000 OA
ATOM     13  C   UNL     1       2.603  11.209  17.687  0.00  0.00    +0.000 C 
ENDBRANCH   6  12
ENDBRANCH   1   2
BRANCH   1  14
ATOM     14  C   UNL     1       2.857   4.731  17.716  0.00  0.00    +0.000 C 
ATOM     15  C   UNL     1       3.533   3.372  17.448  0.00  0.00    +0.000 C 
ATOM     16  C   UNL     1       1.331   4.535  17.587  0.00  0.00    +0.000 C 
ENDBRANCH   1  14
BRANCH   1  17
ATOM     17  C   UNL     1       2.878   4.467  20.205  0.00  0.00    +0.000 C 
ATOM     18  N   UNL     1       2.538   3.686  21.135  0.00  0.00    +0.000 NA
ENDBRANCH   1  17
BRANCH   1  19
ATOM     19  C   UNL     1       4.831   5.617  19.147  0.00  0.00    +0.000 C 
BRANCH  19  20
ATOM     20  C   UNL     1       5.435   5.782  17.748  0.00  0.00    +0.000 C 
BRANCH  20  21
ATOM     21  C   UNL     1       6.304   7.030  17.602  0.00  0.00    +0.000 C 
BRANCH  21  22
ATOM     22  N   UNL     1       7.733   6.709  17.797  0.00  0.00    +0.000 NA
ATOM     23  C   UNL     1       7.847   5.492  18.603  0.00  0.00    +0.000 C 
BRANCH  22  24
ATOM     24  C   UNL     1       8.462   7.837  18.418  0.00  0.00    +0.000 C 
BRANCH  24  25
ATOM     25  C   UNL     1       8.023   9.235  17.969  0.00  0.00    +0.000 C 
BRANCH  25  29
ATOM     26  C   UNL     1      10.893  12.060  19.558  0.00  0.00    +0.000 A 
ATOM     27  C   UNL     1       9.997  11.396  20.411  0.00  0.00    +0.000 A 
ATOM     28  C   UNL     1       9.056  10.494  19.908  0.00  0.00    +0.000 A 
ATOM     29  C   UNL     1       8.965  10.273  18.534  0.00  0.00    +0.000 A 
ATOM     30  C   UNL     1       9.821  10.979  17.679  0.00  0.00    +0.000 A 
ATOM     31  C   UNL     1      10.777  11.878  18.171  0.00  0.00    +0.000 A 
BRANCH  26  33
ATOM     32  C   UNL     1      11.449  14.238  20.315  0.00  0.00    +0.000 C 
ATOM     33  O   UNL     1      11.860  12.896  20.051  0.00  0.00    +0.000 OA
ENDBRANCH  26  33
BRANCH  31  34
ATOM     34  O   UNL     1      11.504  12.445  17.158  0.00  0.00    +0.000 OA
ATOM     35  C   UNL     1      11.162  13.744  16.706  0.00  0.00    +0.000 C 
ENDBRANCH  31  34
ENDBRANCH  25  29
ENDBRANCH  24  25
ENDBRANCH  22  24
ENDBRANCH  21  22
ENDBRANCH  20  21
ENDBRANCH  19  20
ENDBRANCH   1  19
TORSDOF 15
ENDMDL
MODEL 2
REMARK VINA RESULT:      -6.8      3.975      9.258
REMARK  Name = 
REMARK  23 active torsions:
REMARK  status: ('A' for Active; 'I' for Inactive)
REMARK    1  A    between atoms: C_1  and  O_2
REMARK    2  A    between atoms: O_2  and  C_3
REMARK    3  A    between atoms: C_6  and  C_7
REMARK    4  A    between atoms: C_7  and  C_8
REMARK    5  A    between atoms: C_8  and  N_9
REMARK    6  A    between atoms: N_9  and  C_10
REMARK    7  A    between atoms: N_9  and  C_11
REMARK    8  A    between atoms: C_11  and  C_12
REMARK    9  A    between atoms: C_12  and  C_13
REMARK   10  A    between atoms: C_13  and  C_14
REMARK   11  A    between atoms: C_14  and  C_15
REMARK   12  A    between atoms: C_14  and  C_17
REMARK   13  A    between atoms: C_14  and  C_29
REMARK   14  A    between atoms: C_19  and  O_20
REMARK   15  A    between atoms: O_20  and  C_21
REMARK   16  A    between atoms: C_22  and  O_23
REMARK   17  A    between atoms: O_23  and  C_24
REMARK   18  A    between atoms: C_25  and  O_26
REMARK   19  A    between atoms: O_26  and  C_27
REMARK   20  A    between atoms: C_29  and  C_30
REMARK   21  A    between atoms: C_29  and  C_31
REMARK   22  A    between atoms: C_33  and  O_34
REMARK   23  A    between atoms: O_34  and  C_35
REMARK                            x       y       z     vdW  Elec       q    Type
REMARK                         _______ _______ _______ _____ _____    ______ ____
ROOT
ATOM      1  C   UNL     1       2.840   4.211  19.065  0.00  0.00    +0.000 C 
ENDROOT
BRANCH   1   2
ATOM      2  C   UNL     1       4.131   4.905  18.563  0.00  0.00    +0.000 A 
ATOM      3  C   UNL     1       4.271   5.249  17.218  0.00  0.00    +0.000 A 
ATOM      4  C   UNL     1       5.435   5.857  16.738  0.00  0.00    +0.000 A 
ATOM      5  C   UNL     1       6.518   6.103  17.616  0.00  0.00    +0.000 A 
ATOM      6  C   UNL     1       6.402   5.763  18.976  0.00  0.00    +0.000 A 
ATOM      7  C   UNL     1       5.205   5.198  19.428  0.00  0.00    +0.000 A 
BRANCH   4   8
ATOM      8  O   UNL     1       5.592   6.218  15.423  0.00  0.00    +0.000 OA
ATOM      9  C   UNL     1       5.737   5.147  14.496  0.00  0.00    +0.000 C 
ENDBRANCH   4   8
BRANCH   5  10
ATOM     10  O   UNL     1       7.640   6.622  17.012  0.00  0.00    +0.000 OA
ATOM     11  C   UNL     1       7.954   7.984  17.271  0.00  0.00    +0.000 C 
ENDBRANCH   5  10
BRANCH   6  12
ATOM     12  O   UNL     1       7.475   5.959  19.807  0.00  0.00    +0.000 OA
ATOM     13  C   UNL     1       8.537   5.009  19.784  0.00  0.00    +0.000 C 
ENDBRANCH   6  12
ENDBRANCH   1   2
BRANCH   1  14
ATOM     14  C   UNL     1       3.154   3.389  20.386  0.00  0.00    +0.000 C 
ATOM     15  C   UNL     1       1.900   2.964  21.172  0.00  0.00    +0.000 C 
ATOM     16  C   UNL     1       4.004   2.126  20.128  0.00  0.00    +0.000 C 
ENDBRANCH   1  14
BRANCH   1  17
ATOM     17  C   UNL     1       2.344   3.223  18.023  0.00  0.00    +0.000 C 
ATOM     18  N   UNL     1       1.933   2.403  17.158  0.00  0.00    +0.000 NA
ENDBRANCH   1  17
BRANCH   1  19
ATOM     19  C   UNL     1       1.728   5.273  19.316  0.00  0.00    +0.000 C 
BRANCH  19  20
ATOM     20  C   UNL     1       2.319   6.626  19.726  0.00  0.00    +0.000 C 
BRANCH  20  21
ATOM     21  C   UNL     1       1.469   7.820  19.296  0.00  0.00    +0.000 C 
BRANCH  21  22
ATOM     22  N   UNL     1       1.431   8.854  20.351  0.00  0.00    +0.000 NA
ATOM     23  C   UNL     1       1.105   8.223  21.632  0.00  0.00    +0.000 C 
BRANCH  22  24
ATOM     24  C   UNL     1       0.472   9.930  20.021  0.00  0.00    +0.000 C 
BRANCH  24  25
ATOM     25  C   UNL     1       0.331  10.256  18.529  0.00  0.00    +0.000 C 
BRANCH  25  29
ATOM     26  C   UNL     1      -3.716  11.357  17.455  0.00  0.00    +0.000 A 
ATOM     27  C   UNL     1      -3.105  11.906  18.594  0.00  0.00    +0.000 A 
ATOM     28  C   UNL     1      -1.806  11.547  18.959  0.00  0.00    +0.000 A 
ATOM     29  C   UNL     1      -1.108  10.595  18.214  0.00  0.00    +0.000 A 
ATOM     30  C   UNL     1      -1.740  10.006  17.112  0.00  0.00    +0.000 A 
ATOM     31  C   UNL     1      -3.039  10.365  16.728  0.00  0.00    +0.000 A 
BRANCH  26  33
ATOM     32  C   UNL     1      -6.053  11.282  17.850  0.00  0.00    +0.000 C 
ATOM     33  O   UNL     1      -4.965  11.754  17.055  0.00  0.00    +0.000 OA
ENDBRANCH  26  33
BRANCH  31  34
ATOM     34  O   UNL     1      -3.448   9.669  15.622  0.00  0.00    +0.000 OA
ATOM     35  C   UNL     1      -3.026  10.101  14.340  0.00  0.00    +0.000 C 
ENDBRANCH  31  34
ENDBRANCH  25  29
ENDBRANCH  24  25
ENDBRANCH  22  24
ENDBRANCH  21  22
ENDBRANCH  20  21
ENDBRANCH  19  20
ENDBRANCH   1  19
TORSDOF 15
ENDMDL
MODEL 3
REMARK VINA RESULT:      -6.8      3.722      8.888
REMARK  Name = 
REMARK  23 active torsions:
REMARK  status: ('A' for Active; 'I' for Inactive)
REMARK    1  A    between atoms: C_1  and  O_2
REMARK    2  A    between atoms: O_2  and  C_3
REMARK    3  A    between atoms: C_6  and  C_7
REMARK    4  A    between atoms: C_7  and  C_8
REMARK    5  A    between atoms: C_8  and  N_9
REMARK    6  A    between atoms: N_9  and  C_10
REMARK    7  A    between atoms: N_9  and  C_11
REMARK    8  A    between atoms: C_11  and  C_12
REMARK    9  A    between atoms: C_12  and  C_13
REMARK   10  A    between atoms: C_13  and  C_14
REMARK   11  A    between atoms: C_14  and  C_15
REMARK   12  A    between atoms: C_14  and  C_17
REMARK   13  A    between atoms: C_14  and  C_29
REMARK   14  A    between atoms: C_19  and  O_20
REMARK   15  A    between atoms: O_20  and  C_21
REMARK   16  A    between atoms: C_22  and  O_23
REMARK   17  A    between atoms: O_23  and  C_24
REMARK   18  A    between atoms: C_25  and  O_26
REMARK   19  A    between atoms: O_26  and  C_27
REMARK   20  A    between atoms: C_29  and  C_30
REMARK   21  A    between atoms: C_29  and  C_31
REMARK   22  A    between atoms: C_33  and  O_34
REMARK   23  A    between atoms: O_34  and  C_35
REMARK                            x       y       z     vdW  Elec       q    Type
REMARK                         _______ _______ _______ _____ _____    ______ ____
ROOT
ATOM      1  C   UNL     1       3.157   4.345  19.425  0.00  0.00    +0.000 C 
ENDROOT
BRANCH   1   2
ATOM      2  C   UNL     1       4.372   4.981  18.707  0.00  0.00    +0.000 A 
ATOM      3  C   UNL     1       5.643   4.923  19.280  0.00  0.00    +0.000 A 
ATOM      4  C   UNL     1       6.751   5.508  18.661  0.00  0.00    +0.000 A 
ATOM      5  C   UNL     1       6.591   6.209  17.441  0.00  0.00    +0.000 A 
ATOM      6  C   UNL     1       5.319   6.284  16.843  0.00  0.00    +0.000 A 
ATOM      7  C   UNL     1       4.243   5.647  17.471  0.00  0.00    +0.000 A 
BRANCH   4   8
ATOM      8  O   UNL     1       8.013   5.453  19.197  0.00  0.00    +0.000 OA
ATOM      9  C   UNL     1       8.085   5.432  20.619  0.00  0.00    +0.000 C 
ENDBRANCH   4   8
BRANCH   5  10
ATOM     10  O   UNL     1       7.733   6.816  16.974  0.00  0.00    +0.000 OA
ATOM     11  C   UNL     1       8.006   8.135  17.424  0.00  0.00    +0.000 C 
ENDBRANCH   5  10
BRANCH   6  12
ATOM     12  O   UNL     1       5.166   7.007  15.689  0.00  0.00    +0.000 OA
ATOM     13  C   UNL     1       5.275   6.329  14.440  0.00  0.00    +0.000 C 
ENDBRANCH   6  12
ENDBRANCH   1   2
BRANCH   1  14
ATOM     14  C   UNL     1       3.551   2.909  19.975  0.00  0.00    +0.000 C 
ATOM     15  C   UNL     1       2.803   2.501  21.258  0.00  0.00    +0.000 C 
ATOM     16  C   UNL     1       3.356   1.784  18.934  0.00  0.00    +0.000 C 
ENDBRANCH   1  14
BRANCH   1  17
ATOM     17  C   UNL     1       2.014   4.156  18.442  0.00  0.00    +0.000 C 
ATOM     18  N   UNL     1       1.066   3.999  17.626  0.00  0.00    +0.000 NA
ENDBRANCH   1  17
BRANCH   1  19
ATOM     19  C   UNL     1       2.674   5.274  20.580  0.00  0.00    +0.000 C 
BRANCH  19  20
ATOM     20  C   UNL     1       1.560   6.218  20.118  0.00  0.00    +0.000 C 
BRANCH  20  21
ATOM     21  C   UNL     1       2.041   7.640  19.835  0.00  0.00    +0.000 C 
BRANCH  21  22
ATOM     22  N   UNL     1       1.370   8.615  20.718  0.00  0.00    +0.000 NA
ATOM     23  C   UNL     1       0.211   7.977  21.346  0.00  0.00    +0.000 C 
BRANCH  22  24
ATOM     24  C   UNL     1       0.979   9.835  19.979  0.00  0.00    +0.000 C 
BRANCH  24  25
ATOM     25  C   UNL     1       0.576   9.623  18.515  0.00  0.00    +0.000 C 
BRANCH  25  29
ATOM     26  C   UNL     1      -3.360  11.331  17.947  0.00  0.00    +0.000 A 
ATOM     27  C   UNL     1      -2.864  10.367  17.054  0.00  0.00    +0.000 A 
ATOM     28  C   UNL     1      -1.590   9.820  17.218  0.00  0.00    +0.000 A 
ATOM     29  C   UNL     1      -0.769  10.261  18.257  0.00  0.00    +0.000 A 
ATOM     30  C   UNL     1      -1.243  11.263  19.112  0.00  0.00    +0.000 A 
ATOM     31  C   UNL     1      -2.524  11.813  18.965  0.00  0.00    +0.000 A 
BRANCH  26  33
ATOM     32  C   UNL     1      -5.654  11.075  18.492  0.00  0.00    +0.000 C 
ATOM     33  O   UNL     1      -4.634  11.822  17.829  0.00  0.00    +0.000 OA
ENDBRANCH  26  33
BRANCH  31  34
ATOM     34  O   UNL     1      -2.775  12.767  19.916  0.00  0.00    +0.000 OA
ATOM     35  C   UNL     1      -2.354  12.538  21.250  0.00  0.00    +0.000 C 
ENDBRANCH  31  34
ENDBRANCH  25  29
ENDBRANCH  24  25
ENDBRANCH  22  24
ENDBRANCH  21  22
ENDBRANCH  20  21
ENDBRANCH  19  20
ENDBRANCH   1  19
TORSDOF 15
ENDMDL
MODEL 4
REMARK VINA RESULT:      -6.8      2.560      4.432
REMARK  Name = 
REMARK  23 active torsions:
REMARK  status: ('A' for Active; 'I' for Inactive)
REMARK    1  A    between atoms: C_1  and  O_2
REMARK    2  A    between atoms: O_2  and  C_3
REMARK    3  A    between atoms: C_6  and  C_7
REMARK    4  A    between atoms: C_7  and  C_8
REMARK    5  A    between atoms: C_8  and  N_9
REMARK    6  A    between atoms: N_9  and  C_10
REMARK    7  A    between atoms: N_9  and  C_11
REMARK    8  A    between atoms: C_11  and  C_12
REMARK    9  A    between atoms: C_12  and  C_13
REMARK   10  A    between atoms: C_13  and  C_14
REMARK   11  A    between atoms: C_14  and  C_15
REMARK   12  A    between atoms: C_14  and  C_17
REMARK   13  A    between atoms: C_14  and  C_29
REMARK   14  A    between atoms: C_19  and  O_20
REMARK   15  A    between atoms: O_20  and  C_21
REMARK   16  A    between atoms: C_22  and  O_23
REMARK   17  A    between atoms: O_23  and  C_24
REMARK   18  A    between atoms: C_25  and  O_26
REMARK   19  A    between atoms: O_26  and  C_27
REMARK   20  A    between atoms: C_29  and  C_30
REMARK   21  A    between atoms: C_29  and  C_31
REMARK   22  A    between atoms: C_33  and  O_34
REMARK   23  A    between atoms: O_34  and  C_35
REMARK                            x       y       z     vdW  Elec       q    Type
REMARK                         _______ _______ _______ _____ _____    ______ ____
ROOT
ATOM      1  C   UNL     1       6.270   5.760  16.954  0.00  0.00    +0.000 C 
ENDROOT
BRANCH   1   2
ATOM      2  C   UNL     1       5.114   5.706  17.983  0.00  0.00    +0.000 A 
ATOM      3  C   UNL     1       4.946   4.589  18.801  0.00  0.00    +0.000 A 
ATOM      4  C   UNL     1       3.899   4.509  19.723  0.00  0.00    +0.000 A 
ATOM      5  C   UNL     1       2.957   5.563  19.816  0.00  0.00    +0.000 A 
ATOM      6  C   UNL     1       3.102   6.700  19.000  0.00  0.00    +0.000 A 
ATOM      7  C   UNL     1       4.190   6.762  18.122  0.00  0.00    +0.000 A 
BRANCH   4   8
ATOM      8  O   UNL     1       3.720   3.428  20.549  0.00  0.00    +0.000 OA
ATOM      9  C   UNL     1       3.877   2.148  19.943  0.00  0.00    +0.000 C 
ENDBRANCH   4   8
BRANCH   5  10
ATOM     10  O   UNL     1       1.923   5.332  20.694  0.00  0.00    +0.000 OA
ATOM     11  C   UNL     1       0.892   4.448  20.275  0.00  0.00    +0.000 C 
ENDBRANCH   5  10
BRANCH   6  12
ATOM     12  O   UNL     1       2.157   7.691  19.062  0.00  0.00    +0.000 OA
ATOM     13  C   UNL     1       1.862   8.425  17.877  0.00  0.00    +0.000 C 
ENDBRANCH   6  12
ENDBRANCH   1   2
BRANCH   1  14
ATOM     14  C   UNL     1       5.806   5.084  15.594  0.00  0.00    +0.000 C 
ATOM     15  C   UNL     1       6.841   5.188  14.458  0.00  0.00    +0.000 C 
ATOM     16  C   UNL     1       5.424   3.596  15.753  0.00  0.00    +0.000 C 
ENDBRANCH   1  14
BRANCH   1  17
ATOM     17  C   UNL     1       7.460   4.969  17.470  0.00  0.00    +0.000 C 
ATOM     18  N   UNL     1       8.448   4.314  17.899  0.00  0.00    +0.000 NA
ENDBRANCH   1  17
BRANCH   1  19
ATOM     19  C   UNL     1       6.711   7.236  16.724  0.00  0.00    +0.000 C 
BRANCH  19  20
ATOM     20  C   UNL     1       7.713   7.699  17.786  0.00  0.00    +0.000 C 
BRANCH  20  21
ATOM     21  C   UNL     1       7.771   9.217  17.952  0.00  0.00    +0.000 C 
BRANCH  21  22
ATOM     22  N   UNL     1       9.095   9.648  18.447  0.00  0.00    +0.000 NA
ATOM     23  C   UNL     1       9.008   9.911  19.885  0.00  0.00    +0.000 C 
BRANCH  22  24
ATOM     24  C   UNL     1       9.589  10.831  17.710  0.00  0.00    +0.000 C 
BRANCH  24  25
ATOM     25  C   UNL     1      10.832  11.507  18.301  0.00  0.00    +0.000 C 
BRANCH  25  29
ATOM     26  C   UNL     1      10.628  15.702  17.252  0.00  0.00    +0.000 A 
ATOM     27  C   UNL     1      11.830  14.989  17.116  0.00  0.00    +0.000 A 
ATOM     28  C   UNL     1      11.912  13.640  17.466  0.00  0.00    +0.000 A 
ATOM     29  C   UNL     1      10.801  12.988  18.001  0.00  0.00    +0.000 A 
ATOM     30  C   UNL     1       9.619  13.714  18.189  0.00  0.00    +0.000 A 
ATOM     31  C   UNL     1       9.519  15.066  17.832  0.00  0.00    +0.000 A 
BRANCH  26  33
ATOM     32  C   UNL     1      11.017  17.984  17.767  0.00  0.00    +0.000 C 
ATOM     33  O   UNL     1      10.524  17.007  16.849  0.00  0.00    +0.000 OA
ENDBRANCH  26  33
BRANCH  31  34
ATOM     34  O   UNL     1       8.272  15.566  18.097  0.00  0.00    +0.000 OA
ATOM     35  C   UNL     1       7.132  14.844  17.663  0.00  0.00    +0.000 C 
ENDBRANCH  31  34
ENDBRANCH  25  29
ENDBRANCH  24  25
ENDBRANCH  22  24
ENDBRANCH  21  22
ENDBRANCH  20  21
ENDBRANCH  19  20
ENDBRANCH   1  19
TORSDOF 15
ENDMDL
MODEL 5
REMARK VINA RESULT:      -6.7      4.528      8.060
REMARK  Name = 
REMARK  23 active torsions:
REMARK  status: ('A' for Active; 'I' for Inactive)
REMARK    1  A    between atoms: C_1  and  O_2
REMARK    2  A    between atoms: O_2  and  C_3
REMARK    3  A    between atoms: C_6  and  C_7
REMARK    4  A    between atoms: C_7  and  C_8
REMARK    5  A    between atoms: C_8  and  N_9
REMARK    6  A    between atoms: N_9  and  C_10
REMARK    7  A    between atoms: N_9  and  C_11
REMARK    8  A    between atoms: C_11  and  C_12
REMARK    9  A    between atoms: C_12  and  C_13
REMARK   10  A    between atoms: C_13  and  C_14
REMARK   11  A    between atoms: C_14  and  C_15
REMARK   12  A    between atoms: C_14  and  C_17
REMARK   13  A    between atoms: C_14  and  C_29
REMARK   14  A    between atoms: C_19  and  O_20
REMARK   15  A    between atoms: O_20  and  C_21
REMARK   16  A    between atoms: C_22  and  O_23
REMARK   17  A    between atoms: O_23  and  C_24
REMARK   18  A    between atoms: C_25  and  O_26
REMARK   19  A    between atoms: O_26  and  C_27
REMARK   20  A    between atoms: C_29  and  C_30
REMARK   21  A    between atoms: C_29  and  C_31
REMARK   22  A    between atoms: C_33  and  O_34
REMARK   23  A    between atoms: O_34  and  C_35
REMARK                            x       y       z     vdW  Elec       q    Type
REMARK                         _______ _______ _______ _____ _____    ______ ____
ROOT
ATOM      1  C   UNL     1      -0.442  11.925  20.372  0.00  0.00    +0.000 C 
ENDROOT
BRANCH   1   2
ATOM      2  C   UNL     1      -1.824  11.866  19.676  0.00  0.00    +0.000 A 
ATOM      3  C   UNL     1      -2.941  12.454  20.270  0.00  0.00    +0.000 A 
ATOM      4  C   UNL     1      -4.202  12.395  19.671  0.00  0.00    +0.000 A 
ATOM      5  C   UNL     1      -4.374  11.696  18.451  0.00  0.00    +0.000 A 
ATOM      6  C   UNL     1      -3.264  11.092  17.834  0.00  0.00    +0.000 A 
ATOM      7  C   UNL     1      -2.009  11.212  18.441  0.00  0.00    +0.000 A 
BRANCH   4   8
ATOM      8  O   UNL     1      -5.313  12.978  20.227  0.00  0.00    +0.000 OA
ATOM      9  C   UNL     1      -5.217  14.373  20.495  0.00  0.00    +0.000 C 
ENDBRANCH   4   8
BRANCH   5  10
ATOM     10  O   UNL     1      -5.673  11.632  18.005  0.00  0.00    +0.000 OA
ATOM     11  C   UNL     1      -6.092  12.608  17.061  0.00  0.00    +0.000 C 
ENDBRANCH   5  10
BRANCH   6  12
ATOM     12  O   UNL     1      -3.450  10.375  16.680  0.00  0.00    +0.000 OA
ATOM     13  C   UNL     1      -2.846  10.849  15.479  0.00  0.00    +0.000 C 
ENDBRANCH   6  12
ENDBRANCH   1   2
BRANCH   1  14
ATOM     14  C   UNL     1      -0.364  13.212  21.298  0.00  0.00    +0.000 C 
ATOM     15  C   UNL     1      -0.757  12.954  22.765  0.00  0.00    +0.000 C 
ATOM     16  C   UNL     1       1.027  13.884  21.291  0.00  0.00    +0.000 C 
ENDBRANCH   1  14
BRANCH   1  17
ATOM     17  C   UNL     1       0.658  12.049  19.331  0.00  0.00    +0.000 C 
ATOM     18  N   UNL     1       1.570  12.151  18.467  0.00  0.00    +0.000 NA
ENDBRANCH   1  17
BRANCH   1  19
ATOM     19  C   UNL     1      -0.205  10.625  21.198  0.00  0.00    +0.000 C 
BRANCH  19  20
ATOM     20  C   UNL     1       0.342   9.492  20.324  0.00  0.00    +0.000 C 
BRANCH  20  21
ATOM     21  C   UNL     1       1.157   8.459  21.101  0.00  0.00    +0.000 C 
BRANCH  21  22
ATOM     22  N   UNL     1       2.030   7.681  20.198  0.00  0.00    +0.000 NA
ATOM     23  C   UNL     1       2.062   8.328  18.885  0.00  0.00    +0.000 C 
BRANCH  22  24
ATOM     24  C   UNL     1       1.586   6.274  20.096  0.00  0.00    +0.000 C 
BRANCH  24  25
ATOM     25  C   UNL     1       2.617   5.222  20.520  0.00  0.00    +0.000 C 
BRANCH  25  29
ATOM     26  C   UNL     1       5.294   4.549  17.185  0.00  0.00    +0.000 A 
ATOM     27  C   UNL     1       3.903   4.453  17.016  0.00  0.00    +0.000 A 
ATOM     28  C   UNL     1       3.030   4.652  18.088  0.00  0.00    +0.000 A 
ATOM     29  C   UNL     1       3.536   4.909  19.362  0.00  0.00    +0.000 A 
ATOM     30  C   UNL     1       4.925   4.949  19.541  0.00  0.00    +0.000 A 
ATOM     31  C   UNL     1       5.811   4.762  18.472  0.00  0.00    +0.000 A 
BRANCH  26  33
ATOM     32  C   UNL     1       5.539   4.297  14.840  0.00  0.00    +0.000 C 
ATOM     33  O   UNL     1       6.151   4.419  16.124  0.00  0.00    +0.000 OA
ENDBRANCH  26  33
BRANCH  31  34
ATOM     34  O   UNL     1       7.117   4.851  18.878  0.00  0.00    +0.000 OA
ATOM     35  C   UNL     1       7.773   6.106  18.818  0.00  0.00    +0.000 C 
ENDBRANCH  31  34
ENDBRANCH  25  29
ENDBRANCH  24  25
ENDBRANCH  22  24
ENDBRANCH  21  22
ENDBRANCH  20  21
ENDBRANCH  19  20
ENDBRANCH   1  19
TORSDOF 15
ENDMDL
MODEL 6
REMARK VINA RESULT:      -6.6      2.855      5.036
REMARK  Name = 
REMARK  23 active torsions:
REMARK  status: ('A' for Active; 'I' for Inactive)
REMARK    1  A    between atoms: C_1  and  O_2
REMARK    2  A    between atoms: O_2  and  C_3
REMARK    3  A    between atoms: C_6  and  C_7
REMARK    4  A    between atoms: C_7  and  C_8
REMARK    5  A    between atoms: C_8  and  N_9
REMARK    6  A    between atoms: N_9  and  C_10
REMARK    7  A    between atoms: N_9  and  C_11
REMARK    8  A    between atoms: C_11  and  C_12
REMARK    9  A    between atoms: C_12  and  C_13
REMARK   10  A    between atoms: C_13  and  C_14
REMARK   11  A    between atoms: C_14  and  C_15
REMARK   12  A    between atoms: C_14  and  C_17
REMARK   13  A    between atoms: C_14  and  C_29
REMARK   14  A    between atoms: C_19  and  O_20
REMARK   15  A    between atoms: O_20  and  C_21
REMARK   16  A    between atoms: C_22  and  O_23
REMARK   17  A    between atoms: O_23  and  C_24
REMARK   18  A    between atoms: C_25  and  O_26
REMARK   19  A    between atoms: O_26  and  C_27
REMARK   20  A    between atoms: C_29  and  C_30
REMARK   21  A    between atoms: C_29  and  C_31
REMARK   22  A    between atoms: C_33  and  O_34
REMARK   23  A    between atoms: O_34  and  C_35
REMARK                            x       y       z     vdW  Elec       q    Type
REMARK                         _______ _______ _______ _____ _____    ______ ____
ROOT
ATOM      1  C   UNL     1       6.382   5.909  17.640  0.00  0.00    +0.000 C 
ENDROOT
BRANCH   1   2
ATOM      2  C   UNL     1       5.131   5.285  18.307  0.00  0.00    +0.000 A 
ATOM      3  C   UNL     1       4.069   6.094  18.715  0.00  0.00    +0.000 A 
ATOM      4  C   UNL     1       2.940   5.556  19.338  0.00  0.00    +0.000 A 
ATOM      5  C   UNL     1       2.872   4.166  19.601  0.00  0.00    +0.000 A 
ATOM      6  C   UNL     1       3.931   3.330  19.203  0.00  0.00    +0.000 A 
ATOM      7  C   UNL     1       5.024   3.899  18.541  0.00  0.00    +0.000 A 
BRANCH   4   8
ATOM      8  O   UNL     1       1.876   6.327  19.735  0.00  0.00    +0.000 OA
ATOM      9  C   UNL     1       2.140   7.718  19.894  0.00  0.00    +0.000 C 
ENDBRANCH   4   8
BRANCH   5  10
ATOM     10  O   UNL     1       1.754   3.769  20.297  0.00  0.00    +0.000 OA
ATOM     11  C   UNL     1       0.724   3.116  19.567  0.00  0.00    +0.000 C 
ENDBRANCH   5  10
BRANCH   6  12
ATOM     12  O   UNL     1       3.877   1.994  19.508  0.00  0.00    +0.000 OA
ATOM     13  C   UNL     1       3.886   1.051  18.439  0.00  0.00    +0.000 C 
ENDBRANCH   6  12
ENDBRANCH   1   2
BRANCH   1  14
ATOM     14  C   UNL     1       6.087   6.186  16.105  0.00  0.00    +0.000 C 
ATOM     15  C   UNL     1       5.989   4.911  15.245  0.00  0.00    +0.000 C 
ATOM     16  C   UNL     1       4.805   7.015  15.871  0.00  0.00    +0.000 C 
ENDBRANCH   1  14
BRANCH   1  17
ATOM     17  C   UNL     1       7.546   4.936  17.709  0.00  0.00    +0.000 C 
ATOM     18  N   UNL     1       8.512   4.127  17.767  0.00  0.00    +0.000 NA
ENDBRANCH   1  17
BRANCH   1  19
ATOM     19  C   UNL     1       6.782   7.221  18.379  0.00  0.00    +0.000 C 
BRANCH  19  20
ATOM     20  C   UNL     1       7.910   7.959  17.651  0.00  0.00    +0.000 C 
BRANCH  20  21
ATOM     21  C   UNL     1       7.790   9.481  17.721  0.00  0.00    +0.000 C 
BRANCH  21  22
ATOM     22  N   UNL     1       9.059  10.095  18.164  0.00  0.00    +0.000 NA
ATOM     23  C   UNL     1       9.179   9.955  19.617  0.00  0.00    +0.000 C 
BRANCH  22  24
ATOM     24  C   UNL     1       9.148  11.512  17.749  0.00  0.00    +0.000 C 
BRANCH  24  25
ATOM     25  C   UNL     1      10.568  12.070  17.601  0.00  0.00    +0.000 C 
BRANCH  25  29
ATOM     26  C   UNL     1      10.296  16.381  17.316  0.00  0.00    +0.000 A 
ATOM     27  C   UNL     1      11.448  15.707  16.879  0.00  0.00    +0.000 A 
ATOM     28  C   UNL     1      11.554  14.319  16.980  0.00  0.00    +0.000 A 
ATOM     29  C   UNL     1      10.524  13.580  17.562  0.00  0.00    +0.000 A 
ATOM     30  C   UNL     1       9.400  14.258  18.050  0.00  0.00    +0.000 A 
ATOM     31  C   UNL     1       9.275  15.650  17.944  0.00  0.00    +0.000 A 
BRANCH  26  33
ATOM     32  C   UNL     1      11.312  18.518  17.473  0.00  0.00    +0.000 C 
ATOM     33  O   UNL     1      10.160  17.735  17.159  0.00  0.00    +0.000 OA
ENDBRANCH  26  33
BRANCH  31  34
ATOM     34  O   UNL     1       8.094  16.093  18.479  0.00  0.00    +0.000 OA
ATOM     35  C   UNL     1       8.069  16.530  19.827  0.00  0.00    +0.000 C 
ENDBRANCH  31  34
ENDBRANCH  25  29
ENDBRANCH  24  25
ENDBRANCH  22  24
ENDBRANCH  21  22
ENDBRANCH  20  21
ENDBRANCH  19  20
ENDBRANCH   1  19
TORSDOF 15
ENDMDL
MODEL 7
REMARK VINA RESULT:      -6.6      3.701      6.960
REMARK  Name = 
REMARK  23 active torsions:
REMARK  status: ('A' for Active; 'I' for Inactive)
REMARK    1  A    between atoms: C_1  and  O_2
REMARK    2  A    between atoms: O_2  and  C_3
REMARK    3  A    between atoms: C_6  and  C_7
REMARK    4  A    between atoms: C_7  and  C_8
REMARK    5  A    between atoms: C_8  and  N_9
REMARK    6  A    between atoms: N_9  and  C_10
REMARK    7  A    between atoms: N_9  and  C_11
REMARK    8  A    between atoms: C_11  and  C_12
REMARK    9  A    between atoms: C_12  and  C_13
REMARK   10  A    between atoms: C_13  and  C_14
REMARK   11  A    between atoms: C_14  and  C_15
REMARK   12  A    between atoms: C_14  and  C_17
REMARK   13  A    between atoms: C_14  and  C_29
REMARK   14  A    between atoms: C_19  and  O_20
REMARK   15  A    between atoms: O_20  and  C_21
REMARK   16  A    between atoms: C_22  and  O_23
REMARK   17  A    between atoms: O_23  and  C_24
REMARK   18  A    between atoms: C_25  and  O_26
REMARK   19  A    between atoms: O_26  and  C_27
REMARK   20  A    between atoms: C_29  and  C_30
REMARK   21  A    between atoms: C_29  and  C_31
REMARK   22  A    between atoms: C_33  and  O_34
REMARK   23  A    between atoms: O_34  and  C_35
REMARK                            x       y       z     vdW  Elec       q    Type
REMARK                         _______ _______ _______ _____ _____    ______ ____
ROOT
ATOM      1  C   UNL     1       0.529  10.032  18.879  0.00  0.00    +0.000 C 
ENDROOT
BRANCH   1   2
ATOM      2  C   UNL     1      -0.948  10.314  18.507  0.00  0.00    +0.000 A 
ATOM      3  C   UNL     1      -1.498   9.780  17.342  0.00  0.00    +0.000 A 
ATOM      4  C   UNL     1      -2.822  10.038  16.975  0.00  0.00    +0.000 A 
ATOM      5  C   UNL     1      -3.625  10.888  17.775  0.00  0.00    +0.000 A 
ATOM      6  C   UNL     1      -3.092  11.441  18.954  0.00  0.00    +0.000 A 
ATOM      7  C   UNL     1      -1.777  11.123  19.311  0.00  0.00    +0.000 A 
BRANCH   4   8
ATOM      8  O   UNL     1      -3.391   9.513  15.842  0.00  0.00    +0.000 OA
ATOM      9  C   UNL     1      -2.972  10.091  14.609  0.00  0.00    +0.000 C 
ENDBRANCH   4   8
BRANCH   5  10
ATOM     10  O   UNL     1      -4.878  11.137  17.266  0.00  0.00    +0.000 OA
ATOM     11  C   UNL     1      -5.234  12.494  17.034  0.00  0.00    +0.000 C 
ENDBRANCH   5  10
BRANCH   6  12
ATOM     12  O   UNL     1      -3.861  12.302  19.694  0.00  0.00    +0.000 OA
ATOM     13  C   UNL     1      -3.207  13.235  20.549  0.00  0.00    +0.000 C 
ENDBRANCH   6  12
ENDBRANCH   1   2
BRANCH   1  14
ATOM     14  C   UNL     1       0.654   9.818  20.447  0.00  0.00    +0.000 C 
ATOM     15  C   UNL     1       0.563  11.119  21.267  0.00  0.00    +0.000 C 
ATOM     16  C   UNL     1      -0.388   8.827  21.012  0.00  0.00    +0.000 C 
ENDBRANCH   1  14
BRANCH   1  17
ATOM     17  C   UNL     1       1.393  11.227  18.514  0.00  0.00    +0.000 C 
ATOM     18  N   UNL     1       2.110  12.219  18.212  0.00  0.00    +0.000 NA
ENDBRANCH   1  17
BRANCH   1  19
ATOM     19  C   UNL     1       1.046   8.785  18.100  0.00  0.00    +0.000 C 
BRANCH  19  20
ATOM     20  C   UNL     1       2.500   8.460  18.454  0.00  0.00    +0.000 C 
BRANCH  20  21
ATOM     21  C   UNL     1       2.642   7.437  19.580  0.00  0.00    +0.000 C 
BRANCH  21  22
ATOM     22  N   UNL     1       1.961   6.171  19.239  0.00  0.00    +0.000 NA
ATOM     23  C   UNL     1       1.487   5.533  20.469  0.00  0.00    +0.000 C 
BRANCH  22  24
ATOM     24  C   UNL     1       2.846   5.270  18.470  0.00  0.00    +0.000 C 
BRANCH  24  25
ATOM     25  C   UNL     1       4.266   5.107  19.024  0.00  0.00    +0.000 C 
BRANCH  25  29
ATOM     26  C   UNL     1       6.975   5.073  15.648  0.00  0.00    +0.000 A 
ATOM     27  C   UNL     1       6.096   4.001  15.869  0.00  0.00    +0.000 A 
ATOM     28  C   UNL     1       5.228   3.993  16.963  0.00  0.00    +0.000 A 
ATOM     29  C   UNL     1       5.256   5.041  17.884  0.00  0.00    +0.000 A 
ATOM     30  C   UNL     1       6.173   6.082  17.693  0.00  0.00    +0.000 A 
ATOM     31  C   UNL     1       7.041   6.108  16.594  0.00  0.00    +0.000 A 
BRANCH  26  33
ATOM     32  C   UNL     1       7.135   4.885  13.289  0.00  0.00    +0.000 C 
ATOM     33  O   UNL     1       7.782   5.117  14.541  0.00  0.00    +0.000 OA
ENDBRANCH  26  33
BRANCH  31  34
ATOM     34  O   UNL     1       7.840   7.220  16.608  0.00  0.00    +0.000 OA
ATOM     35  C   UNL     1       7.816   8.072  17.742  0.00  0.00    +0.000 C 
ENDBRANCH  31  34
ENDBRANCH  25  29
ENDBRANCH  24  25
ENDBRANCH  22  24
ENDBRANCH  21  22
ENDBRANCH  20  21
ENDBRANCH  19  20
ENDBRANCH   1  19
TORSDOF 15
ENDMDL
MODEL 8
REMARK VINA RESULT:      -6.6      1.153      1.273
REMARK  Name = 
REMARK  23 active torsions:
REMARK  status: ('A' for Active; 'I' for Inactive)
REMARK    1  A    between atoms: C_1  and  O_2
REMARK    2  A    between atoms: O_2  and  C_3
REMARK    3  A    between atoms: C_6  and  C_7
REMARK    4  A    between atoms: C_7  and  C_8
REMARK    5  A    between atoms: C_8  and  N_9
REMARK    6  A    between atoms: N_9  and  C_10
REMARK    7  A    between atoms: N_9  and  C_11
REMARK    8  A    between atoms: C_11  and  C_12
REMARK    9  A    between atoms: C_12  and  C_13
REMARK   10  A    between atoms: C_13  and  C_14
REMARK   11  A    between atoms: C_14  and  C_15
REMARK   12  A    between atoms: C_14  and  C_17
REMARK   13  A    between atoms: C_14  and  C_29
REMARK   14  A    between atoms: C_19  and  O_20
REMARK   15  A    between atoms: O_20  and  C_21
REMARK   16  A    between atoms: C_22  and  O_23
REMARK   17  A    between atoms: O_23  and  C_24
REMARK   18  A    between atoms: C_25  and  O_26
REMARK   19  A    between atoms: O_26  and  C_27
REMARK   20  A    between atoms: C_29  and  C_30
REMARK   21  A    between atoms: C_29  and  C_31
REMARK   22  A    between atoms: C_33  and  O_34
REMARK   23  A    between atoms: O_34  and  C_35
REMARK                            x       y       z     vdW  Elec       q    Type
REMARK                         _______ _______ _______ _____ _____    ______ ____
ROOT
ATOM      1  C   UNL     1       3.336   5.817  18.138  0.00  0.00    +0.000 C 
ENDROOT
BRANCH   1   2
ATOM      2  C   UNL     1       2.654   7.119  18.628  0.00  0.00    +0.000 A 
ATOM      3  C   UNL     1       2.022   7.161  19.871  0.00  0.00    +0.000 A 
ATOM      4  C   UNL     1       1.382   8.318  20.325  0.00  0.00    +0.000 A 
ATOM      5  C   UNL     1       1.334   9.469  19.503  0.00  0.00    +0.000 A 
ATOM      6  C   UNL     1       1.962   9.451  18.244  0.00  0.00    +0.000 A 
ATOM      7  C   UNL     1       2.631   8.290  17.843  0.00  0.00    +0.000 A 
BRANCH   4   8
ATOM      8  O   UNL     1       0.766   8.390  21.550  0.00  0.00    +0.000 OA
ATOM      9  C   UNL     1       1.544   8.942  22.607  0.00  0.00    +0.000 C 
ENDBRANCH   4   8
BRANCH   5  10
ATOM     10  O   UNL     1       0.602  10.513  20.019  0.00  0.00    +0.000 OA
ATOM     11  C   UNL     1      -0.712  10.705  19.515  0.00  0.00    +0.000 C 
ENDBRANCH   5  10
BRANCH   6  12
ATOM     12  O   UNL     1       1.866  10.554  17.434  0.00  0.00    +0.000 OA
ATOM     13  C   UNL     1       2.544  11.745  17.823  0.00  0.00    +0.000 C 
ENDBRANCH   6  12
ENDBRANCH   1   2
BRANCH   1  14
ATOM     14  C   UNL     1       2.239   4.694  17.903  0.00  0.00    +0.000 C 
ATOM     15  C   UNL     1       2.735   3.500  17.065  0.00  0.00    +0.000 C 
ATOM     16  C   UNL     1       1.645   4.140  19.216  0.00  0.00    +0.000 C 
ENDBRANCH   1  14
BRANCH   1  17
ATOM     17  C   UNL     1       4.292   5.302  19.201  0.00  0.00    +0.000 C 
ATOM     18  N   UNL     1       5.085   4.874  20.083  0.00  0.00    +0.000 NA
ENDBRANCH   1  17
BRANCH   1  19
ATOM     19  C   UNL     1       4.142   6.097  16.834  0.00  0.00    +0.000 C 
BRANCH  19  20
ATOM     20  C   UNL     1       5.641   6.237  17.114  0.00  0.00    +0.000 C 
BRANCH  20  21
ATOM     21  C   UNL     1       6.187   7.637  16.833  0.00  0.00    +0.000 C 
BRANCH  21  22
ATOM     22  N   UNL     1       7.561   7.787  17.356  0.00  0.00    +0.000 NA
ATOM     23  C   UNL     1       7.816   6.738  18.346  0.00  0.00    +0.000 C 
BRANCH  22  24
ATOM     24  C   UNL     1       7.778   9.133  17.930  0.00  0.00    +0.000 C 
BRANCH  24  25
ATOM     25  C   UNL     1       9.176   9.390  18.504  0.00  0.00    +0.000 C 
BRANCH  25  29
ATOM     26  C   UNL     1       9.934  13.587  19.248  0.00  0.00    +0.000 A 
ATOM     27  C   UNL     1       9.244  12.807  20.191  0.00  0.00    +0.000 A 
ATOM     28  C   UNL     1       8.980  11.456  19.955  0.00  0.00    +0.000 A 
ATOM     29  C   UNL     1       9.364  10.870  18.749  0.00  0.00    +0.000 A 
ATOM     30  C   UNL     1      10.000  11.662  17.786  0.00  0.00    +0.000 A 
ATOM     31  C   UNL     1      10.282  13.016  18.014  0.00  0.00    +0.000 A 
BRANCH  26  33
ATOM     32  C   UNL     1      11.550  15.124  20.053  0.00  0.00    +0.000 C 
ATOM     33  O   UNL     1      10.253  14.895  19.502  0.00  0.00    +0.000 OA
ENDBRANCH  26  33
BRANCH  31  34
ATOM     34  O   UNL     1      10.914  13.587  16.941  0.00  0.00    +0.000 OA
ATOM     35  C   UNL     1      12.316  13.434  16.806  0.00  0.00    +0.000 C 
ENDBRANCH  31  34
ENDBRANCH  25  29
ENDBRANCH  24  25
ENDBRANCH  22  24
ENDBRANCH  21  22
ENDBRANCH  20  21
ENDBRANCH  19  20
ENDBRANCH   1  19
TORSDOF 15
ENDMDL
MODEL 9
REMARK VINA RESULT:      -6.6      3.911      7.060
REMARK  Name = 
REMARK  23 active torsions:
REMARK  status: ('A' for Active; 'I' for Inactive)
REMARK    1  A    between atoms: C_1  and  O_2
REMARK    2  A    between atoms: O_2  and  C_3
REMARK    3  A    between atoms: C_6  and  C_7
REMARK    4  A    between atoms: C_7  and  C_8
REMARK    5  A    between atoms: C_8  and  N_9
REMARK    6  A    between atoms: N_9  and  C_10
REMARK    7  A    between atoms: N_9  and  C_11
REMARK    8  A    between atoms: C_11  and  C_12
REMARK    9  A    between atoms: C_12  and  C_13
REMARK   10  A    between atoms: C_13  and  C_14
REMARK   11  A    between atoms: C_14  and  C_15
REMARK   12  A    between atoms: C_14  and  C_17
REMARK   13  A    between atoms: C_14  and  C_29
REMARK   14  A    between atoms: C_19  and  O_20
REMARK   15  A    between atoms: O_20  and  C_21
REMARK   16  A    between atoms: C_22  and  O_23
REMARK   17  A    between atoms: O_23  and  C_24
REMARK   18  A    between atoms: C_25  and  O_26
REMARK   19  A    between atoms: O_26  and  C_27
REMARK   20  A    between atoms: C_29  and  C_30
REMARK   21  A    between atoms: C_29  and  C_31
REMARK   22  A    between atoms: C_33  and  O_34
REMARK   23  A    between atoms: O_34  and  C_35
REMARK                            x       y       z     vdW  Elec       q    Type
REMARK                         _______ _______ _______ _____ _____    ______ ____
ROOT
ATOM      1  C   UNL     1       0.452  10.292  19.461  0.00  0.00    +0.000 C 
ENDROOT
BRANCH   1   2
ATOM      2  C   UNL     1      -0.940  10.726  18.938  0.00  0.00    +0.000 A 
ATOM      3  C   UNL     1      -1.690  11.678  19.630  0.00  0.00    +0.000 A 
ATOM      4  C   UNL     1      -2.957  12.069  19.188  0.00  0.00    +0.000 A 
ATOM      5  C   UNL     1      -3.521  11.471  18.035  0.00  0.00    +0.000 A 
ATOM      6  C   UNL     1      -2.786  10.507  17.322  0.00  0.00    +0.000 A 
ATOM      7  C   UNL     1      -1.502  10.174  17.769  0.00  0.00    +0.000 A 
BRANCH   4   8
ATOM      8  O   UNL     1      -3.709  13.014  19.842  0.00  0.00    +0.000 OA
ATOM      9  C   UNL     1      -4.131  12.672  21.158  0.00  0.00    +0.000 C 
ENDBRANCH   4   8
BRANCH   5  10
ATOM     10  O   UNL     1      -4.806  11.872  17.751  0.00  0.00    +0.000 OA
ATOM     11  C   UNL     1      -5.866  11.030  18.181  0.00  0.00    +0.000 C 
ENDBRANCH   5  10
BRANCH   6  12
ATOM     12  O   UNL     1      -3.361   9.897  16.237  0.00  0.00    +0.000 OA
ATOM     13  C   UNL     1      -3.015  10.359  14.934  0.00  0.00    +0.000 C 
ENDBRANCH   6  12
ENDBRANCH   1   2
BRANCH   1  14
ATOM     14  C   UNL     1       0.654  10.820  20.945  0.00  0.00    +0.000 C 
ATOM     15  C   UNL     1       0.856  12.344  21.045  0.00  0.00    +0.000 C 
ATOM     16  C   UNL     1      -0.501  10.431  21.892  0.00  0.00    +0.000 C 
ENDBRANCH   1  14
BRANCH   1  17
ATOM     17  C   UNL     1       1.543  10.913  18.606  0.00  0.00    +0.000 C 
ATOM     18  N   UNL     1       2.449  11.428  17.896  0.00  0.00    +0.000 NA
ENDBRANCH   1  17
BRANCH   1  19
ATOM     19  C   UNL     1       0.586   8.741  19.395  0.00  0.00    +0.000 C 
BRANCH  19  20
ATOM     20  C   UNL     1       1.736   8.235  20.272  0.00  0.00    +0.000 C 
BRANCH  20  21
ATOM     21  C   UNL     1       2.607   7.181  19.589  0.00  0.00    +0.000 C 
BRANCH  21  22
ATOM     22  N   UNL     1       1.891   5.894  19.471  0.00  0.00    +0.000 NA
ATOM     23  C   UNL     1       2.166   5.080  20.657  0.00  0.00    +0.000 C 
BRANCH  22  24
ATOM     24  C   UNL     1       2.260   5.180  18.230  0.00  0.00    +0.000 C 
BRANCH  24  25
ATOM     25  C   UNL     1       3.363   4.125  18.376  0.00  0.00    +0.000 C 
BRANCH  25  29
ATOM     26  C   UNL     1       6.529   5.217  15.634  0.00  0.00    +0.000 A 
ATOM     27  C   UNL     1       5.975   3.927  15.607  0.00  0.00    +0.000 A 
ATOM     28  C   UNL     1       4.964   3.559  16.497  0.00  0.00    +0.000 A 
ATOM     29  C   UNL     1       4.518   4.463  17.462  0.00  0.00    +0.000 A 
ATOM     30  C   UNL     1       5.112   5.729  17.524  0.00  0.00    +0.000 A 
ATOM     31  C   UNL     1       6.119   6.116  16.630  0.00  0.00    +0.000 A 
BRANCH  26  33
ATOM     32  C   UNL     1       7.421   4.951  13.452  0.00  0.00    +0.000 C 
ATOM     33  O   UNL     1       7.475   5.605  14.721  0.00  0.00    +0.000 OA
ENDBRANCH  26  33
BRANCH  31  34
ATOM     34  O   UNL     1       6.544   7.396  16.872  0.00  0.00    +0.000 OA
ATOM     35  C   UNL     1       7.725   7.600  17.629  0.00  0.00    +0.000 C 
ENDBRANCH  31  34
ENDBRANCH  25  29
ENDBRANCH  24  25
ENDBRANCH  22  24
ENDBRANCH  21  22
ENDBRANCH  20  21
ENDBRANCH  19  20
ENDBRANCH   1  19
TORSDOF 15
ENDMDL
