MODEL 1
REMARK VINA RESULT:      -2.3      0.000      0.000
REMARK  Name = 
REMARK  0 active torsions:
REMARK  status: ('A' for Active; 'I' for Inactive)
REMARK                            x       y       z     vdW  Elec       q    Type
REMARK                         _______ _______ _______ _____ _____    ______ ____
ROOT
ATOM      1  N   UNL     1       6.111   0.619  22.238  0.00  0.00    +0.000 NA
ATOM      2  C   UNL     1       6.683  -0.495  22.285  0.00  0.00    +0.000 C 
ATOM      3  N   UNL     1       7.240  -1.618  22.300  0.00  0.00    +0.000 NA
ENDROOT
TORSDOF 0
ENDMDL
MODEL 2
REMARK VINA RESULT:      -2.3      7.127      7.481
REMARK  Name = 
REMARK  0 active torsions:
REMARK  status: ('A' for Active; 'I' for Inactive)
REMARK                            x       y       z     vdW  Elec       q    Type
REMARK                         _______ _______ _______ _____ _____    ______ ____
ROOT
ATOM      1  N   UNL     1       7.661   3.843  27.112  0.00  0.00    +0.000 NA
ATOM      2  C   UNL     1       8.777   4.315  27.432  0.00  0.00    +0.000 C 
ATOM      3  N   UNL     1       9.909   4.755  27.742  0.00  0.00    +0.000 NA
ENDROOT
TORSDOF 0
ENDMDL
MODEL 3
REMARK VINA RESULT:      -2.3      7.130      7.510
REMARK  Name = 
REMARK  0 active torsions:
REMARK  status: ('A' for Active; 'I' for Inactive)
REMARK                            x       y       z     vdW  Elec       q    Type
REMARK                         _______ _______ _______ _____ _____    ______ ____
ROOT
ATOM      1  N   UNL     1       9.920   4.735  27.738  0.00  0.00    +0.000 NA
ATOM      2  C   UNL     1       8.783   4.310  27.427  0.00  0.00    +0.000 C 
ATOM      3  N   UNL     1       7.650   3.857  27.142  0.00  0.00    +0.000 NA
ENDROOT
TORSDOF 0
ENDMDL
MODEL 4
REMARK VINA RESULT:      -2.3      0.256      2.052
REMARK  Name = 
REMARK  0 active torsions:
REMARK  status: ('A' for Active; 'I' for Inactive)
REMARK                            x       y       z     vdW  Elec       q    Type
REMARK                         _______ _______ _______ _____ _____    ______ ____
ROOT
ATOM      1  N   UNL     1       6.938  -1.561  22.453  0.00  0.00    +0.000 NA
ATOM      2  C   UNL     1       6.487  -0.401  22.312  0.00  0.00    +0.000 C 
ATOM      3  N   UNL     1       6.070   0.772  22.167  0.00  0.00    +0.000 NA
ENDROOT
TORSDOF 0
ENDMDL
MODEL 5
REMARK VINA RESULT:      -2.2     14.324     14.658
REMARK  Name = 
REMARK  0 active torsions:
REMARK  status: ('A' for Active; 'I' for Inactive)
REMARK                            x       y       z     vdW  Elec       q    Type
REMARK                         _______ _______ _______ _____ _____    ______ ____
ROOT
ATOM      1  N   UNL     1       1.907   5.435   8.450  0.00  0.00    +0.000 NA
ATOM      2  C   UNL     1       2.518   4.653   9.215  0.00  0.00    +0.000 C 
ATOM      3  N   UNL     1       3.160   3.891   9.974  0.00  0.00    +0.000 NA
ENDROOT
TORSDOF 0
ENDMDL
MODEL 6
REMARK VINA RESULT:      -2.2     14.320     14.766
REMARK  Name = 
REMARK  0 active torsions:
REMARK  status: ('A' for Active; 'I' for Inactive)
REMARK                            x       y       z     vdW  Elec       q    Type
REMARK                         _______ _______ _______ _____ _____    ______ ____
ROOT
ATOM      1  N   UNL     1       3.204   3.946   9.994  0.00  0.00    +0.000 NA
ATOM      2  C   UNL     1       2.542   4.664   9.209  0.00  0.00    +0.000 C 
ATOM      3  N   UNL     1       1.878   5.409   8.451  0.00  0.00    +0.000 NA
ENDROOT
TORSDOF 0
ENDMDL
MODEL 7
REMARK VINA RESULT:      -2.2      7.336      7.913
REMARK  Name = 
REMARK  0 active torsions:
REMARK  status: ('A' for Active; 'I' for Inactive)
REMARK                            x       y       z     vdW  Elec       q    Type
REMARK                         _______ _______ _______ _____ _____    ______ ____
ROOT
ATOM      1  N   UNL     1       7.642   3.807  27.045  0.00  0.00    +0.000 NA
ATOM      2  C   UNL     1       7.445   4.819  27.758  0.00  0.00    +0.000 C 
ATOM      3  N   UNL     1       7.230   5.846  28.443  0.00  0.00    +0.000 NA
ENDROOT
TORSDOF 0
ENDMDL
MODEL 8
REMARK VINA RESULT:      -2.2      7.360      7.723
REMARK  Name = 
REMARK  0 active torsions:
REMARK  status: ('A' for Active; 'I' for Inactive)
REMARK                            x       y       z     vdW  Elec       q    Type
REMARK                         _______ _______ _______ _____ _____    ______ ____
ROOT
ATOM      1  N   UNL     1       7.517   5.752  28.566  0.00  0.00    +0.000 NA
ATOM      2  C   UNL     1       7.608   4.772  27.791  0.00  0.00    +0.000 C 
ATOM      3  N   UNL     1       7.664   3.798  27.005  0.00  0.00    +0.000 NA
ENDROOT
TORSDOF 0
ENDMDL
MODEL 9
REMARK VINA RESULT:      -2.1      6.710      7.044
REMARK  Name = 
REMARK  0 active torsions:
REMARK  status: ('A' for Active; 'I' for Inactive)
REMARK                            x       y       z     vdW  Elec       q    Type
REMARK                         _______ _______ _______ _____ _____    ______ ____
ROOT
ATOM      1  N   UNL     1       7.579   5.084  19.114  0.00  0.00    +0.000 NA
ATOM      2  C   UNL     1       7.652   4.784  17.900  0.00  0.00    +0.000 C 
ATOM      3  N   UNL     1       7.762   4.480  16.689  0.00  0.00    +0.000 NA
ENDROOT
TORSDOF 0
ENDMDL
