MODEL 1
REMARK VINA RESULT:      -7.1      0.000      0.000
REMARK  Name = 
REMARK  10 active torsions:
REMARK  status: ('A' for Active; 'I' for Inactive)
REMARK    1  A    between atoms: C_1  and  O_2
REMARK    2  A    between atoms: O_2  and  C_3
REMARK    3  A    between atoms: C_3  and  C_5
REMARK    4  A    between atoms: C_7  and  O_8
REMARK    5  A    between atoms: O_8  and  C_9
REMARK    6  A    between atoms: C_9  and  C_10
REMARK    7  A    between atoms: C_15  and  C_16
REMARK    8  A    between atoms: C_23  and  C_24
REMARK    9  A    between atoms: C_28  and  C_29
REMARK   10  A    between atoms: C_35  and  C_36
REMARK                            x       y       z     vdW  Elec       q    Type
REMARK                         _______ _______ _______ _____ _____    ______ ____
ROOT
ATOM      1  C   UNL     1      -5.897  15.667  20.500  0.00  0.00    +0.000 C 
ATOM      2  C   UNL     1      -7.020  14.621  20.322  0.00  0.00    +0.000 C 
ATOM      3  C   UNL     1      -6.499  13.183  20.356  0.00  0.00    +0.000 C 
ATOM      4  C   UNL     1      -5.663  12.995  21.629  0.00  0.00    +0.000 C 
ATOM      5  O   UNL     1      -5.874  12.095  22.436  0.00  0.00    +0.000 OA
ATOM      6  C   UNL     1      -4.502  13.994  21.769  0.00  0.00    +0.000 C 
ATOM      7  C   UNL     1      -5.069  15.454  21.827  0.00  0.00    +0.000 C 
ATOM      8  C   UNL     1      -5.980  15.717  23.048  0.00  0.00    +0.000 C 
ATOM      9  C   UNL     1      -3.877  16.453  21.876  0.00  0.00    +0.000 C 
ATOM     10  C   UNL     1      -2.803  16.103  22.910  0.00  0.00    +0.000 C 
ATOM     11  C   UNL     1      -2.262  14.694  22.670  0.00  0.00    +0.000 C 
ATOM     12  C   UNL     1      -1.055  14.369  23.529  0.00  0.00    +0.000 C 
ATOM     13  O   UNL     1      -0.484  15.192  24.233  0.00  0.00    +0.000 OA
ATOM     14  O   UNL     1      -0.547  13.129  23.337  0.00  0.00    +0.000 OA
ATOM     15  C   UNL     1      -1.406  11.987  23.104  0.00  0.00    +0.000 C 
ATOM     16  C   UNL     1      -2.666  12.321  22.292  0.00  0.00    +0.000 C 
ATOM     17  C   UNL     1      -3.360  13.615  22.777  0.00  0.00    +0.000 C 
ATOM     18  C   UNL     1      -3.837  13.431  24.237  0.00  0.00    +0.000 C 
ENDROOT
BRANCH  15  19
ATOM     19  C   UNL     1      -0.628  10.886  22.446  0.00  0.00    +0.000 A 
ATOM     20  C   UNL     1      -0.148   9.708  23.102  0.00  0.00    +0.000 A 
ATOM     21  C   UNL     1       0.480   8.954  22.147  0.00  0.00    +0.000 A 
ATOM     22  O   UNL     1       0.442   9.588  20.951  0.00  0.00    +0.000 OA
ATOM     23  C   UNL     1      -0.219  10.779  21.120  0.00  0.00    +0.000 A 
BRANCH  23  24
ATOM     24  C   UNL     1      -0.410  11.749  20.005  0.00  0.00    +0.000 A 
ATOM     25  C   UNL     1       0.095  13.057  19.813  0.00  0.00    +0.000 A 
ATOM     26  C   UNL     1      -0.373  13.480  18.590  0.00  0.00    +0.000 A 
ATOM     27  O   UNL     1      -1.148  12.523  18.024  0.00  0.00    +0.000 OA
ATOM     28  C   UNL     1      -1.167  11.472  18.888  0.00  0.00    +0.000 A 
ENDBRANCH  23  24
ENDBRANCH  15  19
BRANCH   1  29
ATOM     29  C   UNL     1      -6.414  17.093  20.333  0.00  0.00    +0.000 C 
ATOM     30  O   UNL     1      -7.375  17.531  20.950  0.00  0.00    +0.000 OA
BRANCH  29  32
ATOM     31  C   UNL     1      -6.282  17.700  18.077  0.00  0.00    +0.000 C 
ATOM     32  O   UNL     1      -5.721  17.780  19.388  0.00  0.00    +0.000 OA
ENDBRANCH  29  32
ENDBRANCH   1  29
BRANCH   3  33
ATOM     33  O   UNL     1      -7.596  12.261  20.318  0.00  0.00    +0.000 OA
BRANCH  33  34
ATOM     34  C   UNL     1      -7.337  11.074  19.712  0.00  0.00    +0.000 C 
ATOM     35  C   UNL     1      -6.836  11.264  18.312  0.00  0.00    +0.000 C 
ATOM     36  O   UNL     1      -7.472   9.975  20.241  0.00  0.00    +0.000 OA
ENDBRANCH  33  34
ENDBRANCH   3  33
TORSDOF 6
ENDMDL
MODEL 2
REMARK VINA RESULT:      -6.7      3.260      5.264
REMARK  Name = 
REMARK  10 active torsions:
REMARK  status: ('A' for Active; 'I' for Inactive)
REMARK    1  A    between atoms: C_1  and  O_2
REMARK    2  A    between atoms: O_2  and  C_3
REMARK    3  A    between atoms: C_3  and  C_5
REMARK    4  A    between atoms: C_7  and  O_8
REMARK    5  A    between atoms: O_8  and  C_9
REMARK    6  A    between atoms: C_9  and  C_10
REMARK    7  A    between atoms: C_15  and  C_16
REMARK    8  A    between atoms: C_23  and  C_24
REMARK    9  A    between atoms: C_28  and  C_29
REMARK   10  A    between atoms: C_35  and  C_36
REMARK                            x       y       z     vdW  Elec       q    Type
REMARK                         _______ _______ _______ _____ _____    ______ ____
ROOT
ATOM      1  C   UNL     1      -4.630  13.417  22.408  0.00  0.00    +0.000 C 
ATOM      2  C   UNL     1      -5.040  12.473  21.257  0.00  0.00    +0.000 C 
ATOM      3  C   UNL     1      -4.346  12.812  19.937  0.00  0.00    +0.000 C 
ATOM      4  C   UNL     1      -2.832  12.879  20.183  0.00  0.00    +0.000 C 
ATOM      5  O   UNL     1      -2.023  12.233  19.525  0.00  0.00    +0.000 OA
ATOM      6  C   UNL     1      -2.420  13.872  21.282  0.00  0.00    +0.000 C 
ATOM      7  C   UNL     1      -3.069  13.449  22.645  0.00  0.00    +0.000 C 
ATOM      8  C   UNL     1      -2.599  12.066  23.151  0.00  0.00    +0.000 C 
ATOM      9  C   UNL     1      -2.716  14.515  23.721  0.00  0.00    +0.000 C 
ATOM     10  C   UNL     1      -1.234  14.897  23.768  0.00  0.00    +0.000 C 
ATOM     11  C   UNL     1      -0.761  15.394  22.402  0.00  0.00    +0.000 C 
ATOM     12  C   UNL     1       0.637  15.980  22.436  0.00  0.00    +0.000 C 
ATOM     13  O   UNL     1       1.266  16.170  23.470  0.00  0.00    +0.000 OA
ATOM     14  O   UNL     1       1.085  16.434  21.243  0.00  0.00    +0.000 OA
ATOM     15  C   UNL     1       0.788  15.739  20.009  0.00  0.00    +0.000 C 
ATOM     16  C   UNL     1      -0.602  15.084  19.991  0.00  0.00    +0.000 C 
ATOM     17  C   UNL     1      -0.917  14.324  21.301  0.00  0.00    +0.000 C 
ATOM     18  C   UNL     1       0.092  13.166  21.484  0.00  0.00    +0.000 C 
ENDROOT
BRANCH  15  19
ATOM     19  C   UNL     1       0.949  16.669  18.843  0.00  0.00    +0.000 A 
ATOM     20  C   UNL     1      -0.096  17.454  18.262  0.00  0.00    +0.000 A 
ATOM     21  C   UNL     1       0.473  18.180  17.249  0.00  0.00    +0.000 A 
ATOM     22  O   UNL     1       1.791  17.887  17.147  0.00  0.00    +0.000 OA
ATOM     23  C   UNL     1       2.095  16.952  18.105  0.00  0.00    +0.000 A 
BRANCH  23  24
ATOM     24  C   UNL     1       3.462  16.376  18.251  0.00  0.00    +0.000 A 
ATOM     25  C   UNL     1       4.537  16.735  19.099  0.00  0.00    +0.000 A 
ATOM     26  C   UNL     1       5.553  15.843  18.840  0.00  0.00    +0.000 A 
ATOM     27  O   UNL     1       5.179  14.969  17.874  0.00  0.00    +0.000 OA
ATOM     28  C   UNL     1       3.906  15.296  17.520  0.00  0.00    +0.000 A 
ENDBRANCH  23  24
ENDBRANCH  15  19
BRANCH   1  29
ATOM     29  C   UNL     1      -5.428  13.148  23.680  0.00  0.00    +0.000 C 
ATOM     30  O   UNL     1      -5.316  12.119  24.333  0.00  0.00    +0.000 OA
BRANCH  29  32
ATOM     31  C   UNL     1      -7.628  13.705  24.249  0.00  0.00    +0.000 C 
ATOM     32  O   UNL     1      -6.303  14.150  23.956  0.00  0.00    +0.000 OA
ENDBRANCH  29  32
ENDBRANCH   1  29
BRANCH   3  33
ATOM     33  O   UNL     1      -4.665  11.827  18.946  0.00  0.00    +0.000 OA
BRANCH  33  34
ATOM     34  C   UNL     1      -5.827  12.034  18.274  0.00  0.00    +0.000 C 
ATOM     35  C   UNL     1      -6.768  10.878  18.426  0.00  0.00    +0.000 C 
ATOM     36  O   UNL     1      -6.093  13.047  17.635  0.00  0.00    +0.000 OA
ENDBRANCH  33  34
ENDBRANCH   3  33
TORSDOF 6
ENDMDL
MODEL 3
REMARK VINA RESULT:      -6.5      3.252      6.719
REMARK  Name = 
REMARK  10 active torsions:
REMARK  status: ('A' for Active; 'I' for Inactive)
REMARK    1  A    between atoms: C_1  and  O_2
REMARK    2  A    between atoms: O_2  and  C_3
REMARK    3  A    between atoms: C_3  and  C_5
REMARK    4  A    between atoms: C_7  and  O_8
REMARK    5  A    between atoms: O_8  and  C_9
REMARK    6  A    between atoms: C_9  and  C_10
REMARK    7  A    between atoms: C_15  and  C_16
REMARK    8  A    between atoms: C_23  and  C_24
REMARK    9  A    between atoms: C_28  and  C_29
REMARK   10  A    between atoms: C_35  and  C_36
REMARK                            x       y       z     vdW  Elec       q    Type
REMARK                         _______ _______ _______ _____ _____    ______ ____
ROOT
ATOM      1  C   UNL     1      -0.959  15.389  22.524  0.00  0.00    +0.000 C 
ATOM      2  C   UNL     1       0.426  16.073  22.525  0.00  0.00    +0.000 C 
ATOM      3  C   UNL     1       1.544  15.145  22.047  0.00  0.00    +0.000 C 
ATOM      4  C   UNL     1       1.140  14.549  20.692  0.00  0.00    +0.000 C 
ATOM      5  O   UNL     1       1.855  14.617  19.697  0.00  0.00    +0.000 OA
ATOM      6  C   UNL     1      -0.207  13.808  20.710  0.00  0.00    +0.000 C 
ATOM      7  C   UNL     1      -1.350  14.803  21.111  0.00  0.00    +0.000 C 
ATOM      8  C   UNL     1      -1.539  15.965  20.109  0.00  0.00    +0.000 C 
ATOM      9  C   UNL     1      -2.687  14.016  21.213  0.00  0.00    +0.000 C 
ATOM     10  C   UNL     1      -2.975  13.103  20.017  0.00  0.00    +0.000 C 
ATOM     11  C   UNL     1      -1.829  12.113  19.807  0.00  0.00    +0.000 C 
ATOM     12  C   UNL     1      -2.147  11.051  18.773  0.00  0.00    +0.000 C 
ATOM     13  O   UNL     1      -3.252  10.911  18.264  0.00  0.00    +0.000 OA
ATOM     14  O   UNL     1      -1.155  10.154  18.566  0.00  0.00    +0.000 OA
ATOM     15  C   UNL     1       0.237  10.552  18.566  0.00  0.00    +0.000 C 
ATOM     16  C   UNL     1       0.555  11.675  19.565  0.00  0.00    +0.000 C 
ATOM     17  C   UNL     1      -0.486  12.818  19.525  0.00  0.00    +0.000 C 
ATOM     18  C   UNL     1      -0.474  13.481  18.127  0.00  0.00    +0.000 C 
ENDROOT
BRANCH  15  19
ATOM     19  C   UNL     1       1.112   9.359  18.815  0.00  0.00    +0.000 A 
ATOM     20  C   UNL     1       1.865   8.664  17.817  0.00  0.00    +0.000 A 
ATOM     21  C   UNL     1       2.544   7.664  18.460  0.00  0.00    +0.000 A 
ATOM     22  O   UNL     1       2.251   7.675  19.782  0.00  0.00    +0.000 OA
ATOM     23  C   UNL     1       1.363   8.696  20.013  0.00  0.00    +0.000 A 
BRANCH  23  24
ATOM     24  C   UNL     1       0.800   8.972  21.366  0.00  0.00    +0.000 A 
ATOM     25  C   UNL     1      -0.525   8.890  21.856  0.00  0.00    +0.000 A 
ATOM     26  C   UNL     1      -0.468   9.223  23.190  0.00  0.00    +0.000 A 
ATOM     27  O   UNL     1       0.805   9.521  23.549  0.00  0.00    +0.000 OA
ATOM     28  C   UNL     1       1.573   9.365  22.437  0.00  0.00    +0.000 A 
ENDBRANCH  23  24
ENDBRANCH  15  19
BRANCH   1  29
ATOM     29  C   UNL     1      -2.039  16.284  23.126  0.00  0.00    +0.000 C 
ATOM     30  O   UNL     1      -2.141  17.475  22.862  0.00  0.00    +0.000 OA
BRANCH  29  32
ATOM     31  C   UNL     1      -3.363  16.442  25.048  0.00  0.00    +0.000 C 
ATOM     32  O   UNL     1      -2.816  15.618  24.018  0.00  0.00    +0.000 OA
ENDBRANCH  29  32
ENDBRANCH   1  29
BRANCH   3  33
ATOM     33  O   UNL     1       2.776  15.870  21.947  0.00  0.00    +0.000 OA
BRANCH  33  34
ATOM     34  C   UNL     1       3.755  15.474  22.800  0.00  0.00    +0.000 C 
ATOM     35  C   UNL     1       4.241  16.607  23.651  0.00  0.00    +0.000 C 
ATOM     36  O   UNL     1       4.184  14.327  22.888  0.00  0.00    +0.000 OA
ENDBRANCH  33  34
ENDBRANCH   3  33
TORSDOF 6
ENDMDL
MODEL 4
REMARK VINA RESULT:      -6.4      2.284      5.781
REMARK  Name = 
REMARK  10 active torsions:
REMARK  status: ('A' for Active; 'I' for Inactive)
REMARK    1  A    between atoms: C_1  and  O_2
REMARK    2  A    between atoms: O_2  and  C_3
REMARK    3  A    between atoms: C_3  and  C_5
REMARK    4  A    between atoms: C_7  and  O_8
REMARK    5  A    between atoms: O_8  and  C_9
REMARK    6  A    between atoms: C_9  and  C_10
REMARK    7  A    between atoms: C_15  and  C_16
REMARK    8  A    between atoms: C_23  and  C_24
REMARK    9  A    between atoms: C_28  and  C_29
REMARK   10  A    between atoms: C_35  and  C_36
REMARK                            x       y       z     vdW  Elec       q    Type
REMARK                         _______ _______ _______ _____ _____    ______ ____
ROOT
ATOM      1  C   UNL     1      -4.072  13.000  22.271  0.00  0.00    +0.000 C 
ATOM      2  C   UNL     1      -3.123  13.705  23.266  0.00  0.00    +0.000 C 
ATOM      3  C   UNL     1      -1.704  13.137  23.235  0.00  0.00    +0.000 C 
ATOM      4  C   UNL     1      -1.206  13.141  21.783  0.00  0.00    +0.000 C 
ATOM      5  O   UNL     1      -0.150  13.666  21.445  0.00  0.00    +0.000 OA
ATOM      6  C   UNL     1      -2.116  12.378  20.806  0.00  0.00    +0.000 C 
ATOM      7  C   UNL     1      -3.538  13.039  20.786  0.00  0.00    +0.000 C 
ATOM      8  C   UNL     1      -3.534  14.499  20.280  0.00  0.00    +0.000 C 
ATOM      9  C   UNL     1      -4.467  12.199  19.864  0.00  0.00    +0.000 C 
ATOM     10  C   UNL     1      -3.861  11.857  18.499  0.00  0.00    +0.000 C 
ATOM     11  C   UNL     1      -2.532  11.121  18.669  0.00  0.00    +0.000 C 
ATOM     12  C   UNL     1      -1.988  10.575  17.364  0.00  0.00    +0.000 C 
ATOM     13  O   UNL     1      -2.611  10.592  16.310  0.00  0.00    +0.000 OA
ATOM     14  O   UNL     1      -0.813   9.912  17.479  0.00  0.00    +0.000 OA
ATOM     15  C   UNL     1       0.222  10.359  18.387  0.00  0.00    +0.000 C 
ATOM     16  C   UNL     1      -0.323  10.976  19.684  0.00  0.00    +0.000 C 
ATOM     17  C   UNL     1      -1.487  11.962  19.430  0.00  0.00    +0.000 C 
ATOM     18  C   UNL     1      -0.982  13.151  18.577  0.00  0.00    +0.000 C 
ENDROOT
BRANCH  15  19
ATOM     19  C   UNL     1       1.161   9.230  18.691  0.00  0.00    +0.000 A 
ATOM     20  C   UNL     1       2.022   8.593  17.742  0.00  0.00    +0.000 A 
ATOM     21  C   UNL     1       2.728   7.641  18.428  0.00  0.00    +0.000 A 
ATOM     22  O   UNL     1       2.352   7.626  19.729  0.00  0.00    +0.000 OA
ATOM     23  C   UNL     1       1.383   8.582  19.903  0.00  0.00    +0.000 A 
BRANCH  23  24
ATOM     24  C   UNL     1       0.718   8.812  21.217  0.00  0.00    +0.000 A 
ATOM     25  C   UNL     1       1.125   9.561  22.347  0.00  0.00    +0.000 A 
ATOM     26  C   UNL     1       0.109   9.458  23.269  0.00  0.00    +0.000 A 
ATOM     27  O   UNL     1      -0.891   8.680  22.787  0.00  0.00    +0.000 OA
ATOM     28  C   UNL     1      -0.517   8.291  21.538  0.00  0.00    +0.000 A 
ENDBRANCH  23  24
ENDBRANCH  15  19
BRANCH   1  29
ATOM     29  C   UNL     1      -5.511  13.489  22.408  0.00  0.00    +0.000 C 
ATOM     30  O   UNL     1      -5.814  14.675  22.417  0.00  0.00    +0.000 OA
BRANCH  29  32
ATOM     31  C   UNL     1      -7.267  12.622  23.688  0.00  0.00    +0.000 C 
ATOM     32  O   UNL     1      -6.385  12.464  22.575  0.00  0.00    +0.000 OA
ENDBRANCH  29  32
ENDBRANCH   1  29
BRANCH   3  33
ATOM     33  O   UNL     1      -0.844  13.913  24.079  0.00  0.00    +0.000 OA
BRANCH  33  34
ATOM     34  C   UNL     1      -1.245  15.191  24.298  0.00  0.00    +0.000 C 
ATOM     35  C   UNL     1      -1.684  15.399  25.715  0.00  0.00    +0.000 C 
ATOM     36  O   UNL     1      -1.235  16.081  23.453  0.00  0.00    +0.000 OA
ENDBRANCH  33  34
ENDBRANCH   3  33
TORSDOF 6
ENDMDL
MODEL 5
REMARK VINA RESULT:      -6.3      3.674      7.216
REMARK  Name = 
REMARK  10 active torsions:
REMARK  status: ('A' for Active; 'I' for Inactive)
REMARK    1  A    between atoms: C_1  and  O_2
REMARK    2  A    between atoms: O_2  and  C_3
REMARK    3  A    between atoms: C_3  and  C_5
REMARK    4  A    between atoms: C_7  and  O_8
REMARK    5  A    between atoms: O_8  and  C_9
REMARK    6  A    between atoms: C_9  and  C_10
REMARK    7  A    between atoms: C_15  and  C_16
REMARK    8  A    between atoms: C_23  and  C_24
REMARK    9  A    between atoms: C_28  and  C_29
REMARK   10  A    between atoms: C_35  and  C_36
REMARK                            x       y       z     vdW  Elec       q    Type
REMARK                         _______ _______ _______ _____ _____    ______ ____
ROOT
ATOM      1  C   UNL     1       0.366  15.811  22.521  0.00  0.00    +0.000 C 
ATOM      2  C   UNL     1       1.810  16.315  22.306  0.00  0.00    +0.000 C 
ATOM      3  C   UNL     1       2.733  15.240  21.729  0.00  0.00    +0.000 C 
ATOM      4  C   UNL     1       2.078  14.657  20.470  0.00  0.00    +0.000 C 
ATOM      5  O   UNL     1       2.652  14.604  19.386  0.00  0.00    +0.000 OA
ATOM      6  C   UNL     1       0.666  14.092  20.701  0.00  0.00    +0.000 C 
ATOM      7  C   UNL     1      -0.283  15.235  21.202  0.00  0.00    +0.000 C 
ATOM      8  C   UNL     1      -0.466  16.379  20.179  0.00  0.00    +0.000 C 
ATOM      9  C   UNL     1      -1.678  14.625  21.517  0.00  0.00    +0.000 C 
ATOM     10  C   UNL     1      -2.235  13.718  20.416  0.00  0.00    +0.000 C 
ATOM     11  C   UNL     1      -1.256  12.586  20.104  0.00  0.00    +0.000 C 
ATOM     12  C   UNL     1      -1.838  11.541  19.172  0.00  0.00    +0.000 C 
ATOM     13  O   UNL     1      -3.011  11.524  18.822  0.00  0.00    +0.000 OA
ATOM     14  O   UNL     1      -0.999  10.520  18.879  0.00  0.00    +0.000 OA
ATOM     15  C   UNL     1       0.418  10.740  18.676  0.00  0.00    +0.000 C 
ATOM     16  C   UNL     1       1.002  11.845  19.569  0.00  0.00    +0.000 C 
ATOM     17  C   UNL     1       0.110  13.108  19.612  0.00  0.00    +0.000 C 
ATOM     18  C   UNL     1       0.010  13.720  18.195  0.00  0.00    +0.000 C 
ENDROOT
BRANCH  15  19
ATOM     19  C   UNL     1       1.169   9.455  18.864  0.00  0.00    +0.000 A 
ATOM     20  C   UNL     1       1.838   8.730  17.828  0.00  0.00    +0.000 A 
ATOM     21  C   UNL     1       2.417   7.640  18.420  0.00  0.00    +0.000 A 
ATOM     22  O   UNL     1       2.139   7.625  19.745  0.00  0.00    +0.000 OA
ATOM     23  C   UNL     1       1.362   8.720  20.030  0.00  0.00    +0.000 A 
BRANCH  23  24
ATOM     24  C   UNL     1       0.843   8.994  21.400  0.00  0.00    +0.000 A 
ATOM     25  C   UNL     1      -0.471   8.939  21.926  0.00  0.00    +0.000 A 
ATOM     26  C   UNL     1      -0.370   9.255  23.261  0.00  0.00    +0.000 A 
ATOM     27  O   UNL     1       0.919   9.518  23.589  0.00  0.00    +0.000 OA
ATOM     28  C   UNL     1       1.653   9.356  22.454  0.00  0.00    +0.000 A 
ENDBRANCH  23  24
ENDBRANCH  15  19
BRANCH   1  29
ATOM     29  C   UNL     1      -0.505  16.853  23.217  0.00  0.00    +0.000 C 
ATOM     30  O   UNL     1      -0.551  18.025  22.868  0.00  0.00    +0.000 OA
BRANCH  29  32
ATOM     31  C   UNL     1      -0.736  16.858  25.545  0.00  0.00    +0.000 C 
ATOM     32  O   UNL     1      -1.163  16.336  24.287  0.00  0.00    +0.000 OA
ENDBRANCH  29  32
ENDBRANCH   1  29
BRANCH   3  33
ATOM     33  O   UNL     1       4.017  15.801  21.432  0.00  0.00    +0.000 OA
BRANCH  33  34
ATOM     34  C   UNL     1       5.081  15.020  21.752  0.00  0.00    +0.000 C 
ATOM     35  C   UNL     1       4.986  14.503  23.155  0.00  0.00    +0.000 C 
ATOM     36  O   UNL     1       6.002  14.747  20.988  0.00  0.00    +0.000 OA
ENDBRANCH  33  34
ENDBRANCH   3  33
TORSDOF 6
ENDMDL
MODEL 6
REMARK VINA RESULT:      -6.3      1.883      7.235
REMARK  Name = 
REMARK  10 active torsions:
REMARK  status: ('A' for Active; 'I' for Inactive)
REMARK    1  A    between atoms: C_1  and  O_2
REMARK    2  A    between atoms: O_2  and  C_3
REMARK    3  A    between atoms: C_3  and  C_5
REMARK    4  A    between atoms: C_7  and  O_8
REMARK    5  A    between atoms: O_8  and  C_9
REMARK    6  A    between atoms: C_9  and  C_10
REMARK    7  A    between atoms: C_15  and  C_16
REMARK    8  A    between atoms: C_23  and  C_24
REMARK    9  A    between atoms: C_28  and  C_29
REMARK   10  A    between atoms: C_35  and  C_36
REMARK                            x       y       z     vdW  Elec       q    Type
REMARK                         _______ _______ _______ _____ _____    ______ ____
ROOT
ATOM      1  C   UNL     1      -0.636  10.044  20.874  0.00  0.00    +0.000 C 
ATOM      2  C   UNL     1      -0.513   9.829  19.349  0.00  0.00    +0.000 C 
ATOM      3  C   UNL     1      -1.586  10.579  18.557  0.00  0.00    +0.000 C 
ATOM      4  C   UNL     1      -1.570  12.052  18.986  0.00  0.00    +0.000 C 
ATOM      5  O   UNL     1      -1.462  12.976  18.185  0.00  0.00    +0.000 OA
ATOM      6  C   UNL     1      -1.762  12.268  20.496  0.00  0.00    +0.000 C 
ATOM      7  C   UNL     1      -0.598  11.569  21.280  0.00  0.00    +0.000 C 
ATOM      8  C   UNL     1       0.798  12.150  20.961  0.00  0.00    +0.000 C 
ATOM      9  C   UNL     1      -0.860  11.720  22.806  0.00  0.00    +0.000 C 
ATOM     10  C   UNL     1      -1.214  13.143  23.248  0.00  0.00    +0.000 C 
ATOM     11  C   UNL     1      -2.431  13.659  22.480  0.00  0.00    +0.000 C 
ATOM     12  C   UNL     1      -2.954  14.977  23.017  0.00  0.00    +0.000 C 
ATOM     13  O   UNL     1      -2.541  15.501  24.044  0.00  0.00    +0.000 OA
ATOM     14  O   UNL     1      -4.036  15.460  22.364  0.00  0.00    +0.000 OA
ATOM     15  C   UNL     1      -4.170  15.336  20.927  0.00  0.00    +0.000 C 
ATOM     16  C   UNL     1      -3.581  14.033  20.366  0.00  0.00    +0.000 C 
ATOM     17  C   UNL     1      -2.190  13.706  20.957  0.00  0.00    +0.000 C 
ATOM     18  C   UNL     1      -1.189  14.820  20.572  0.00  0.00    +0.000 C 
ENDROOT
BRANCH  15  19
ATOM     19  C   UNL     1      -5.610  15.480  20.531  0.00  0.00    +0.000 A 
ATOM     20  C   UNL     1      -6.105  16.373  19.529  0.00  0.00    +0.000 A 
ATOM     21  C   UNL     1      -7.458  16.174  19.458  0.00  0.00    +0.000 A 
ATOM     22  O   UNL     1      -7.841  15.238  20.358  0.00  0.00    +0.000 OA
ATOM     23  C   UNL     1      -6.724  14.814  21.034  0.00  0.00    +0.000 A 
BRANCH  23  24
ATOM     24  C   UNL     1      -6.790  13.804  22.128  0.00  0.00    +0.000 A 
ATOM     25  C   UNL     1      -6.900  13.958  23.531  0.00  0.00    +0.000 A 
ATOM     26  C   UNL     1      -6.954  12.689  24.059  0.00  0.00    +0.000 A 
ATOM     27  O   UNL     1      -6.867  11.762  23.073  0.00  0.00    +0.000 OA
ATOM     28  C   UNL     1      -6.768  12.446  21.901  0.00  0.00    +0.000 A 
ENDBRANCH  23  24
ENDBRANCH  15  19
BRANCH   1  29
ATOM     29  C   UNL     1       0.357   9.187  21.653  0.00  0.00    +0.000 C 
ATOM     30  O   UNL     1       0.247   8.961  22.852  0.00  0.00    +0.000 OA
BRANCH  29  32
ATOM     31  C   UNL     1       1.638   7.361  20.946  0.00  0.00    +0.000 C 
ATOM     32  O   UNL     1       1.389   8.765  20.877  0.00  0.00    +0.000 OA
ENDBRANCH  29  32
ENDBRANCH   1  29
BRANCH   3  33
ATOM     33  O   UNL     1      -1.343  10.446  17.151  0.00  0.00    +0.000 OA
BRANCH  33  34
ATOM     34  C   UNL     1      -2.442  10.208  16.391  0.00  0.00    +0.000 C 
ATOM     35  C   UNL     1      -3.575   9.668  17.209  0.00  0.00    +0.000 C 
ATOM     36  O   UNL     1      -2.518  10.424  15.185  0.00  0.00    +0.000 OA
ENDBRANCH  33  34
ENDBRANCH   3  33
TORSDOF 6
ENDMDL
MODEL 7
REMARK VINA RESULT:      -6.2      3.310      5.270
REMARK  Name = 
REMARK  10 active torsions:
REMARK  status: ('A' for Active; 'I' for Inactive)
REMARK    1  A    between atoms: C_1  and  O_2
REMARK    2  A    between atoms: O_2  and  C_3
REMARK    3  A    between atoms: C_3  and  C_5
REMARK    4  A    between atoms: C_7  and  O_8
REMARK    5  A    between atoms: O_8  and  C_9
REMARK    6  A    between atoms: C_9  and  C_10
REMARK    7  A    between atoms: C_15  and  C_16
REMARK    8  A    between atoms: C_23  and  C_24
REMARK    9  A    between atoms: C_28  and  C_29
REMARK   10  A    between atoms: C_35  and  C_36
REMARK                            x       y       z     vdW  Elec       q    Type
REMARK                         _______ _______ _______ _____ _____    ______ ____
ROOT
ATOM      1  C   UNL     1      -4.719  13.499  22.063  0.00  0.00    +0.000 C 
ATOM      2  C   UNL     1      -5.056  12.517  20.919  0.00  0.00    +0.000 C 
ATOM      3  C   UNL     1      -4.269  12.807  19.640  0.00  0.00    +0.000 C 
ATOM      4  C   UNL     1      -2.776  12.875  19.989  0.00  0.00    +0.000 C 
ATOM      5  O   UNL     1      -1.927  12.202  19.411  0.00  0.00    +0.000 OA
ATOM      6  C   UNL     1      -2.433  13.903  21.079  0.00  0.00    +0.000 C 
ATOM      7  C   UNL     1      -3.179  13.531  22.407  0.00  0.00    +0.000 C 
ATOM      8  C   UNL     1      -2.755  12.164  22.991  0.00  0.00    +0.000 C 
ATOM      9  C   UNL     1      -2.892  14.631  23.468  0.00  0.00    +0.000 C 
ATOM     10  C   UNL     1      -1.414  15.007  23.606  0.00  0.00    +0.000 C 
ATOM     11  C   UNL     1      -0.845  15.454  22.259  0.00  0.00    +0.000 C 
ATOM     12  C   UNL     1       0.552  16.034  22.371  0.00  0.00    +0.000 C 
ATOM     13  O   UNL     1       1.109  16.256  23.438  0.00  0.00    +0.000 OA
ATOM     14  O   UNL     1       1.085  16.445  21.197  0.00  0.00    +0.000 OA
ATOM     15  C   UNL     1       0.869  15.708  19.969  0.00  0.00    +0.000 C 
ATOM     16  C   UNL     1      -0.521  15.060  19.877  0.00  0.00    +0.000 C 
ATOM     17  C   UNL     1      -0.932  14.348  21.187  0.00  0.00    +0.000 C 
ATOM     18  C   UNL     1       0.053  13.192  21.479  0.00  0.00    +0.000 C 
ENDROOT
BRANCH  15  19
ATOM     19  C   UNL     1       1.118  16.598  18.787  0.00  0.00    +0.000 A 
ATOM     20  C   UNL     1       0.131  17.406  18.139  0.00  0.00    +0.000 A 
ATOM     21  C   UNL     1       0.772  18.079  17.133  0.00  0.00    +0.000 A 
ATOM     22  O   UNL     1       2.080  17.731  17.096  0.00  0.00    +0.000 OA
ATOM     23  C   UNL     1       2.305  16.813  18.092  0.00  0.00    +0.000 A 
BRANCH  23  24
ATOM     24  C   UNL     1       3.640  16.189  18.314  0.00  0.00    +0.000 A 
ATOM     25  C   UNL     1       4.251  15.061  17.715  0.00  0.00    +0.000 A 
ATOM     26  C   UNL     1       5.505  14.956  18.272  0.00  0.00    +0.000 A 
ATOM     27  O   UNL     1       5.700  15.936  19.187  0.00  0.00    +0.000 OA
ATOM     28  C   UNL     1       4.564  16.684  19.208  0.00  0.00    +0.000 A 
ENDBRANCH  23  24
ENDBRANCH  15  19
BRANCH   1  29
ATOM     29  C   UNL     1      -5.606  13.278  23.285  0.00  0.00    +0.000 C 
ATOM     30  O   UNL     1      -5.703  14.091  24.195  0.00  0.00    +0.000 OA
BRANCH  29  32
ATOM     31  C   UNL     1      -7.625  12.110  23.474  0.00  0.00    +0.000 C 
ATOM     32  O   UNL     1      -6.213  12.063  23.264  0.00  0.00    +0.000 OA
ENDBRANCH  29  32
ENDBRANCH   1  29
BRANCH   3  33
ATOM     33  O   UNL     1      -4.526  11.790  18.663  0.00  0.00    +0.000 OA
BRANCH  33  34
ATOM     34  C   UNL     1      -5.799  11.743  18.194  0.00  0.00    +0.000 C 
ATOM     35  C   UNL     1      -6.157  12.986  17.437  0.00  0.00    +0.000 C 
ATOM     36  O   UNL     1      -6.565  10.797  18.347  0.00  0.00    +0.000 OA
ENDBRANCH  33  34
ENDBRANCH   3  33
TORSDOF 6
ENDMDL
MODEL 8
REMARK VINA RESULT:      -6.2      3.786      7.294
REMARK  Name = 
REMARK  10 active torsions:
REMARK  status: ('A' for Active; 'I' for Inactive)
REMARK    1  A    between atoms: C_1  and  O_2
REMARK    2  A    between atoms: O_2  and  C_3
REMARK    3  A    between atoms: C_3  and  C_5
REMARK    4  A    between atoms: C_7  and  O_8
REMARK    5  A    between atoms: O_8  and  C_9
REMARK    6  A    between atoms: C_9  and  C_10
REMARK    7  A    between atoms: C_15  and  C_16
REMARK    8  A    between atoms: C_23  and  C_24
REMARK    9  A    between atoms: C_28  and  C_29
REMARK   10  A    between atoms: C_35  and  C_36
REMARK                            x       y       z     vdW  Elec       q    Type
REMARK                         _______ _______ _______ _____ _____    ______ ____
ROOT
ATOM      1  C   UNL     1       0.374  15.519  22.539  0.00  0.00    +0.000 C 
ATOM      2  C   UNL     1       1.850  15.973  22.513  0.00  0.00    +0.000 C 
ATOM      3  C   UNL     1       2.797  14.883  22.011  0.00  0.00    +0.000 C 
ATOM      4  C   UNL     1       2.277  14.366  20.663  0.00  0.00    +0.000 C 
ATOM      5  O   UNL     1       2.974  14.325  19.653  0.00  0.00    +0.000 OA
ATOM      6  C   UNL     1       0.829  13.848  20.706  0.00  0.00    +0.000 C 
ATOM      7  C   UNL     1      -0.133  15.010  21.133  0.00  0.00    +0.000 C 
ATOM      8  C   UNL     1      -0.154  16.192  20.137  0.00  0.00    +0.000 C 
ATOM      9  C   UNL     1      -1.576  14.444  21.259  0.00  0.00    +0.000 C 
ATOM     10  C   UNL     1      -2.028  13.595  20.068  0.00  0.00    +0.000 C 
ATOM     11  C   UNL     1      -1.059  12.437  19.833  0.00  0.00    +0.000 C 
ATOM     12  C   UNL     1      -1.561  11.444  18.802  0.00  0.00    +0.000 C 
ATOM     13  O   UNL     1      -2.684  11.484  18.316  0.00  0.00    +0.000 OA
ATOM     14  O   UNL     1      -0.729  10.402  18.573  0.00  0.00    +0.000 OA
ATOM     15  C   UNL     1       0.708  10.574  18.547  0.00  0.00    +0.000 C 
ATOM     16  C   UNL     1       1.220  11.627  19.541  0.00  0.00    +0.000 C 
ATOM     17  C   UNL     1       0.373  12.921  19.525  0.00  0.00    +0.000 C 
ATOM     18  C   UNL     1       0.463  13.581  18.129  0.00  0.00    +0.000 C 
ENDROOT
BRANCH  15  19
ATOM     19  C   UNL     1       1.387   9.256  18.776  0.00  0.00    +0.000 A 
ATOM     20  C   UNL     1       2.106   8.514  17.785  0.00  0.00    +0.000 A 
ATOM     21  C   UNL     1       2.590   7.394  18.406  0.00  0.00    +0.000 A 
ATOM     22  O   UNL     1       2.206   7.376  19.705  0.00  0.00    +0.000 OA
ATOM     23  C   UNL     1       1.456   8.501  19.943  0.00  0.00    +0.000 A 
BRANCH  23  24
ATOM     24  C   UNL     1       0.840   8.781  21.271  0.00  0.00    +0.000 A 
ATOM     25  C   UNL     1       1.399   9.292  22.466  0.00  0.00    +0.000 A 
ATOM     26  C   UNL     1       0.367   9.381  23.372  0.00  0.00    +0.000 A 
ATOM     27  O   UNL     1      -0.789   8.941  22.817  0.00  0.00    +0.000 OA
ATOM     28  C   UNL     1      -0.497   8.579  21.539  0.00  0.00    +0.000 A 
ENDBRANCH  23  24
ENDBRANCH  15  19
BRANCH   1  29
ATOM     29  C   UNL     1      -0.538  16.570  23.164  0.00  0.00    +0.000 C 
ATOM     30  O   UNL     1      -0.306  17.771  23.110  0.00  0.00    +0.000 OA
BRANCH  29  32
ATOM     31  C   UNL     1      -1.207  15.076  24.836  0.00  0.00    +0.000 C 
ATOM     32  O   UNL     1      -1.584  16.012  23.826  0.00  0.00    +0.000 OA
ENDBRANCH  29  32
ENDBRANCH   1  29
BRANCH   3  33
ATOM     33  O   UNL     1       4.126  15.404  21.887  0.00  0.00    +0.000 OA
BRANCH  33  34
ATOM     34  C   UNL     1       5.010  14.970  22.822  0.00  0.00    +0.000 C 
ATOM     35  C   UNL     1       6.383  15.517  22.583  0.00  0.00    +0.000 C 
ATOM     36  O   UNL     1       4.726  14.236  23.765  0.00  0.00    +0.000 OA
ENDBRANCH  33  34
ENDBRANCH   3  33
TORSDOF 6
ENDMDL
MODEL 9
REMARK VINA RESULT:      -6.2      3.508      6.895
REMARK  Name = 
REMARK  10 active torsions:
REMARK  status: ('A' for Active; 'I' for Inactive)
REMARK    1  A    between atoms: C_1  and  O_2
REMARK    2  A    between atoms: O_2  and  C_3
REMARK    3  A    between atoms: C_3  and  C_5
REMARK    4  A    between atoms: C_7  and  O_8
REMARK    5  A    between atoms: O_8  and  C_9
REMARK    6  A    between atoms: C_9  and  C_10
REMARK    7  A    between atoms: C_15  and  C_16
REMARK    8  A    between atoms: C_23  and  C_24
REMARK    9  A    between atoms: C_28  and  C_29
REMARK   10  A    between atoms: C_35  and  C_36
REMARK                            x       y       z     vdW  Elec       q    Type
REMARK                         _______ _______ _______ _____ _____    ______ ____
ROOT
ATOM      1  C   UNL     1      -0.354  15.434  22.530  0.00  0.00    +0.000 C 
ATOM      2  C   UNL     1       1.067  16.038  22.489  0.00  0.00    +0.000 C 
ATOM      3  C   UNL     1       2.115  15.051  21.973  0.00  0.00    +0.000 C 
ATOM      4  C   UNL     1       1.634  14.484  20.630  0.00  0.00    +0.000 C 
ATOM      5  O   UNL     1       2.320  14.516  19.613  0.00  0.00    +0.000 OA
ATOM      6  C   UNL     1       0.248  13.821  20.689  0.00  0.00    +0.000 C 
ATOM      7  C   UNL     1      -0.823  14.878  21.130  0.00  0.00    +0.000 C 
ATOM      8  C   UNL     1      -0.977  16.052  20.137  0.00  0.00    +0.000 C 
ATOM      9  C   UNL     1      -2.199  14.167  21.272  0.00  0.00    +0.000 C 
ATOM     10  C   UNL     1      -2.576  13.277  20.084  0.00  0.00    +0.000 C 
ATOM     11  C   UNL     1      -1.496  12.225  19.835  0.00  0.00    +0.000 C 
ATOM     12  C   UNL     1      -1.906  11.187  18.808  0.00  0.00    +0.000 C 
ATOM     13  O   UNL     1      -3.033  11.112  18.335  0.00  0.00    +0.000 OA
ATOM     14  O   UNL     1      -0.974  10.236  18.567  0.00  0.00    +0.000 OA
ATOM     15  C   UNL     1       0.438  10.554  18.524  0.00  0.00    +0.000 C 
ATOM     16  C   UNL     1       0.851  11.653  19.515  0.00  0.00    +0.000 C 
ATOM     17  C   UNL     1      -0.124  12.853  19.511  0.00  0.00    +0.000 C 
ATOM     18  C   UNL     1      -0.119  13.521  18.115  0.00  0.00    +0.000 C 
ENDROOT
BRANCH  15  19
ATOM     19  C   UNL     1       1.251   9.312  18.742  0.00  0.00    +0.000 A 
ATOM     20  C   UNL     1       2.007   8.633  17.735  0.00  0.00    +0.000 A 
ATOM     21  C   UNL     1       2.619   7.574  18.350  0.00  0.00    +0.000 A 
ATOM     22  O   UNL     1       2.281   7.534  19.661  0.00  0.00    +0.000 OA
ATOM     23  C   UNL     1       1.432   8.582  19.913  0.00  0.00    +0.000 A 
BRANCH  23  24
ATOM     24  C   UNL     1       0.835   8.817  21.259  0.00  0.00    +0.000 A 
ATOM     25  C   UNL     1       1.400   9.331  22.451  0.00  0.00    +0.000 A 
ATOM     26  C   UNL     1       0.386   9.365  23.380  0.00  0.00    +0.000 A 
ATOM     27  O   UNL     1      -0.765   8.889  22.842  0.00  0.00    +0.000 OA
ATOM     28  C   UNL     1      -0.487   8.559  21.552  0.00  0.00    +0.000 A 
ENDBRANCH  23  24
ENDBRANCH  15  19
BRANCH   1  29
ATOM     29  C   UNL     1      -1.362  16.387  23.169  0.00  0.00    +0.000 C 
ATOM     30  O   UNL     1      -2.437  16.015  23.622  0.00  0.00    +0.000 OA
BRANCH  29  32
ATOM     31  C   UNL     1      -2.006  18.630  23.001  0.00  0.00    +0.000 C 
ATOM     32  O   UNL     1      -0.947  17.679  23.118  0.00  0.00    +0.000 OA
ENDBRANCH  29  32
ENDBRANCH   1  29
BRANCH   3  33
ATOM     33  O   UNL     1       3.382  15.705  21.835  0.00  0.00    +0.000 OA
BRANCH  33  34
ATOM     34  C   UNL     1       4.366  15.244  22.650  0.00  0.00    +0.000 C 
ATOM     35  C   UNL     1       5.393  16.299  22.929  0.00  0.00    +0.000 C 
ATOM     36  O   UNL     1       4.409  14.112  23.122  0.00  0.00    +0.000 OA
ENDBRANCH  33  34
ENDBRANCH   3  33
TORSDOF 6
ENDMDL
