MODEL 1
REMARK VINA RESULT:      -6.5      0.000      0.000
REMARK  Name = 
REMARK  11 active torsions:
REMARK  status: ('A' for Active; 'I' for Inactive)
REMARK    1  A    between atoms: C_1  and  C_2
REMARK    2  A    between atoms: C_2  and  C_3
REMARK    3  A    between atoms: C_3  and  C_4
REMARK    4  A    between atoms: C_4  and  C_5
REMARK    5  A    between atoms: C_5  and  C_6
REMARK    6  A    between atoms: C_6  and  O_7
REMARK    7  A    between atoms: O_7  and  C_8
REMARK    8  A    between atoms: N_17  and  C_18
REMARK    9  A    between atoms: C_18  and  C_19
REMARK   10  A    between atoms: C_24  and  O_25
REMARK   11  A    between atoms: O_25  and  C_26
REMARK                            x       y       z     vdW  Elec       q    Type
REMARK                         _______ _______ _______ _____ _____    ______ ____
ROOT
ATOM      1  C   UNL     1       2.901   7.023  18.640  0.00  0.00    +0.000 A 
ATOM      2  C   UNL     1       1.948   7.107  19.674  0.00  0.00    +0.000 A 
ATOM      3  C   UNL     1       2.003   6.285  20.797  0.00  0.00    +0.000 A 
ATOM      4  C   UNL     1       2.956   5.289  20.859  0.00  0.00    +0.000 A 
ATOM      5  C   UNL     1       3.855   5.115  19.797  0.00  0.00    +0.000 A 
ATOM      6  C   UNL     1       3.941   6.059  18.723  0.00  0.00    +0.000 A 
ATOM      7  C   UNL     1       5.090   5.897  17.629  0.00  0.00    +0.000 C 
ATOM      8  C   UNL     1       4.362   5.447  16.323  0.00  0.00    +0.000 C 
ATOM      9  C   UNL     1       3.987   3.954  16.268  0.00  0.00    +0.000 C 
ATOM     10  N   UNL     1       4.136   3.240  17.515  0.00  0.00    +0.000 NA
ATOM     11  C   UNL     1       5.256   3.525  18.430  0.00  0.00    +0.000 C 
ATOM     12  C   UNL     1       4.640   3.814  19.814  0.00  0.00    +0.000 C 
ATOM     13  C   UNL     1       6.101   4.778  18.050  0.00  0.00    +0.000 C 
ATOM     14  C   UNL     1       6.914   5.316  19.284  0.00  0.00    +0.000 C 
ATOM     15  C   UNL     1       7.932   6.339  18.853  0.00  0.00    +0.000 C 
ATOM     16  C   UNL     1       7.295   7.407  18.011  0.00  0.00    +0.000 C 
ATOM     17  O   UNL     1       7.931   8.443  17.778  0.00  0.00    +0.000 OA
ATOM     18  C   UNL     1       5.901   7.214  17.379  0.00  0.00    +0.000 C 
ENDROOT
BRANCH  13  19
ATOM     19  O   UNL     1       7.194   4.513  17.150  0.00  0.00    +0.000 OA
ATOM     20  C   UNL     1       7.078   4.351  15.762  0.00  0.00    +0.000 C 
ENDBRANCH  13  19
BRANCH   1  21
ATOM     21  O   UNL     1       2.808   7.783  17.492  0.00  0.00    +0.000 OA
BRANCH  21  22
ATOM     22  C   UNL     1       1.787   8.791  17.459  0.00  0.00    +0.000 C 
BRANCH  22  23
ATOM     23  C   UNL     1       2.331  10.162  17.875  0.00  0.00    +0.000 C 
BRANCH  23  24
ATOM     24  C   UNL     1       1.279  10.895  18.715  0.00  0.00    +0.000 C 
BRANCH  24  25
ATOM     25  C   UNL     1      -0.038  10.132  18.856  0.00  0.00    +0.000 C 
BRANCH  25  27
ATOM     26  C   UNL     1       0.671  10.143  21.291  0.00  0.00    +0.000 C 
ATOM     27  C   UNL     1      -0.497  10.122  20.317  0.00  0.00    +0.000 C 
ENDBRANCH  25  27
ENDBRANCH  24  25
ENDBRANCH  23  24
ENDBRANCH  22  23
ENDBRANCH  21  22
ENDBRANCH   1  21
BRANCH  10  28
ATOM     28  C   UNL     1       3.445   1.978  17.643  0.00  0.00    +0.000 C 
BRANCH  28  29
ATOM     29  C   UNL     1       1.960   2.148  17.737  0.00  0.00    +0.000 C 
ATOM     30  C   UNL     1       1.309   2.289  19.080  0.00  0.00    +0.000 C 
ATOM     31  C   UNL     1       1.378   3.462  18.158  0.00  0.00    +0.000 C 
ENDBRANCH  28  29
ENDBRANCH  10  28
TORSDOF 9
ENDMDL
MODEL 2
REMARK VINA RESULT:      -6.5      4.162      9.411
REMARK  Name = 
REMARK  11 active torsions:
REMARK  status: ('A' for Active; 'I' for Inactive)
REMARK    1  A    between atoms: C_1  and  C_2
REMARK    2  A    between atoms: C_2  and  C_3
REMARK    3  A    between atoms: C_3  and  C_4
REMARK    4  A    between atoms: C_4  and  C_5
REMARK    5  A    between atoms: C_5  and  C_6
REMARK    6  A    between atoms: C_6  and  O_7
REMARK    7  A    between atoms: O_7  and  C_8
REMARK    8  A    between atoms: N_17  and  C_18
REMARK    9  A    between atoms: C_18  and  C_19
REMARK   10  A    between atoms: C_24  and  O_25
REMARK   11  A    between atoms: O_25  and  C_26
REMARK                            x       y       z     vdW  Elec       q    Type
REMARK                         _______ _______ _______ _____ _____    ______ ____
ROOT
ATOM      1  C   UNL     1      -0.269  10.328  18.457  0.00  0.00    +0.000 A 
ATOM      2  C   UNL     1      -1.221   9.734  17.604  0.00  0.00    +0.000 A 
ATOM      3  C   UNL     1      -2.434  10.350  17.309  0.00  0.00    +0.000 A 
ATOM      4  C   UNL     1      -2.765  11.530  17.944  0.00  0.00    +0.000 A 
ATOM      5  C   UNL     1      -1.881  12.093  18.876  0.00  0.00    +0.000 A 
ATOM      6  C   UNL     1      -0.555  11.583  19.057  0.00  0.00    +0.000 A 
ATOM      7  C   UNL     1       0.459  12.362  20.011  0.00  0.00    +0.000 C 
ATOM      8  C   UNL     1       0.628  11.453  21.270  0.00  0.00    +0.000 C 
ATOM      9  C   UNL     1      -0.522  11.535  22.291  0.00  0.00    +0.000 C 
ATOM     10  N   UNL     1      -1.696  12.242  21.833  0.00  0.00    +0.000 NA
ATOM     11  C   UNL     1      -1.584  13.443  20.986  0.00  0.00    +0.000 C 
ATOM     12  C   UNL     1      -2.464  13.196  19.743  0.00  0.00    +0.000 C 
ATOM     13  C   UNL     1      -0.146  13.733  20.460  0.00  0.00    +0.000 C 
ATOM     14  C   UNL     1      -0.176  14.672  19.198  0.00  0.00    +0.000 C 
ATOM     15  C   UNL     1       1.205  15.174  18.867  0.00  0.00    +0.000 C 
ATOM     16  C   UNL     1       2.181  14.035  18.776  0.00  0.00    +0.000 C 
ATOM     17  O   UNL     1       3.295  14.242  18.279  0.00  0.00    +0.000 OA
ATOM     18  C   UNL     1       1.850  12.640  19.345  0.00  0.00    +0.000 C 
ENDROOT
BRANCH  13  19
ATOM     19  O   UNL     1       0.658  14.547  21.334  0.00  0.00    +0.000 OA
ATOM     20  C   UNL     1       0.188  15.227  22.468  0.00  0.00    +0.000 C 
ENDBRANCH  13  19
BRANCH   1  21
ATOM     21  O   UNL     1       0.901   9.687  18.811  0.00  0.00    +0.000 OA
BRANCH  21  22
ATOM     22  C   UNL     1       1.848   9.434  17.763  0.00  0.00    +0.000 C 
BRANCH  22  23
ATOM     23  C   UNL     1       2.508   8.060  17.917  0.00  0.00    +0.000 C 
BRANCH  23  24
ATOM     24  C   UNL     1       2.265   7.532  19.335  0.00  0.00    +0.000 C 
BRANCH  24  25
ATOM     25  C   UNL     1       2.348   6.010  19.450  0.00  0.00    +0.000 C 
BRANCH  25  27
ATOM     26  C   UNL     1       1.655   4.251  17.761  0.00  0.00    +0.000 C 
ATOM     27  C   UNL     1       2.617   5.384  18.078  0.00  0.00    +0.000 C 
ENDBRANCH  25  27
ENDBRANCH  24  25
ENDBRANCH  23  24
ENDBRANCH  22  23
ENDBRANCH  21  22
ENDBRANCH   1  21
BRANCH  10  28
ATOM     28  C   UNL     1      -2.927  12.021  22.557  0.00  0.00    +0.000 C 
BRANCH  28  29
ATOM     29  C   UNL     1      -3.134  13.025  23.648  0.00  0.00    +0.000 C 
ATOM     30  C   UNL     1      -4.419  13.794  23.720  0.00  0.00    +0.000 C 
ATOM     31  C   UNL     1      -4.115  12.752  24.746  0.00  0.00    +0.000 C 
ENDBRANCH  28  29
ENDBRANCH  10  28
TORSDOF 9
ENDMDL
MODEL 3
REMARK VINA RESULT:      -6.4      0.849      1.259
REMARK  Name = 
REMARK  11 active torsions:
REMARK  status: ('A' for Active; 'I' for Inactive)
REMARK    1  A    between atoms: C_1  and  C_2
REMARK    2  A    between atoms: C_2  and  C_3
REMARK    3  A    between atoms: C_3  and  C_4
REMARK    4  A    between atoms: C_4  and  C_5
REMARK    5  A    between atoms: C_5  and  C_6
REMARK    6  A    between atoms: C_6  and  O_7
REMARK    7  A    between atoms: O_7  and  C_8
REMARK    8  A    between atoms: N_17  and  C_18
REMARK    9  A    between atoms: C_18  and  C_19
REMARK   10  A    between atoms: C_24  and  O_25
REMARK   11  A    between atoms: O_25  and  C_26
REMARK                            x       y       z     vdW  Elec       q    Type
REMARK                         _______ _______ _______ _____ _____    ______ ____
ROOT
ATOM      1  C   UNL     1       2.798   6.866  18.763  0.00  0.00    +0.000 A 
ATOM      2  C   UNL     1       1.864   6.936  19.815  0.00  0.00    +0.000 A 
ATOM      3  C   UNL     1       1.941   6.099  20.926  0.00  0.00    +0.000 A 
ATOM      4  C   UNL     1       2.896   5.104  20.958  0.00  0.00    +0.000 A 
ATOM      5  C   UNL     1       3.775   4.945  19.878  0.00  0.00    +0.000 A 
ATOM      6  C   UNL     1       3.841   5.902  18.815  0.00  0.00    +0.000 A 
ATOM      7  C   UNL     1       4.970   5.756  17.698  0.00  0.00    +0.000 C 
ATOM      8  C   UNL     1       4.218   5.322  16.399  0.00  0.00    +0.000 C 
ATOM      9  C   UNL     1       3.844   3.829  16.332  0.00  0.00    +0.000 C 
ATOM     10  N   UNL     1       4.017   3.100  17.567  0.00  0.00    +0.000 NA
ATOM     11  C   UNL     1       5.153   3.374  18.465  0.00  0.00    +0.000 C 
ATOM     12  C   UNL     1       4.563   3.645  19.864  0.00  0.00    +0.000 C 
ATOM     13  C   UNL     1       5.989   4.633  18.086  0.00  0.00    +0.000 C 
ATOM     14  C   UNL     1       6.825   5.158  19.312  0.00  0.00    +0.000 C 
ATOM     15  C   UNL     1       7.833   6.188  18.875  0.00  0.00    +0.000 C 
ATOM     16  C   UNL     1       7.179   7.265  18.058  0.00  0.00    +0.000 C 
ATOM     17  O   UNL     1       7.810   8.305  17.827  0.00  0.00    +0.000 OA
ATOM     18  C   UNL     1       5.774   7.077  17.449  0.00  0.00    +0.000 C 
ENDROOT
BRANCH  13  19
ATOM     19  O   UNL     1       7.066   4.382  17.163  0.00  0.00    +0.000 OA
ATOM     20  C   UNL     1       6.936   4.305  15.769  0.00  0.00    +0.000 C 
ENDBRANCH  13  19
BRANCH   1  21
ATOM     21  O   UNL     1       2.683   7.640  17.626  0.00  0.00    +0.000 OA
BRANCH  21  22
ATOM     22  C   UNL     1       2.346   9.023  17.811  0.00  0.00    +0.000 C 
BRANCH  22  23
ATOM     23  C   UNL     1       0.855   9.279  17.569  0.00  0.00    +0.000 C 
BRANCH  23  24
ATOM     24  C   UNL     1       0.270  10.049  18.759  0.00  0.00    +0.000 C 
BRANCH  24  25
ATOM     25  C   UNL     1      -1.082  10.701  18.466  0.00  0.00    +0.000 C 
BRANCH  25  27
ATOM     26  C   UNL     1      -3.295  10.003  17.444  0.00  0.00    +0.000 C 
ATOM     27  C   UNL     1      -1.781   9.986  17.306  0.00  0.00    +0.000 C 
ENDBRANCH  25  27
ENDBRANCH  24  25
ENDBRANCH  23  24
ENDBRANCH  22  23
ENDBRANCH  21  22
ENDBRANCH   1  21
BRANCH  10  28
ATOM     28  C   UNL     1       3.330   1.835  17.692  0.00  0.00    +0.000 C 
BRANCH  28  29
ATOM     29  C   UNL     1       1.849   2.002  17.828  0.00  0.00    +0.000 C 
ATOM     30  C   UNL     1       1.242   2.209  19.183  0.00  0.00    +0.000 C 
ATOM     31  C   UNL     1       1.272   3.333  18.199  0.00  0.00    +0.000 C 
ENDBRANCH  28  29
ENDBRANCH  10  28
TORSDOF 9
ENDMDL
MODEL 4
REMARK VINA RESULT:      -6.2      6.948     10.388
REMARK  Name = 
REMARK  11 active torsions:
REMARK  status: ('A' for Active; 'I' for Inactive)
REMARK    1  A    between atoms: C_1  and  C_2
REMARK    2  A    between atoms: C_2  and  C_3
REMARK    3  A    between atoms: C_3  and  C_4
REMARK    4  A    between atoms: C_4  and  C_5
REMARK    5  A    between atoms: C_5  and  C_6
REMARK    6  A    between atoms: C_6  and  O_7
REMARK    7  A    between atoms: O_7  and  C_8
REMARK    8  A    between atoms: N_17  and  C_18
REMARK    9  A    between atoms: C_18  and  C_19
REMARK   10  A    between atoms: C_24  and  O_25
REMARK   11  A    between atoms: O_25  and  C_26
REMARK                            x       y       z     vdW  Elec       q    Type
REMARK                         _______ _______ _______ _____ _____    ______ ____
ROOT
ATOM      1  C   UNL     1      -1.607  11.403  18.682  0.00  0.00    +0.000 A 
ATOM      2  C   UNL     1      -0.896  10.325  18.117  0.00  0.00    +0.000 A 
ATOM      3  C   UNL     1       0.247   9.801  18.714  0.00  0.00    +0.000 A 
ATOM      4  C   UNL     1       0.763  10.412  19.839  0.00  0.00    +0.000 A 
ATOM      5  C   UNL     1       0.134  11.549  20.366  0.00  0.00    +0.000 A 
ATOM      6  C   UNL     1      -1.139  11.995  19.886  0.00  0.00    +0.000 A 
ATOM      7  C   UNL     1      -1.880  13.195  20.630  0.00  0.00    +0.000 C 
ATOM      8  C   UNL     1      -1.804  14.406  19.646  0.00  0.00    +0.000 C 
ATOM      9  C   UNL     1      -0.453  15.145  19.626  0.00  0.00    +0.000 C 
ATOM     10  N   UNL     1       0.619  14.475  20.326  0.00  0.00    +0.000 NA
ATOM     11  C   UNL     1       0.375  13.745  21.582  0.00  0.00    +0.000 C 
ATOM     12  C   UNL     1       0.944  12.324  21.392  0.00  0.00    +0.000 C 
ATOM     13  C   UNL     1      -1.129  13.574  21.950  0.00  0.00    +0.000 C 
ATOM     14  C   UNL     1      -1.340  12.394  22.969  0.00  0.00    +0.000 C 
ATOM     15  C   UNL     1      -2.737  12.411  23.533  0.00  0.00    +0.000 C 
ATOM     16  C   UNL     1      -3.757  12.477  22.432  0.00  0.00    +0.000 C 
ATOM     17  O   UNL     1      -4.945  12.257  22.706  0.00  0.00    +0.000 OA
ATOM     18  C   UNL     1      -3.370  12.876  20.993  0.00  0.00    +0.000 C 
ENDROOT
BRANCH  13  19
ATOM     19  O   UNL     1      -1.682  14.652  22.729  0.00  0.00    +0.000 OA
ATOM     20  C   UNL     1      -0.935  15.634  23.397  0.00  0.00    +0.000 C 
ENDBRANCH  13  19
BRANCH   1  21
ATOM     21  O   UNL     1      -2.695  11.974  18.055  0.00  0.00    +0.000 OA
BRANCH  21  22
ATOM     22  C   UNL     1      -3.750  11.091  17.648  0.00  0.00    +0.000 C 
BRANCH  22  23
ATOM     23  C   UNL     1      -4.910  11.854  17.000  0.00  0.00    +0.000 C 
BRANCH  23  24
ATOM     24  C   UNL     1      -5.773  12.495  18.093  0.00  0.00    +0.000 C 
BRANCH  24  25
ATOM     25  C   UNL     1      -7.140  11.833  18.267  0.00  0.00    +0.000 C 
BRANCH  25  27
ATOM     26  C   UNL     1      -7.026   9.654  19.558  0.00  0.00    +0.000 C 
ATOM     27  C   UNL     1      -7.237  11.157  19.638  0.00  0.00    +0.000 C 
ENDBRANCH  25  27
ENDBRANCH  24  25
ENDBRANCH  23  24
ENDBRANCH  22  23
ENDBRANCH  21  22
ENDBRANCH   1  21
BRANCH  10  28
ATOM     28  C   UNL     1       1.969  14.889  20.021  0.00  0.00    +0.000 C 
BRANCH  28  29
ATOM     29  C   UNL     1       2.321  14.673  18.582  0.00  0.00    +0.000 C 
ATOM     30  C   UNL     1       3.640  14.060  18.219  0.00  0.00    +0.000 C 
ATOM     31  C   UNL     1       2.378  13.286  18.021  0.00  0.00    +0.000 C 
ENDBRANCH  28  29
ENDBRANCH  10  28
TORSDOF 9
ENDMDL
MODEL 5
REMARK VINA RESULT:      -6.1      3.965      9.313
REMARK  Name = 
REMARK  11 active torsions:
REMARK  status: ('A' for Active; 'I' for Inactive)
REMARK    1  A    between atoms: C_1  and  C_2
REMARK    2  A    between atoms: C_2  and  C_3
REMARK    3  A    between atoms: C_3  and  C_4
REMARK    4  A    between atoms: C_4  and  C_5
REMARK    5  A    between atoms: C_5  and  C_6
REMARK    6  A    between atoms: C_6  and  O_7
REMARK    7  A    between atoms: O_7  and  C_8
REMARK    8  A    between atoms: N_17  and  C_18
REMARK    9  A    between atoms: C_18  and  C_19
REMARK   10  A    between atoms: C_24  and  O_25
REMARK   11  A    between atoms: O_25  and  C_26
REMARK                            x       y       z     vdW  Elec       q    Type
REMARK                         _______ _______ _______ _____ _____    ______ ____
ROOT
ATOM      1  C   UNL     1       0.587   9.308  21.090  0.00  0.00    +0.000 A 
ATOM      2  C   UNL     1       0.424   8.792  22.391  0.00  0.00    +0.000 A 
ATOM      3  C   UNL     1      -0.322   9.457  23.361  0.00  0.00    +0.000 A 
ATOM      4  C   UNL     1      -0.837  10.706  23.078  0.00  0.00    +0.000 A 
ATOM      5  C   UNL     1      -0.605  11.290  21.825  0.00  0.00    +0.000 A 
ATOM      6  C   UNL     1      -0.006  10.555  20.752  0.00  0.00    +0.000 A 
ATOM      7  C   UNL     1       0.085  11.217  19.304  0.00  0.00    +0.000 C 
ATOM      8  C   UNL     1       1.600  11.529  19.083  0.00  0.00    +0.000 C 
ATOM      9  C   UNL     1       2.111  12.801  19.786  0.00  0.00    +0.000 C 
ATOM     10  N   UNL     1       1.195  13.383  20.738  0.00  0.00    +0.000 NA
ATOM     11  C   UNL     1      -0.258  13.401  20.489  0.00  0.00    +0.000 C 
ATOM     12  C   UNL     1      -0.932  12.771  21.726  0.00  0.00    +0.000 C 
ATOM     13  C   UNL     1      -0.715  12.561  19.260  0.00  0.00    +0.000 C 
ATOM     14  C   UNL     1      -2.245  12.202  19.346  0.00  0.00    +0.000 C 
ATOM     15  C   UNL     1      -2.742  11.641  18.040  0.00  0.00    +0.000 C 
ATOM     16  C   UNL     1      -1.862  10.518  17.570  0.00  0.00    +0.000 C 
ATOM     17  O   UNL     1      -2.260   9.793  16.649  0.00  0.00    +0.000 OA
ATOM     18  C   UNL     1      -0.455  10.291  18.162  0.00  0.00    +0.000 C 
ENDROOT
BRANCH  13  19
ATOM     19  O   UNL     1      -0.717  13.278  18.011  0.00  0.00    +0.000 OA
ATOM     20  C   UNL     1      -0.203  14.569  17.818  0.00  0.00    +0.000 C 
ENDBRANCH  13  19
BRANCH   1  21
ATOM     21  O   UNL     1       1.386   8.691  20.149  0.00  0.00    +0.000 OA
BRANCH  21  22
ATOM     22  C   UNL     1       1.931   7.410  20.497  0.00  0.00    +0.000 C 
BRANCH  22  23
ATOM     23  C   UNL     1       2.565   6.716  19.288  0.00  0.00    +0.000 C 
BRANCH  23  24
ATOM     24  C   UNL     1       2.066   5.269  19.209  0.00  0.00    +0.000 C 
BRANCH  24  25
ATOM     25  C   UNL     1       1.364   4.790  20.480  0.00  0.00    +0.000 C 
BRANCH  25  27
ATOM     26  C   UNL     1       0.845   2.713  19.122  0.00  0.00    +0.000 C 
ATOM     27  C   UNL     1       1.244   3.263  20.482  0.00  0.00    +0.000 C 
ENDBRANCH  25  27
ENDBRANCH  24  25
ENDBRANCH  23  24
ENDBRANCH  22  23
ENDBRANCH  21  22
ENDBRANCH   1  21
BRANCH  10  28
ATOM     28  C   UNL     1       1.740  14.311  21.701  0.00  0.00    +0.000 C 
BRANCH  28  29
ATOM     29  C   UNL     1       2.271  15.554  21.057  0.00  0.00    +0.000 C 
ATOM     30  C   UNL     1       1.515  16.843  21.185  0.00  0.00    +0.000 C 
ATOM     31  C   UNL     1       2.814  16.666  21.901  0.00  0.00    +0.000 C 
ENDBRANCH  28  29
ENDBRANCH  10  28
TORSDOF 9
ENDMDL
MODEL 6
REMARK VINA RESULT:      -6.1      8.801     12.904
REMARK  Name = 
REMARK  11 active torsions:
REMARK  status: ('A' for Active; 'I' for Inactive)
REMARK    1  A    between atoms: C_1  and  C_2
REMARK    2  A    between atoms: C_2  and  C_3
REMARK    3  A    between atoms: C_3  and  C_4
REMARK    4  A    between atoms: C_4  and  C_5
REMARK    5  A    between atoms: C_5  and  C_6
REMARK    6  A    between atoms: C_6  and  O_7
REMARK    7  A    between atoms: O_7  and  C_8
REMARK    8  A    between atoms: N_17  and  C_18
REMARK    9  A    between atoms: C_18  and  C_19
REMARK   10  A    between atoms: C_24  and  O_25
REMARK   11  A    between atoms: O_25  and  C_26
REMARK                            x       y       z     vdW  Elec       q    Type
REMARK                         _______ _______ _______ _____ _____    ______ ____
ROOT
ATOM      1  C   UNL     1      -2.433  12.609  21.023  0.00  0.00    +0.000 A 
ATOM      2  C   UNL     1      -1.416  11.844  21.628  0.00  0.00    +0.000 A 
ATOM      3  C   UNL     1      -1.524  11.375  22.935  0.00  0.00    +0.000 A 
ATOM      4  C   UNL     1      -2.609  11.750  23.700  0.00  0.00    +0.000 A 
ATOM      5  C   UNL     1      -3.588  12.594  23.158  0.00  0.00    +0.000 A 
ATOM      6  C   UNL     1      -3.599  12.937  21.767  0.00  0.00    +0.000 A 
ATOM      7  C   UNL     1      -4.825  13.767  21.174  0.00  0.00    +0.000 C 
ATOM      8  C   UNL     1      -4.254  15.187  20.861  0.00  0.00    +0.000 C 
ATOM      9  C   UNL     1      -4.111  16.115  22.082  0.00  0.00    +0.000 C 
ATOM     10  N   UNL     1      -4.288  15.470  23.363  0.00  0.00    +0.000 NA
ATOM     11  C   UNL     1      -5.293  14.410  23.554  0.00  0.00    +0.000 C 
ATOM     12  C   UNL     1      -4.557  13.198  24.161  0.00  0.00    +0.000 C 
ATOM     13  C   UNL     1      -5.963  13.908  22.239  0.00  0.00    +0.000 C 
ATOM     14  C   UNL     1      -6.609  12.486  22.431  0.00  0.00    +0.000 C 
ATOM     15  C   UNL     1      -7.487  12.131  21.261  0.00  0.00    +0.000 C 
ATOM     16  C   UNL     1      -6.750  12.313  19.964  0.00  0.00    +0.000 C 
ATOM     17  O   UNL     1      -7.238  11.840  18.929  0.00  0.00    +0.000 OA
ATOM     18  C   UNL     1      -5.443  13.128  19.885  0.00  0.00    +0.000 C 
ENDROOT
BRANCH  13  19
ATOM     19  O   UNL     1      -7.137  14.644  21.846  0.00  0.00    +0.000 OA
ATOM     20  C   UNL     1      -7.846  15.534  22.666  0.00  0.00    +0.000 C 
ENDBRANCH  13  19
BRANCH   1  21
ATOM     21  O   UNL     1      -2.299  13.139  19.756  0.00  0.00    +0.000 OA
BRANCH  21  22
ATOM     22  C   UNL     1      -1.119  12.780  19.022  0.00  0.00    +0.000 C 
BRANCH  22  23
ATOM     23  C   UNL     1      -1.462  12.041  17.725  0.00  0.00    +0.000 C 
BRANCH  23  24
ATOM     24  C   UNL     1      -2.910  11.542  17.789  0.00  0.00    +0.000 C 
BRANCH  24  25
ATOM     25  C   UNL     1      -3.060  10.047  17.506  0.00  0.00    +0.000 C 
BRANCH  25  27
ATOM     26  C   UNL     1      -3.451  10.448  15.033  0.00  0.00    +0.000 C 
ATOM     27  C   UNL     1      -2.613   9.726  16.076  0.00  0.00    +0.000 C 
ENDBRANCH  25  27
ENDBRANCH  24  25
ENDBRANCH  23  24
ENDBRANCH  22  23
ENDBRANCH  21  22
ENDBRANCH   1  21
BRANCH  10  28
ATOM     28  C   UNL     1      -3.787  16.162  24.528  0.00  0.00    +0.000 C 
BRANCH  28  29
ATOM     29  C   UNL     1      -2.302  16.035  24.672  0.00  0.00    +0.000 C 
ATOM     30  C   UNL     1      -1.554  16.984  25.559  0.00  0.00    +0.000 C 
ATOM     31  C   UNL     1      -1.708  15.554  25.960  0.00  0.00    +0.000 C 
ENDBRANCH  28  29
ENDBRANCH  10  28
TORSDOF 9
ENDMDL
MODEL 7
REMARK VINA RESULT:      -6.1      6.566     10.105
REMARK  Name = 
REMARK  11 active torsions:
REMARK  status: ('A' for Active; 'I' for Inactive)
REMARK    1  A    between atoms: C_1  and  C_2
REMARK    2  A    between atoms: C_2  and  C_3
REMARK    3  A    between atoms: C_3  and  C_4
REMARK    4  A    between atoms: C_4  and  C_5
REMARK    5  A    between atoms: C_5  and  C_6
REMARK    6  A    between atoms: C_6  and  O_7
REMARK    7  A    between atoms: O_7  and  C_8
REMARK    8  A    between atoms: N_17  and  C_18
REMARK    9  A    between atoms: C_18  and  C_19
REMARK   10  A    between atoms: C_24  and  O_25
REMARK   11  A    between atoms: O_25  and  C_26
REMARK                            x       y       z     vdW  Elec       q    Type
REMARK                         _______ _______ _______ _____ _____    ______ ____
ROOT
ATOM      1  C   UNL     1      -1.276  11.146  18.320  0.00  0.00    +0.000 A 
ATOM      2  C   UNL     1      -0.643  10.006  17.786  0.00  0.00    +0.000 A 
ATOM      3  C   UNL     1       0.454   9.413  18.405  0.00  0.00    +0.000 A 
ATOM      4  C   UNL     1       1.006  10.011  19.519  0.00  0.00    +0.000 A 
ATOM      5  C   UNL     1       0.460  11.203  20.015  0.00  0.00    +0.000 A 
ATOM      6  C   UNL     1      -0.774  11.730  19.514  0.00  0.00    +0.000 A 
ATOM      7  C   UNL     1      -1.429  12.999  20.225  0.00  0.00    +0.000 C 
ATOM      8  C   UNL     1      -1.258  14.177  19.214  0.00  0.00    +0.000 C 
ATOM      9  C   UNL     1       0.144  14.814  19.189  0.00  0.00    +0.000 C 
ATOM     10  N   UNL     1       1.160  14.084  19.912  0.00  0.00    +0.000 NA
ATOM     11  C   UNL     1       0.854  13.404  21.183  0.00  0.00    +0.000 C 
ATOM     12  C   UNL     1       1.318  11.940  21.030  0.00  0.00    +0.000 C 
ATOM     13  C   UNL     1      -0.662  13.352  21.542  0.00  0.00    +0.000 C 
ATOM     14  C   UNL     1      -0.965  12.215  22.586  0.00  0.00    +0.000 C 
ATOM     15  C   UNL     1      -2.361  12.348  23.137  0.00  0.00    +0.000 C 
ATOM     16  C   UNL     1      -3.366  12.464  22.027  0.00  0.00    +0.000 C 
ATOM     17  O   UNL     1      -4.568  12.338  22.295  0.00  0.00    +0.000 OA
ATOM     18  C   UNL     1      -2.941  12.799  20.583  0.00  0.00    +0.000 C 
ENDROOT
BRANCH  13  19
ATOM     19  O   UNL     1      -1.139  14.486  22.291  0.00  0.00    +0.000 OA
ATOM     20  C   UNL     1      -0.326  15.461  22.889  0.00  0.00    +0.000 C 
ENDBRANCH  13  19
BRANCH   1  21
ATOM     21  O   UNL     1      -2.315  11.782  17.672  0.00  0.00    +0.000 OA
BRANCH  21  22
ATOM     22  C   UNL     1      -2.667  11.291  16.369  0.00  0.00    +0.000 C 
BRANCH  22  23
ATOM     23  C   UNL     1      -4.181  11.115  16.220  0.00  0.00    +0.000 C 
BRANCH  23  24
ATOM     24  C   UNL     1      -4.890  11.758  17.417  0.00  0.00    +0.000 C 
BRANCH  24  25
ATOM     25  C   UNL     1      -5.445  10.747  18.421  0.00  0.00    +0.000 C 
BRANCH  25  27
ATOM     26  C   UNL     1      -7.233  11.459  20.071  0.00  0.00    +0.000 C 
ATOM     27  C   UNL     1      -6.938  10.989  18.655  0.00  0.00    +0.000 C 
ENDBRANCH  25  27
ENDBRANCH  24  25
ENDBRANCH  23  24
ENDBRANCH  22  23
ENDBRANCH  21  22
ENDBRANCH   1  21
BRANCH  10  28
ATOM     28  C   UNL     1       2.539  14.390  19.609  0.00  0.00    +0.000 C 
BRANCH  28  29
ATOM     29  C   UNL     1       2.709  14.947  18.230  0.00  0.00    +0.000 C 
ATOM     30  C   UNL     1       3.241  16.337  18.046  0.00  0.00    +0.000 C 
ATOM     31  C   UNL     1       4.081  15.161  17.669  0.00  0.00    +0.000 C 
ENDBRANCH  28  29
ENDBRANCH  10  28
TORSDOF 9
ENDMDL
MODEL 8
REMARK VINA RESULT:      -6.1      0.782      1.264
REMARK  Name = 
REMARK  11 active torsions:
REMARK  status: ('A' for Active; 'I' for Inactive)
REMARK    1  A    between atoms: C_1  and  C_2
REMARK    2  A    between atoms: C_2  and  C_3
REMARK    3  A    between atoms: C_3  and  C_4
REMARK    4  A    between atoms: C_4  and  C_5
REMARK    5  A    between atoms: C_5  and  C_6
REMARK    6  A    between atoms: C_6  and  O_7
REMARK    7  A    between atoms: O_7  and  C_8
REMARK    8  A    between atoms: N_17  and  C_18
REMARK    9  A    between atoms: C_18  and  C_19
REMARK   10  A    between atoms: C_24  and  O_25
REMARK   11  A    between atoms: O_25  and  C_26
REMARK                            x       y       z     vdW  Elec       q    Type
REMARK                         _______ _______ _______ _____ _____    ______ ____
ROOT
ATOM      1  C   UNL     1       2.906   7.050  18.631  0.00  0.00    +0.000 A 
ATOM      2  C   UNL     1       1.953   7.133  19.665  0.00  0.00    +0.000 A 
ATOM      3  C   UNL     1       2.009   6.310  20.788  0.00  0.00    +0.000 A 
ATOM      4  C   UNL     1       2.962   5.314  20.849  0.00  0.00    +0.000 A 
ATOM      5  C   UNL     1       3.860   5.141  19.786  0.00  0.00    +0.000 A 
ATOM      6  C   UNL     1       3.946   6.086  18.713  0.00  0.00    +0.000 A 
ATOM      7  C   UNL     1       5.095   5.924  17.618  0.00  0.00    +0.000 C 
ATOM      8  C   UNL     1       4.365   5.476  16.312  0.00  0.00    +0.000 C 
ATOM      9  C   UNL     1       3.991   3.983  16.256  0.00  0.00    +0.000 C 
ATOM     10  N   UNL     1       4.141   3.268  17.502  0.00  0.00    +0.000 NA
ATOM     11  C   UNL     1       5.261   3.552  18.417  0.00  0.00    +0.000 C 
ATOM     12  C   UNL     1       4.646   3.840  19.802  0.00  0.00    +0.000 C 
ATOM     13  C   UNL     1       6.105   4.806  18.038  0.00  0.00    +0.000 C 
ATOM     14  C   UNL     1       6.919   5.343  19.272  0.00  0.00    +0.000 C 
ATOM     15  C   UNL     1       7.937   6.367  18.841  0.00  0.00    +0.000 C 
ATOM     16  C   UNL     1       7.299   7.435  18.000  0.00  0.00    +0.000 C 
ATOM     17  O   UNL     1       7.935   8.471  17.767  0.00  0.00    +0.000 OA
ATOM     18  C   UNL     1       5.905   7.242  17.368  0.00  0.00    +0.000 C 
ENDROOT
BRANCH  13  19
ATOM     19  O   UNL     1       7.198   4.542  17.137  0.00  0.00    +0.000 OA
ATOM     20  C   UNL     1       7.078   4.349  15.753  0.00  0.00    +0.000 C 
ENDBRANCH  13  19
BRANCH   1  21
ATOM     21  O   UNL     1       2.812   7.810  17.483  0.00  0.00    +0.000 OA
BRANCH  21  22
ATOM     22  C   UNL     1       1.763   8.788  17.434  0.00  0.00    +0.000 C 
BRANCH  22  23
ATOM     23  C   UNL     1       2.234  10.152  17.950  0.00  0.00    +0.000 C 
BRANCH  23  24
ATOM     24  C   UNL     1       1.187  10.723  18.912  0.00  0.00    +0.000 C 
BRANCH  24  25
ATOM     25  C   UNL     1       0.959  12.226  18.752  0.00  0.00    +0.000 C 
BRANCH  25  27
ATOM     26  C   UNL     1       2.844  13.848  18.255  0.00  0.00    +0.000 C 
ATOM     27  C   UNL     1       2.147  13.011  19.316  0.00  0.00    +0.000 C 
ENDBRANCH  25  27
ENDBRANCH  24  25
ENDBRANCH  23  24
ENDBRANCH  22  23
ENDBRANCH  21  22
ENDBRANCH   1  21
BRANCH  10  28
ATOM     28  C   UNL     1       3.450   2.006  17.630  0.00  0.00    +0.000 C 
BRANCH  28  29
ATOM     29  C   UNL     1       1.965   2.175  17.723  0.00  0.00    +0.000 C 
ATOM     30  C   UNL     1       1.310   2.296  19.066  0.00  0.00    +0.000 C 
ATOM     31  C   UNL     1       1.383   3.483  18.162  0.00  0.00    +0.000 C 
ENDBRANCH  28  29
ENDBRANCH  10  28
TORSDOF 9
ENDMDL
MODEL 9
REMARK VINA RESULT:      -6.1      5.225     10.958
REMARK  Name = 
REMARK  11 active torsions:
REMARK  status: ('A' for Active; 'I' for Inactive)
REMARK    1  A    between atoms: C_1  and  C_2
REMARK    2  A    between atoms: C_2  and  C_3
REMARK    3  A    between atoms: C_3  and  C_4
REMARK    4  A    between atoms: C_4  and  C_5
REMARK    5  A    between atoms: C_5  and  C_6
REMARK    6  A    between atoms: C_6  and  O_7
REMARK    7  A    between atoms: O_7  and  C_8
REMARK    8  A    between atoms: N_17  and  C_18
REMARK    9  A    between atoms: C_18  and  C_19
REMARK   10  A    between atoms: C_24  and  O_25
REMARK   11  A    between atoms: O_25  and  C_26
REMARK                            x       y       z     vdW  Elec       q    Type
REMARK                         _______ _______ _______ _____ _____    ______ ____
ROOT
ATOM      1  C   UNL     1      -0.393  10.894  20.534  0.00  0.00    +0.000 A 
ATOM      2  C   UNL     1       0.220   9.910  21.335  0.00  0.00    +0.000 A 
ATOM      3  C   UNL     1      -0.133   9.718  22.668  0.00  0.00    +0.000 A 
ATOM      4  C   UNL     1      -1.036  10.578  23.259  0.00  0.00    +0.000 A 
ATOM      5  C   UNL     1      -1.587  11.631  22.515  0.00  0.00    +0.000 A 
ATOM      6  C   UNL     1      -1.386  11.738  21.100  0.00  0.00    +0.000 A 
ATOM      7  C   UNL     1      -2.167  12.862  20.282  0.00  0.00    +0.000 C 
ATOM      8  C   UNL     1      -1.082  13.905  19.867  0.00  0.00    +0.000 C 
ATOM      9  C   UNL     1      -0.666  14.889  20.977  0.00  0.00    +0.000 C 
ATOM     10  N   UNL     1      -1.149  14.558  22.298  0.00  0.00    +0.000 NA
ATOM     11  C   UNL     1      -2.492  13.986  22.501  0.00  0.00    +0.000 C 
ATOM     12  C   UNL     1      -2.308  12.695  23.326  0.00  0.00    +0.000 C 
ATOM     13  C   UNL     1      -3.225  13.573  21.190  0.00  0.00    +0.000 C 
ATOM     14  C   UNL     1      -4.374  12.537  21.477  0.00  0.00    +0.000 C 
ATOM     15  C   UNL     1      -5.252  12.357  20.267  0.00  0.00    +0.000 C 
ATOM     16  C   UNL     1      -4.428  12.055  19.047  0.00  0.00    +0.000 C 
ATOM     17  O   UNL     1      -4.999  11.644  18.028  0.00  0.00    +0.000 OA
ATOM     18  C   UNL     1      -2.907  12.308  19.016  0.00  0.00    +0.000 C 
ENDROOT
BRANCH  13  19
ATOM     19  O   UNL     1      -4.006  14.621  20.584  0.00  0.00    +0.000 OA
ATOM     20  C   UNL     1      -4.331  15.842  21.193  0.00  0.00    +0.000 C 
ENDBRANCH  13  19
BRANCH   1  21
ATOM     21  O   UNL     1       0.006  11.139  19.236  0.00  0.00    +0.000 OA
BRANCH  21  22
ATOM     22  C   UNL     1       1.267  10.588  18.828  0.00  0.00    +0.000 C 
BRANCH  22  23
ATOM     23  C   UNL     1       1.088   9.310  18.003  0.00  0.00    +0.000 C 
BRANCH  23  24
ATOM     24  C   UNL     1       2.457   8.671  17.748  0.00  0.00    +0.000 C 
BRANCH  24  25
ATOM     25  C   UNL     1       2.575   7.238  18.268  0.00  0.00    +0.000 C 
BRANCH  25  27
ATOM     26  C   UNL     1       1.996   5.753  20.240  0.00  0.00    +0.000 C 
ATOM     27  C   UNL     1       2.213   7.178  19.755  0.00  0.00    +0.000 C 
ENDBRANCH  25  27
ENDBRANCH  24  25
ENDBRANCH  23  24
ENDBRANCH  22  23
ENDBRANCH  21  22
ENDBRANCH   1  21
BRANCH  10  28
ATOM     28  C   UNL     1      -0.490  15.184  23.421  0.00  0.00    +0.000 C 
BRANCH  28  29
ATOM     29  C   UNL     1      -1.457  15.843  24.354  0.00  0.00    +0.000 C 
ATOM     30  C   UNL     1      -1.267  15.718  25.836  0.00  0.00    +0.000 C 
ATOM     31  C   UNL     1      -1.034  17.031  25.162  0.00  0.00    +0.000 C 
ENDBRANCH  28  29
ENDBRANCH  10  28
TORSDOF 9
ENDMDL
