MODEL 1
REMARK VINA RESULT:      -7.2      0.000      0.000
REMARK  Name = 
REMARK  6 active torsions:
REMARK  status: ('A' for Active; 'I' for Inactive)
REMARK    1  A    between atoms: C_1  and  C_2
REMARK    2  A    between atoms: C_4  and  C_5
REMARK    3  A    between atoms: C_6  and  C_7
REMARK    4  A    between atoms: C_12  and  C_14
REMARK    5  A    between atoms: C_15  and  C_16
REMARK    6  A    between atoms: C_22  and  C_23
REMARK                            x       y       z     vdW  Elec       q    Type
REMARK                         _______ _______ _______ _____ _____    ______ ____
ROOT
ATOM      1  C   UNL     1       3.719   4.439  19.169  0.00  0.00    +0.000 A 
ATOM      2  C   UNL     1       3.672   3.539  20.219  0.00  0.00    +0.000 A 
ATOM      3  S   UNL     1       2.468   4.003  21.363  0.00  0.00    +0.000 S 
ATOM      4  C   UNL     1       2.218   5.425  20.465  0.00  0.00    +0.000 A 
ATOM      5  N   UNL     1       1.439   6.368  21.073  0.00  0.00    +0.000 N 
ATOM      6  C   UNL     1       1.487   7.678  20.653  0.00  0.00    +0.000 C 
ATOM      7  O   UNL     1       2.168   8.144  19.747  0.00  0.00    +0.000 OA
ATOM      8  N   UNL     1       2.821   5.488  19.311  0.00  0.00    +0.000 NA
ATOM      9  H   UNL     1       0.992   6.104  21.936  0.00  0.00    +0.000 HD
ENDROOT
BRANCH   1  15
ATOM     10  C   UNL     1       7.270   4.582  14.543  0.00  0.00    +0.000 C 
ATOM     11  C   UNL     1       6.364   4.479  15.734  0.00  0.00    +0.000 A 
ATOM     12  C   UNL     1       5.095   3.919  15.638  0.00  0.00    +0.000 A 
ATOM     13  C   UNL     1       4.213   3.876  16.740  0.00  0.00    +0.000 A 
ATOM     14  C   UNL     1       2.858   3.272  16.475  0.00  0.00    +0.000 C 
ATOM     15  C   UNL     1       4.624   4.394  18.001  0.00  0.00    +0.000 A 
ATOM     16  C   UNL     1       5.941   4.930  18.101  0.00  0.00    +0.000 A 
ATOM     17  C   UNL     1       6.549   5.526  19.351  0.00  0.00    +0.000 C 
ATOM     18  C   UNL     1       6.776   4.980  16.965  0.00  0.00    +0.000 A 
ENDBRANCH   1  15
BRANCH   6  19
ATOM     19  C   UNL     1       0.637   8.573  21.488  0.00  0.00    +0.000 C 
ATOM     20  C   UNL     1       0.415   9.820  21.047  0.00  0.00    +0.000 C 
BRANCH  20  21
ATOM     21  C   UNL     1      -0.373  10.764  21.767  0.00  0.00    +0.000 A 
ATOM     22  C   UNL     1      -1.062  10.660  22.963  0.00  0.00    +0.000 A 
ATOM     23  C   UNL     1      -1.725  11.866  23.336  0.00  0.00    +0.000 A 
ATOM     24  C   UNL     1      -1.529  12.865  22.418  0.00  0.00    +0.000 A 
ATOM     25  S   UNL     1      -0.560  12.353  21.112  0.00  0.00    +0.000 S 
ENDBRANCH  20  21
ENDBRANCH   6  19
TORSDOF 3
ENDMDL
MODEL 2
REMARK VINA RESULT:      -6.8      0.313      1.820
REMARK  Name = 
REMARK  6 active torsions:
REMARK  status: ('A' for Active; 'I' for Inactive)
REMARK    1  A    between atoms: C_1  and  C_2
REMARK    2  A    between atoms: C_4  and  C_5
REMARK    3  A    between atoms: C_6  and  C_7
REMARK    4  A    between atoms: C_12  and  C_14
REMARK    5  A    between atoms: C_15  and  C_16
REMARK    6  A    between atoms: C_22  and  C_23
REMARK                            x       y       z     vdW  Elec       q    Type
REMARK                         _______ _______ _______ _____ _____    ______ ____
ROOT
ATOM      1  C   UNL     1       3.641   4.608  19.169  0.00  0.00    +0.000 A 
ATOM      2  C   UNL     1       3.617   3.698  20.210  0.00  0.00    +0.000 A 
ATOM      3  S   UNL     1       2.434   4.146  21.382  0.00  0.00    +0.000 S 
ATOM      4  C   UNL     1       2.162   5.576  20.504  0.00  0.00    +0.000 A 
ATOM      5  N   UNL     1       1.392   6.510  21.137  0.00  0.00    +0.000 N 
ATOM      6  C   UNL     1       1.428   7.824  20.729  0.00  0.00    +0.000 C 
ATOM      7  O   UNL     1       2.089   8.302  19.815  0.00  0.00    +0.000 OA
ATOM      8  N   UNL     1       2.743   5.652  19.339  0.00  0.00    +0.000 NA
ATOM      9  H   UNL     1       0.963   6.235  22.005  0.00  0.00    +0.000 HD
ENDROOT
BRANCH   1  15
ATOM     10  C   UNL     1       7.126   4.167  14.512  0.00  0.00    +0.000 C 
ATOM     11  C   UNL     1       6.231   4.346  15.701  0.00  0.00    +0.000 A 
ATOM     12  C   UNL     1       6.696   4.904  16.887  0.00  0.00    +0.000 A 
ATOM     13  C   UNL     1       5.877   5.018  18.030  0.00  0.00    +0.000 A 
ATOM     14  C   UNL     1       6.530   5.611  19.252  0.00  0.00    +0.000 C 
ATOM     15  C   UNL     1       4.523   4.578  17.983  0.00  0.00    +0.000 A 
ATOM     16  C   UNL     1       4.042   4.043  16.752  0.00  0.00    +0.000 A 
ATOM     17  C   UNL     1       2.642   3.522  16.514  0.00  0.00    +0.000 C 
ATOM     18  C   UNL     1       4.907   3.919  15.645  0.00  0.00    +0.000 A 
ENDBRANCH   1  15
BRANCH   6  19
ATOM     19  C   UNL     1       0.591   8.708  21.590  0.00  0.00    +0.000 C 
ATOM     20  C   UNL     1       0.056   9.804  21.032  0.00  0.00    +0.000 C 
BRANCH  20  21
ATOM     21  C   UNL     1      -0.752  10.725  21.760  0.00  0.00    +0.000 A 
ATOM     22  C   UNL     1      -1.163  10.735  23.082  0.00  0.00    +0.000 A 
ATOM     23  C   UNL     1      -1.969  11.865  23.409  0.00  0.00    +0.000 A 
ATOM     24  C   UNL     1      -2.156  12.693  22.333  0.00  0.00    +0.000 A 
ATOM     25  S   UNL     1      -1.373  12.110  20.935  0.00  0.00    +0.000 S 
ENDBRANCH  20  21
ENDBRANCH   6  19
TORSDOF 3
ENDMDL
MODEL 3
REMARK VINA RESULT:      -6.7      1.121      1.740
REMARK  Name = 
REMARK  6 active torsions:
REMARK  status: ('A' for Active; 'I' for Inactive)
REMARK    1  A    between atoms: C_1  and  C_2
REMARK    2  A    between atoms: C_4  and  C_5
REMARK    3  A    between atoms: C_6  and  C_7
REMARK    4  A    between atoms: C_12  and  C_14
REMARK    5  A    between atoms: C_15  and  C_16
REMARK    6  A    between atoms: C_22  and  C_23
REMARK                            x       y       z     vdW  Elec       q    Type
REMARK                         _______ _______ _______ _____ _____    ______ ____
ROOT
ATOM      1  C   UNL     1       3.241   4.865  18.884  0.00  0.00    +0.000 A 
ATOM      2  C   UNL     1       3.293   3.993  19.956  0.00  0.00    +0.000 A 
ATOM      3  S   UNL     1       2.260   4.530  21.228  0.00  0.00    +0.000 S 
ATOM      4  C   UNL     1       1.950   5.939  20.329  0.00  0.00    +0.000 A 
ATOM      5  N   UNL     1       1.288   6.926  21.003  0.00  0.00    +0.000 N 
ATOM      6  C   UNL     1       1.330   8.222  20.544  0.00  0.00    +0.000 C 
ATOM      7  O   UNL     1       1.908   8.641  19.547  0.00  0.00    +0.000 OA
ATOM      8  N   UNL     1       2.406   5.951  19.107  0.00  0.00    +0.000 NA
ATOM      9  H   UNL     1       0.944   6.699  21.922  0.00  0.00    +0.000 HD
ENDROOT
BRANCH   1  15
ATOM     10  C   UNL     1       6.433   4.294  14.035  0.00  0.00    +0.000 C 
ATOM     11  C   UNL     1       5.565   4.469  15.245  0.00  0.00    +0.000 A 
ATOM     12  C   UNL     1       5.324   5.725  15.794  0.00  0.00    +0.000 A 
ATOM     13  C   UNL     1       4.560   5.892  16.969  0.00  0.00    +0.000 A 
ATOM     14  C   UNL     1       4.414   7.308  17.464  0.00  0.00    +0.000 C 
ATOM     15  C   UNL     1       3.990   4.758  17.615  0.00  0.00    +0.000 A 
ATOM     16  C   UNL     1       4.208   3.478  17.024  0.00  0.00    +0.000 A 
ATOM     17  C   UNL     1       3.689   2.166  17.567  0.00  0.00    +0.000 C 
ATOM     18  C   UNL     1       5.006   3.357  15.867  0.00  0.00    +0.000 A 
ENDBRANCH   1  15
BRANCH   6  19
ATOM     19  C   UNL     1       0.624   9.169  21.453  0.00  0.00    +0.000 C 
ATOM     20  C   UNL     1       0.376  10.407  21.001  0.00  0.00    +0.000 C 
BRANCH  20  21
ATOM     21  C   UNL     1      -0.283  11.398  21.786  0.00  0.00    +0.000 A 
ATOM     22  C   UNL     1      -1.179  11.287  22.835  0.00  0.00    +0.000 A 
ATOM     23  C   UNL     1      -1.595  12.550  23.352  0.00  0.00    +0.000 A 
ATOM     24  C   UNL     1      -1.009  13.596  22.688  0.00  0.00    +0.000 A 
ATOM     25  S   UNL     1       0.029  13.063  21.445  0.00  0.00    +0.000 S 
ENDBRANCH  20  21
ENDBRANCH   6  19
TORSDOF 3
ENDMDL
MODEL 4
REMARK VINA RESULT:      -6.6      3.086     10.699
REMARK  Name = 
REMARK  6 active torsions:
REMARK  status: ('A' for Active; 'I' for Inactive)
REMARK    1  A    between atoms: C_1  and  C_2
REMARK    2  A    between atoms: C_4  and  C_5
REMARK    3  A    between atoms: C_6  and  C_7
REMARK    4  A    between atoms: C_12  and  C_14
REMARK    5  A    between atoms: C_15  and  C_16
REMARK    6  A    between atoms: C_22  and  C_23
REMARK                            x       y       z     vdW  Elec       q    Type
REMARK                         _______ _______ _______ _____ _____    ______ ____
ROOT
ATOM      1  C   UNL     1      -1.733  12.761  20.118  0.00  0.00    +0.000 A 
ATOM      2  C   UNL     1      -1.158  13.891  19.566  0.00  0.00    +0.000 A 
ATOM      3  S   UNL     1       0.065  13.457  18.430  0.00  0.00    +0.000 S 
ATOM      4  C   UNL     1      -0.156  11.830  18.872  0.00  0.00    +0.000 A 
ATOM      5  N   UNL     1       0.785  10.963  18.393  0.00  0.00    +0.000 N 
ATOM      6  C   UNL     1       0.953   9.732  18.984  0.00  0.00    +0.000 C 
ATOM      7  O   UNL     1       0.332   9.272  19.935  0.00  0.00    +0.000 OA
ATOM      8  N   UNL     1      -1.172  11.581  19.650  0.00  0.00    +0.000 NA
ATOM      9  H   UNL     1       1.454  11.333  17.737  0.00  0.00    +0.000 HD
ENDROOT
BRANCH   1  15
ATOM     10  C   UNL     1      -6.053  12.883  24.036  0.00  0.00    +0.000 C 
ATOM     11  C   UNL     1      -4.928  12.792  23.050  0.00  0.00    +0.000 A 
ATOM     12  C   UNL     1      -3.598  12.822  23.457  0.00  0.00    +0.000 A 
ATOM     13  C   UNL     1      -2.533  12.800  22.531  0.00  0.00    +0.000 A 
ATOM     14  C   UNL     1      -1.147  12.875  23.119  0.00  0.00    +0.000 C 
ATOM     15  C   UNL     1      -2.805  12.718  21.135  0.00  0.00    +0.000 A 
ATOM     16  C   UNL     1      -4.169  12.646  20.729  0.00  0.00    +0.000 A 
ATOM     17  C   UNL     1      -4.650  12.561  19.297  0.00  0.00    +0.000 C 
ATOM     18  C   UNL     1      -5.201  12.705  21.689  0.00  0.00    +0.000 A 
ENDBRANCH   1  15
BRANCH   6  19
ATOM     19  C   UNL     1       2.079   8.963  18.383  0.00  0.00    +0.000 C 
ATOM     20  C   UNL     1       2.267   7.700  18.793  0.00  0.00    +0.000 C 
BRANCH  20  21
ATOM     21  C   UNL     1       3.316   6.875  18.295  0.00  0.00    +0.000 A 
ATOM     22  C   UNL     1       4.108   6.984  17.165  0.00  0.00    +0.000 A 
ATOM     23  C   UNL     1       5.062   5.929  17.044  0.00  0.00    +0.000 A 
ATOM     24  C   UNL     1       4.978   5.040  18.083  0.00  0.00    +0.000 A 
ATOM     25  S   UNL     1       3.755   5.465  19.192  0.00  0.00    +0.000 S 
ENDBRANCH  20  21
ENDBRANCH   6  19
TORSDOF 3
ENDMDL
MODEL 5
REMARK VINA RESULT:      -6.6      2.731     10.152
REMARK  Name = 
REMARK  6 active torsions:
REMARK  status: ('A' for Active; 'I' for Inactive)
REMARK    1  A    between atoms: C_1  and  C_2
REMARK    2  A    between atoms: C_4  and  C_5
REMARK    3  A    between atoms: C_6  and  C_7
REMARK    4  A    between atoms: C_12  and  C_14
REMARK    5  A    between atoms: C_15  and  C_16
REMARK    6  A    between atoms: C_22  and  C_23
REMARK                            x       y       z     vdW  Elec       q    Type
REMARK                         _______ _______ _______ _____ _____    ______ ____
ROOT
ATOM      1  C   UNL     1       0.144  12.555  20.495  0.00  0.00    +0.000 A 
ATOM      2  C   UNL     1       1.105  13.521  20.257  0.00  0.00    +0.000 A 
ATOM      3  S   UNL     1       2.145  13.041  18.968  0.00  0.00    +0.000 S 
ATOM      4  C   UNL     1       1.345  11.541  18.933  0.00  0.00    +0.000 A 
ATOM      5  N   UNL     1       1.939  10.581  18.164  0.00  0.00    +0.000 N 
ATOM      6  C   UNL     1       1.636   9.254  18.361  0.00  0.00    +0.000 C 
ATOM      7  O   UNL     1       0.850   8.783  19.176  0.00  0.00    +0.000 OA
ATOM      8  N   UNL     1       0.272  11.446  19.669  0.00  0.00    +0.000 NA
ATOM      9  H   UNL     1       2.723  10.868  17.602  0.00  0.00    +0.000 HD
ENDROOT
BRANCH   1  15
ATOM     10  C   UNL     1      -4.185  12.453  24.403  0.00  0.00    +0.000 C 
ATOM     11  C   UNL     1      -3.045  12.530  23.432  0.00  0.00    +0.000 A 
ATOM     12  C   UNL     1      -2.917  13.590  22.541  0.00  0.00    +0.000 A 
ATOM     13  C   UNL     1      -1.883  13.638  21.581  0.00  0.00    +0.000 A 
ATOM     14  C   UNL     1      -1.894  14.831  20.661  0.00  0.00    +0.000 C 
ATOM     15  C   UNL     1      -0.917  12.593  21.522  0.00  0.00    +0.000 A 
ATOM     16  C   UNL     1      -1.032  11.530  22.465  0.00  0.00    +0.000 A 
ATOM     17  C   UNL     1      -0.108  10.336  22.552  0.00  0.00    +0.000 C 
ATOM     18  C   UNL     1      -2.102  11.508  23.385  0.00  0.00    +0.000 A 
ENDBRANCH   1  15
BRANCH   6  19
ATOM     19  C   UNL     1       2.443   8.352  17.491  0.00  0.00    +0.000 C 
ATOM     20  C   UNL     1       3.152   7.379  18.082  0.00  0.00    +0.000 C 
BRANCH  20  21
ATOM     21  C   UNL     1       3.966   6.465  17.351  0.00  0.00    +0.000 A 
ATOM     22  C   UNL     1       4.968   6.675  16.420  0.00  0.00    +0.000 A 
ATOM     23  C   UNL     1       5.542   5.464  15.931  0.00  0.00    +0.000 A 
ATOM     24  C   UNL     1       4.968   4.357  16.499  0.00  0.00    +0.000 A 
ATOM     25  S   UNL     1       3.740   4.771  17.606  0.00  0.00    +0.000 S 
ENDBRANCH  20  21
ENDBRANCH   6  19
TORSDOF 3
ENDMDL
MODEL 6
REMARK VINA RESULT:      -6.6      2.475      9.618
REMARK  Name = 
REMARK  6 active torsions:
REMARK  status: ('A' for Active; 'I' for Inactive)
REMARK    1  A    between atoms: C_1  and  C_2
REMARK    2  A    between atoms: C_4  and  C_5
REMARK    3  A    between atoms: C_6  and  C_7
REMARK    4  A    between atoms: C_12  and  C_14
REMARK    5  A    between atoms: C_15  and  C_16
REMARK    6  A    between atoms: C_22  and  C_23
REMARK                            x       y       z     vdW  Elec       q    Type
REMARK                         _______ _______ _______ _____ _____    ______ ____
ROOT
ATOM      1  C   UNL     1       0.500  11.082  19.802  0.00  0.00    +0.000 A 
ATOM      2  C   UNL     1       1.250  11.963  19.045  0.00  0.00    +0.000 A 
ATOM      3  S   UNL     1       2.238  11.109  17.919  0.00  0.00    +0.000 S 
ATOM      4  C   UNL     1       1.716   9.653  18.624  0.00  0.00    +0.000 A 
ATOM      5  N   UNL     1       2.400   8.537  18.231  0.00  0.00    +0.000 N 
ATOM      6  C   UNL     1       2.355   7.395  18.997  0.00  0.00    +0.000 C 
ATOM      7  O   UNL     1       1.742   7.225  20.045  0.00  0.00    +0.000 OA
ATOM      8  N   UNL     1       0.748   9.751  19.492  0.00  0.00    +0.000 NA
ATOM      9  H   UNL     1       3.067   8.650  17.485  0.00  0.00    +0.000 HD
ENDROOT
BRANCH   1  15
ATOM     10  C   UNL     1      -3.398  12.142  24.010  0.00  0.00    +0.000 C 
ATOM     11  C   UNL     1      -2.371  11.929  22.939  0.00  0.00    +0.000 A 
ATOM     12  C   UNL     1      -2.425  12.616  21.731  0.00  0.00    +0.000 A 
ATOM     13  C   UNL     1      -1.498  12.376  20.693  0.00  0.00    +0.000 A 
ATOM     14  C   UNL     1      -1.704  13.170  19.429  0.00  0.00    +0.000 C 
ATOM     15  C   UNL     1      -0.454  11.424  20.877  0.00  0.00    +0.000 A 
ATOM     16  C   UNL     1      -0.382  10.754  22.133  0.00  0.00    +0.000 A 
ATOM     17  C   UNL     1       0.649   9.712  22.509  0.00  0.00    +0.000 C 
ATOM     18  C   UNL     1      -1.350  11.003  23.129  0.00  0.00    +0.000 A 
ENDBRANCH   1  15
BRANCH   6  19
ATOM     19  C   UNL     1       3.228   6.315  18.456  0.00  0.00    +0.000 C 
ATOM     20  C   UNL     1       4.113   6.640  17.503  0.00  0.00    +0.000 C 
BRANCH  20  21
ATOM     21  C   UNL     1       4.990   5.688  16.907  0.00  0.00    +0.000 A 
ATOM     22  C   UNL     1       4.740   4.483  16.274  0.00  0.00    +0.000 A 
ATOM     23  C   UNL     1       5.924   3.837  15.807  0.00  0.00    +0.000 A 
ATOM     24  C   UNL     1       7.051   4.562  16.094  0.00  0.00    +0.000 A 
ATOM     25  S   UNL     1       6.689   6.005  16.926  0.00  0.00    +0.000 S 
ENDBRANCH  20  21
ENDBRANCH   6  19
TORSDOF 3
ENDMDL
MODEL 7
REMARK VINA RESULT:      -6.6      1.829      2.114
REMARK  Name = 
REMARK  6 active torsions:
REMARK  status: ('A' for Active; 'I' for Inactive)
REMARK    1  A    between atoms: C_1  and  C_2
REMARK    2  A    between atoms: C_4  and  C_5
REMARK    3  A    between atoms: C_6  and  C_7
REMARK    4  A    between atoms: C_12  and  C_14
REMARK    5  A    between atoms: C_15  and  C_16
REMARK    6  A    between atoms: C_22  and  C_23
REMARK                            x       y       z     vdW  Elec       q    Type
REMARK                         _______ _______ _______ _____ _____    ______ ____
ROOT
ATOM      1  C   UNL     1       3.512   5.881  18.340  0.00  0.00    +0.000 A 
ATOM      2  C   UNL     1       3.520   5.480  19.664  0.00  0.00    +0.000 A 
ATOM      3  S   UNL     1       2.414   6.422  20.592  0.00  0.00    +0.000 S 
ATOM      4  C   UNL     1       2.131   7.377  19.214  0.00  0.00    +0.000 A 
ATOM      5  N   UNL     1       1.420   8.522  19.435  0.00  0.00    +0.000 N 
ATOM      6  C   UNL     1       1.467   9.551  18.522  0.00  0.00    +0.000 C 
ATOM      7  O   UNL     1       2.091   9.581  17.468  0.00  0.00    +0.000 OA
ATOM      8  N   UNL     1       2.650   6.943  18.100  0.00  0.00    +0.000 NA
ATOM      9  H   UNL     1       1.031   8.648  20.356  0.00  0.00    +0.000 HD
ENDROOT
BRANCH   1  15
ATOM     10  C   UNL     1       6.621   3.932  13.806  0.00  0.00    +0.000 C 
ATOM     11  C   UNL     1       5.848   4.385  15.008  0.00  0.00    +0.000 A 
ATOM     12  C   UNL     1       4.791   3.638  15.519  0.00  0.00    +0.000 A 
ATOM     13  C   UNL     1       4.018   4.088  16.611  0.00  0.00    +0.000 A 
ATOM     14  C   UNL     1       2.884   3.189  17.030  0.00  0.00    +0.000 C 
ATOM     15  C   UNL     1       4.328   5.328  17.240  0.00  0.00    +0.000 A 
ATOM     16  C   UNL     1       5.438   6.068  16.736  0.00  0.00    +0.000 A 
ATOM     17  C   UNL     1       5.912   7.402  17.269  0.00  0.00    +0.000 C 
ATOM     18  C   UNL     1       6.161   5.594  15.621  0.00  0.00    +0.000 A 
ENDBRANCH   1  15
BRANCH   6  19
ATOM     19  C   UNL     1       0.700  10.746  18.974  0.00  0.00    +0.000 C 
ATOM     20  C   UNL     1      -0.269  10.565  19.883  0.00  0.00    +0.000 C 
BRANCH  20  21
ATOM     21  C   UNL     1      -1.071  11.633  20.379  0.00  0.00    +0.000 A 
ATOM     22  C   UNL     1      -1.940  12.500  19.738  0.00  0.00    +0.000 A 
ATOM     23  C   UNL     1      -2.558  13.431  20.624  0.00  0.00    +0.000 A 
ATOM     24  C   UNL     1      -2.150  13.256  21.921  0.00  0.00    +0.000 A 
ATOM     25  S   UNL     1      -1.023  11.985  22.070  0.00  0.00    +0.000 S 
ENDBRANCH  20  21
ENDBRANCH   6  19
TORSDOF 3
ENDMDL
MODEL 8
REMARK VINA RESULT:      -6.5      2.465      9.756
REMARK  Name = 
REMARK  6 active torsions:
REMARK  status: ('A' for Active; 'I' for Inactive)
REMARK    1  A    between atoms: C_1  and  C_2
REMARK    2  A    between atoms: C_4  and  C_5
REMARK    3  A    between atoms: C_6  and  C_7
REMARK    4  A    between atoms: C_12  and  C_14
REMARK    5  A    between atoms: C_15  and  C_16
REMARK    6  A    between atoms: C_22  and  C_23
REMARK                            x       y       z     vdW  Elec       q    Type
REMARK                         _______ _______ _______ _____ _____    ______ ____
ROOT
ATOM      1  C   UNL     1       0.373  11.066  19.851  0.00  0.00    +0.000 A 
ATOM      2  C   UNL     1       1.120  12.011  19.170  0.00  0.00    +0.000 A 
ATOM      3  S   UNL     1       2.171  11.252  18.033  0.00  0.00    +0.000 S 
ATOM      4  C   UNL     1       1.671   9.743  18.636  0.00  0.00    +0.000 A 
ATOM      5  N   UNL     1       2.401   8.673  18.204  0.00  0.00    +0.000 N 
ATOM      6  C   UNL     1       2.366   7.487  18.902  0.00  0.00    +0.000 C 
ATOM      7  O   UNL     1       1.725   7.240  19.917  0.00  0.00    +0.000 OA
ATOM      8  N   UNL     1       0.672   9.763  19.474  0.00  0.00    +0.000 NA
ATOM      9  H   UNL     1       3.089   8.848  17.489  0.00  0.00    +0.000 HD
ENDROOT
BRANCH   1  15
ATOM     10  C   UNL     1      -3.463  12.365  24.048  0.00  0.00    +0.000 C 
ATOM     11  C   UNL     1      -2.503  11.970  22.967  0.00  0.00    +0.000 A 
ATOM     12  C   UNL     1      -1.461  11.080  23.207  0.00  0.00    +0.000 A 
ATOM     13  C   UNL     1      -0.515  10.753  22.212  0.00  0.00    +0.000 A 
ATOM     14  C   UNL     1       0.579   9.803  22.629  0.00  0.00    +0.000 C 
ATOM     15  C   UNL     1      -0.626  11.318  20.910  0.00  0.00    +0.000 A 
ATOM     16  C   UNL     1      -1.720  12.198  20.660  0.00  0.00    +0.000 A 
ATOM     17  C   UNL     1      -1.998  12.894  19.347  0.00  0.00    +0.000 C 
ATOM     18  C   UNL     1      -2.622  12.521  21.695  0.00  0.00    +0.000 A 
ENDBRANCH   1  15
BRANCH   6  19
ATOM     19  C   UNL     1       3.289   6.466  18.332  0.00  0.00    +0.000 C 
ATOM     20  C   UNL     1       3.953   6.776  17.208  0.00  0.00    +0.000 C 
BRANCH  20  21
ATOM     21  C   UNL     1       4.853   5.874  16.570  0.00  0.00    +0.000 A 
ATOM     22  C   UNL     1       5.433   5.895  15.313  0.00  0.00    +0.000 A 
ATOM     23  C   UNL     1       6.295   4.784  15.074  0.00  0.00    +0.000 A 
ATOM     24  C   UNL     1       6.356   3.940  16.152  0.00  0.00    +0.000 A 
ATOM     25  S   UNL     1       5.375   4.475  17.439  0.00  0.00    +0.000 S 
ENDBRANCH  20  21
ENDBRANCH   6  19
TORSDOF 3
ENDMDL
MODEL 9
REMARK VINA RESULT:      -6.5      2.410      3.589
REMARK  Name = 
REMARK  6 active torsions:
REMARK  status: ('A' for Active; 'I' for Inactive)
REMARK    1  A    between atoms: C_1  and  C_2
REMARK    2  A    between atoms: C_4  and  C_5
REMARK    3  A    between atoms: C_6  and  C_7
REMARK    4  A    between atoms: C_12  and  C_14
REMARK    5  A    between atoms: C_15  and  C_16
REMARK    6  A    between atoms: C_22  and  C_23
REMARK                            x       y       z     vdW  Elec       q    Type
REMARK                         _______ _______ _______ _____ _____    ______ ____
ROOT
ATOM      1  C   UNL     1       2.245   7.261  18.768  0.00  0.00    +0.000 A 
ATOM      2  C   UNL     1       2.091   8.149  17.719  0.00  0.00    +0.000 A 
ATOM      3  S   UNL     1       1.583   9.692  18.298  0.00  0.00    +0.000 S 
ATOM      4  C   UNL     1       1.459   9.023  19.856  0.00  0.00    +0.000 A 
ATOM      5  N   UNL     1       0.840   9.814  20.782  0.00  0.00    +0.000 N 
ATOM      6  C   UNL     1       0.327   9.259  21.931  0.00  0.00    +0.000 C 
ATOM      7  O   UNL     1       0.359   8.081  22.267  0.00  0.00    +0.000 OA
ATOM      8  N   UNL     1       1.930   7.816  20.001  0.00  0.00    +0.000 NA
ATOM      9  H   UNL     1       0.614  10.755  20.500  0.00  0.00    +0.000 HD
ENDROOT
BRANCH   1  15
ATOM     10  C   UNL     1       3.748   1.663  18.114  0.00  0.00    +0.000 C 
ATOM     11  C   UNL     1       3.387   3.100  18.343  0.00  0.00    +0.000 A 
ATOM     12  C   UNL     1       2.376   3.466  19.225  0.00  0.00    +0.000 A 
ATOM     13  C   UNL     1       1.988   4.812  19.399  0.00  0.00    +0.000 A 
ATOM     14  C   UNL     1       0.853   5.051  20.361  0.00  0.00    +0.000 C 
ATOM     15  C   UNL     1       2.655   5.844  18.679  0.00  0.00    +0.000 A 
ATOM     16  C   UNL     1       3.717   5.464  17.807  0.00  0.00    +0.000 A 
ATOM     17  C   UNL     1       4.534   6.415  16.961  0.00  0.00    +0.000 C 
ATOM     18  C   UNL     1       4.048   4.103  17.641  0.00  0.00    +0.000 A 
ENDBRANCH   1  15
BRANCH   6  19
ATOM     19  C   UNL     1      -0.385  10.259  22.776  0.00  0.00    +0.000 C 
ATOM     20  C   UNL     1      -1.119  11.196  22.158  0.00  0.00    +0.000 C 
BRANCH  20  21
ATOM     21  C   UNL     1      -1.834  12.207  22.864  0.00  0.00    +0.000 A 
ATOM     22  C   UNL     1      -3.083  12.198  23.460  0.00  0.00    +0.000 A 
ATOM     23  C   UNL     1      -3.419  13.439  24.077  0.00  0.00    +0.000 A 
ATOM     24  C   UNL     1      -2.420  14.367  23.941  0.00  0.00    +0.000 A 
ATOM     25  S   UNL     1      -1.091  13.753  23.068  0.00  0.00    +0.000 S 
ENDBRANCH  20  21
ENDBRANCH   6  19
TORSDOF 3
ENDMDL
