MODEL 1
REMARK VINA RESULT:      -8.2      0.000      0.000
REMARK  Name = 
REMARK  11 active torsions:
REMARK  status: ('A' for Active; 'I' for Inactive)
REMARK    1  A    between atoms: N_1  and  C_2
REMARK    2  A    between atoms: N_10  and  C_11
REMARK    3  A    between atoms: C_13  and  C_14
REMARK    4  A    between atoms: C_14  and  S_15
REMARK    5  A    between atoms: S_15  and  C_16
REMARK    6  A    between atoms: C_16  and  C_17
REMARK    7  A    between atoms: C_17  and  C_18
REMARK    8  A    between atoms: C_18  and  N_19
REMARK    9  A    between atoms: C_18  and  C_20
REMARK   10  A    between atoms: C_27  and  O_28
REMARK   11  A    between atoms: C_29  and  O_30
REMARK                            x       y       z     vdW  Elec       q    Type
REMARK                         _______ _______ _______ _____ _____    ______ ____
ROOT
ATOM      1  C   UNL     1       4.486   3.483  17.535  0.00  0.00    +0.000 C 
ATOM      2  O   UNL     1       3.160   3.537  16.934  0.00  0.00    +0.000 OA
ATOM      3  C   UNL     1       2.186   2.930  17.818  0.00  0.00    +0.000 C 
ATOM      4  C   UNL     1       3.020   2.245  18.896  0.00  0.00    +0.000 C 
ATOM      5  C   UNL     1       4.254   3.136  19.007  0.00  0.00    +0.000 C 
ENDROOT
BRANCH   1  14
ATOM      6  C   UNL     1       7.490   7.315  17.765  0.00  0.00    +0.000 A 
ATOM      7  N   UNL     1       8.231   6.855  18.789  0.00  0.00    +0.000 NA
ATOM      8  C   UNL     1       7.967   5.621  19.266  0.00  0.00    +0.000 A 
ATOM      9  N   UNL     1       6.984   4.758  18.900  0.00  0.00    +0.000 NA
ATOM     10  C   UNL     1       6.269   5.263  17.884  0.00  0.00    +0.000 A 
ATOM     11  C   UNL     1       6.492   6.471  17.235  0.00  0.00    +0.000 A 
ATOM     12  N   UNL     1       5.642   6.602  16.173  0.00  0.00    +0.000 NA
ATOM     13  C   UNL     1       4.784   5.613  16.296  0.00  0.00    +0.000 A 
ATOM     14  N   UNL     1       5.148   4.744  17.281  0.00  0.00    +0.000 N 
BRANCH   6  15
ATOM     15  N   UNL     1       7.718   8.612  17.351  0.00  0.00    +0.000 N 
ATOM     16  H   UNL     1       6.992   9.292  17.505  0.00  0.00    +0.000 HD
ATOM     17  H   UNL     1       8.598   8.875  16.937  0.00  0.00    +0.000 HD
ENDBRANCH   6  15
ENDBRANCH   1  14
BRANCH   4  18
ATOM     18  O   UNL     1       3.455   0.944  18.450  0.00  0.00    +0.000 OA
ATOM     19  H   UNL     1       4.320   0.744  18.856  0.00  0.00    +0.000 HD
ENDBRANCH   4  18
BRANCH   5  20
ATOM     20  O   UNL     1       5.329   2.430  19.614  0.00  0.00    +0.000 OA
ATOM     21  H   UNL     1       6.126   2.622  19.076  0.00  0.00    +0.000 HD
ENDBRANCH   5  20
BRANCH   3  22
ATOM     22  C   UNL     1       1.199   3.961  18.404  0.00  0.00    +0.000 C 
BRANCH  22  23
ATOM     23  S   UNL     1       0.998   3.734  20.211  0.00  0.00    +0.000 S 
BRANCH  23  24
ATOM     24  C   UNL     1       1.752   5.277  20.846  0.00  0.00    +0.000 C 
BRANCH  24  25
ATOM     25  C   UNL     1       1.080   6.579  20.413  0.00  0.00    +0.000 C 
BRANCH  25  26
ATOM     26  C   UNL     1       2.021   7.724  19.993  0.00  0.00    +0.000 C 
BRANCH  26  27
ATOM     27  C   UNL     1       1.222   9.054  19.938  0.00  0.00    +0.000 C 
ATOM     28  O   UNL     1       0.951   9.581  18.855  0.00  0.00    +0.000 OA
ATOM     29  N   UNL     1       0.808   9.624  21.122  0.00  0.00    +0.000 N 
ATOM     30  C   UNL     1       1.032   9.143  22.468  0.00  0.00    +0.000 C 
ATOM     31  C   UNL     1      -0.234   9.597  23.178  0.00  0.00    +0.000 C 
ATOM     32  C   UNL     1      -0.528  10.949  22.591  0.00  0.00    +0.000 C 
ATOM     33  C   UNL     1      -0.067  10.788  21.141  0.00  0.00    +0.000 C 
ENDBRANCH  26  27
BRANCH  26  34
ATOM     34  N   UNL     1       2.639   7.483  18.670  0.00  0.00    +0.000 NA
ATOM     35  H   UNL     1       3.318   8.221  18.494  0.00  0.00    +0.000 HD
ATOM     36  H   UNL     1       1.924   7.561  17.949  0.00  0.00    +0.000 HD
ENDBRANCH  26  34
ENDBRANCH  25  26
ENDBRANCH  24  25
ENDBRANCH  23  24
ENDBRANCH  22  23
ENDBRANCH   3  22
TORSDOF 11
ENDMDL
MODEL 2
REMARK VINA RESULT:      -7.5      4.891      7.625
REMARK  Name = 
REMARK  11 active torsions:
REMARK  status: ('A' for Active; 'I' for Inactive)
REMARK    1  A    between atoms: N_1  and  C_2
REMARK    2  A    between atoms: N_10  and  C_11
REMARK    3  A    between atoms: C_13  and  C_14
REMARK    4  A    between atoms: C_14  and  S_15
REMARK    5  A    between atoms: S_15  and  C_16
REMARK    6  A    between atoms: C_16  and  C_17
REMARK    7  A    between atoms: C_17  and  C_18
REMARK    8  A    between atoms: C_18  and  N_19
REMARK    9  A    between atoms: C_18  and  C_20
REMARK   10  A    between atoms: C_27  and  O_28
REMARK   11  A    between atoms: C_29  and  O_30
REMARK                            x       y       z     vdW  Elec       q    Type
REMARK                         _______ _______ _______ _____ _____    ______ ____
ROOT
ATOM      1  C   UNL     1       5.655   4.770  17.467  0.00  0.00    +0.000 C 
ATOM      2  O   UNL     1       6.860   4.815  18.285  0.00  0.00    +0.000 OA
ATOM      3  C   UNL     1       7.784   5.799  17.759  0.00  0.00    +0.000 C 
ATOM      4  C   UNL     1       7.206   6.181  16.401  0.00  0.00    +0.000 C 
ATOM      5  C   UNL     1       5.701   6.031  16.603  0.00  0.00    +0.000 C 
ENDROOT
BRANCH   1  14
ATOM      6  C   UNL     1       1.719   3.117  19.820  0.00  0.00    +0.000 A 
ATOM      7  N   UNL     1       1.691   1.912  19.222  0.00  0.00    +0.000 NA
ATOM      8  C   UNL     1       2.682   1.601  18.362  0.00  0.00    +0.000 A 
ATOM      9  N   UNL     1       3.716   2.373  17.939  0.00  0.00    +0.000 NA
ATOM     10  C   UNL     1       3.698   3.563  18.554  0.00  0.00    +0.000 A 
ATOM     11  C   UNL     1       2.798   3.978  19.529  0.00  0.00    +0.000 A 
ATOM     12  N   UNL     1       3.156   5.205  20.014  0.00  0.00    +0.000 NA
ATOM     13  C   UNL     1       4.113   5.624  19.215  0.00  0.00    +0.000 A 
ATOM     14  N   UNL     1       4.516   4.650  18.350  0.00  0.00    +0.000 N 
BRANCH   6  15
ATOM     15  N   UNL     1       0.650   3.449  20.627  0.00  0.00    +0.000 N 
ATOM     16  H   UNL     1       0.181   2.709  21.120  0.00  0.00    +0.000 HD
ATOM     17  H   UNL     1       0.370   4.410  20.744  0.00  0.00    +0.000 HD
ENDBRANCH   6  15
ENDBRANCH   1  14
BRANCH   4  18
ATOM     18  O   UNL     1       7.611   5.233  15.392  0.00  0.00    +0.000 OA
ATOM     19  H   UNL     1       8.586   5.170  15.390  0.00  0.00    +0.000 HD
ENDBRANCH   4  18
BRANCH   5  20
ATOM     20  O   UNL     1       5.037   5.901  15.351  0.00  0.00    +0.000 OA
ATOM     21  H   UNL     1       5.411   5.105  14.920  0.00  0.00    +0.000 HD
ENDBRANCH   5  20
BRANCH   3  22
ATOM     22  C   UNL     1       7.943   7.017  18.694  0.00  0.00    +0.000 C 
BRANCH  22  23
ATOM     23  S   UNL     1       7.864   8.588  17.755  0.00  0.00    +0.000 S 
BRANCH  23  24
ATOM     24  C   UNL     1       8.981   9.647  18.747  0.00  0.00    +0.000 C 
BRANCH  24  25
ATOM     25  C   UNL     1       9.429  10.951  18.089  0.00  0.00    +0.000 C 
BRANCH  25  26
ATOM     26  C   UNL     1      10.745  11.559  18.609  0.00  0.00    +0.000 C 
BRANCH  26  27
ATOM     27  C   UNL     1      10.488  13.014  19.085  0.00  0.00    +0.000 C 
ATOM     28  O   UNL     1      10.575  13.960  18.295  0.00  0.00    +0.000 OA
ATOM     29  N   UNL     1      10.144  13.227  20.403  0.00  0.00    +0.000 N 
ATOM     30  C   UNL     1       9.994  12.243  21.453  0.00  0.00    +0.000 C 
ATOM     31  C   UNL     1       8.887  12.854  22.298  0.00  0.00    +0.000 C 
ATOM     32  C   UNL     1       9.178  14.329  22.286  0.00  0.00    +0.000 C 
ATOM     33  C   UNL     1       9.747  14.543  20.882  0.00  0.00    +0.000 C 
ENDBRANCH  26  27
BRANCH  26  34
ATOM     34  N   UNL     1      11.802  11.575  17.573  0.00  0.00    +0.000 NA
ATOM     35  H   UNL     1      11.401  11.943  16.713  0.00  0.00    +0.000 HD
ATOM     36  H   UNL     1      12.094  10.619  17.379  0.00  0.00    +0.000 HD
ENDBRANCH  26  34
ENDBRANCH  25  26
ENDBRANCH  24  25
ENDBRANCH  23  24
ENDBRANCH  22  23
ENDBRANCH   3  22
TORSDOF 11
ENDMDL
MODEL 3
REMARK VINA RESULT:      -7.4      1.720      2.545
REMARK  Name = 
REMARK  11 active torsions:
REMARK  status: ('A' for Active; 'I' for Inactive)
REMARK    1  A    between atoms: N_1  and  C_2
REMARK    2  A    between atoms: N_10  and  C_11
REMARK    3  A    between atoms: C_13  and  C_14
REMARK    4  A    between atoms: C_14  and  S_15
REMARK    5  A    between atoms: S_15  and  C_16
REMARK    6  A    between atoms: C_16  and  C_17
REMARK    7  A    between atoms: C_17  and  C_18
REMARK    8  A    between atoms: C_18  and  N_19
REMARK    9  A    between atoms: C_18  and  C_20
REMARK   10  A    between atoms: C_27  and  O_28
REMARK   11  A    between atoms: C_29  and  O_30
REMARK                            x       y       z     vdW  Elec       q    Type
REMARK                         _______ _______ _______ _____ _____    ______ ____
ROOT
ATOM      1  C   UNL     1       3.758   3.865  18.196  0.00  0.00    +0.000 C 
ATOM      2  O   UNL     1       2.410   4.390  18.366  0.00  0.00    +0.000 OA
ATOM      3  C   UNL     1       1.797   3.818  19.547  0.00  0.00    +0.000 C 
ATOM      4  C   UNL     1       2.740   2.694  19.964  0.00  0.00    +0.000 C 
ATOM      5  C   UNL     1       4.111   3.204  19.530  0.00  0.00    +0.000 C 
ENDROOT
BRANCH   1  14
ATOM      6  C   UNL     1       7.415   7.073  17.886  0.00  0.00    +0.000 A 
ATOM      7  N   UNL     1       8.134   6.570  18.906  0.00  0.00    +0.000 NA
ATOM      8  C   UNL     1       7.686   5.452  19.514  0.00  0.00    +0.000 A 
ATOM      9  N   UNL     1       6.539   4.760  19.288  0.00  0.00    +0.000 NA
ATOM     10  C   UNL     1       5.855   5.302  18.271  0.00  0.00    +0.000 A 
ATOM     11  C   UNL     1       6.245   6.389  17.497  0.00  0.00    +0.000 A 
ATOM     12  N   UNL     1       5.356   6.587  16.477  0.00  0.00    +0.000 NA
ATOM     13  C   UNL     1       4.345   5.790  16.743  0.00  0.00    +0.000 A 
ATOM     14  N   UNL     1       4.617   4.954  17.784  0.00  0.00    +0.000 N 
BRANCH   6  15
ATOM     15  N   UNL     1       7.843   8.265  17.337  0.00  0.00    +0.000 N 
ATOM     16  H   UNL     1       7.633   8.443  16.369  0.00  0.00    +0.000 HD
ATOM     17  H   UNL     1       8.323   8.950  17.899  0.00  0.00    +0.000 HD
ENDBRANCH   6  15
ENDBRANCH   1  14
BRANCH   4  18
ATOM     18  O   UNL     1       2.459   1.493  19.214  0.00  0.00    +0.000 OA
ATOM     19  H   UNL     1       1.830   1.707  18.499  0.00  0.00    +0.000 HD
ENDBRANCH   4  18
BRANCH   5  20
ATOM     20  O   UNL     1       5.034   2.128  19.418  0.00  0.00    +0.000 OA
ATOM     21  H   UNL     1       5.881   2.519  19.119  0.00  0.00    +0.000 HD
ENDBRANCH   5  20
BRANCH   3  22
ATOM     22  C   UNL     1       1.593   4.859  20.668  0.00  0.00    +0.000 C 
BRANCH  22  23
ATOM     23  S   UNL     1       2.098   6.533  20.119  0.00  0.00    +0.000 S 
BRANCH  23  24
ATOM     24  C   UNL     1       0.799   7.564  20.894  0.00  0.00    +0.000 C 
BRANCH  24  25
ATOM     25  C   UNL     1       1.252   8.920  21.434  0.00  0.00    +0.000 C 
BRANCH  25  26
ATOM     26  C   UNL     1       0.140   9.851  21.954  0.00  0.00    +0.000 C 
BRANCH  26  27
ATOM     27  C   UNL     1       0.250  11.230  21.249  0.00  0.00    +0.000 C 
ATOM     28  O   UNL     1       0.997  12.107  21.694  0.00  0.00    +0.000 OA
ATOM     29  N   UNL     1      -0.489  11.448  20.106  0.00  0.00    +0.000 N 
ATOM     30  C   UNL     1      -1.401  10.538  19.450  0.00  0.00    +0.000 C 
ATOM     31  C   UNL     1      -1.227  10.918  17.988  0.00  0.00    +0.000 C 
ATOM     32  C   UNL     1      -1.082  12.414  18.006  0.00  0.00    +0.000 C 
ATOM     33  C   UNL     1      -0.324  12.658  19.313  0.00  0.00    +0.000 C 
ENDBRANCH  26  27
BRANCH  26  34
ATOM     34  N   UNL     1       0.221  10.056  23.418  0.00  0.00    +0.000 NA
ATOM     35  H   UNL     1      -0.598  10.583  23.713  0.00  0.00    +0.000 HD
ATOM     36  H   UNL     1       1.035  10.630  23.630  0.00  0.00    +0.000 HD
ENDBRANCH  26  34
ENDBRANCH  25  26
ENDBRANCH  24  25
ENDBRANCH  23  24
ENDBRANCH  22  23
ENDBRANCH   3  22
TORSDOF 11
ENDMDL
MODEL 4
REMARK VINA RESULT:      -7.4      2.466      3.538
REMARK  Name = 
REMARK  11 active torsions:
REMARK  status: ('A' for Active; 'I' for Inactive)
REMARK    1  A    between atoms: N_1  and  C_2
REMARK    2  A    between atoms: N_10  and  C_11
REMARK    3  A    between atoms: C_13  and  C_14
REMARK    4  A    between atoms: C_14  and  S_15
REMARK    5  A    between atoms: S_15  and  C_16
REMARK    6  A    between atoms: C_16  and  C_17
REMARK    7  A    between atoms: C_17  and  C_18
REMARK    8  A    between atoms: C_18  and  N_19
REMARK    9  A    between atoms: C_18  and  C_20
REMARK   10  A    between atoms: C_27  and  O_28
REMARK   11  A    between atoms: C_29  and  O_30
REMARK                            x       y       z     vdW  Elec       q    Type
REMARK                         _______ _______ _______ _____ _____    ______ ____
ROOT
ATOM      1  C   UNL     1       4.610   3.855  17.273  0.00  0.00    +0.000 C 
ATOM      2  O   UNL     1       3.354   4.512  16.935  0.00  0.00    +0.000 OA
ATOM      3  C   UNL     1       2.556   4.706  18.127  0.00  0.00    +0.000 C 
ATOM      4  C   UNL     1       3.264   3.887  19.202  0.00  0.00    +0.000 C 
ATOM      5  C   UNL     1       4.732   3.964  18.794  0.00  0.00    +0.000 C 
ENDROOT
BRANCH   1  14
ATOM      6  C   UNL     1       7.639   5.159  13.683  0.00  0.00    +0.000 A 
ATOM      7  N   UNL     1       7.070   4.396  12.732  0.00  0.00    +0.000 NA
ATOM      8  C   UNL     1       5.959   3.700  13.049  0.00  0.00    +0.000 A 
ATOM      9  N   UNL     1       5.332   3.597  14.250  0.00  0.00    +0.000 NA
ATOM     10  C   UNL     1       5.938   4.366  15.165  0.00  0.00    +0.000 A 
ATOM     11  C   UNL     1       7.025   5.204  14.953  0.00  0.00    +0.000 A 
ATOM     12  N   UNL     1       7.298   5.923  16.083  0.00  0.00    +0.000 NA
ATOM     13  C   UNL     1       6.545   5.389  17.019  0.00  0.00    +0.000 A 
ATOM     14  N   UNL     1       5.666   4.481  16.508  0.00  0.00    +0.000 N 
BRANCH   6  15
ATOM     15  N   UNL     1       8.823   5.791  13.364  0.00  0.00    +0.000 N 
ATOM     16  H   UNL     1       9.155   6.514  13.980  0.00  0.00    +0.000 HD
ATOM     17  H   UNL     1       9.356   5.512  12.555  0.00  0.00    +0.000 HD
ENDBRANCH   6  15
ENDBRANCH   1  14
BRANCH   4  18
ATOM     18  O   UNL     1       2.860   2.503  19.133  0.00  0.00    +0.000 OA
ATOM     19  H   UNL     1       3.648   1.938  19.248  0.00  0.00    +0.000 HD
ENDBRANCH   4  18
BRANCH   5  20
ATOM     20  O   UNL     1       5.476   2.911  19.394  0.00  0.00    +0.000 OA
ATOM     21  H   UNL     1       4.878   2.135  19.432  0.00  0.00    +0.000 HD
ENDBRANCH   5  20
BRANCH   3  22
ATOM     22  C   UNL     1       2.424   6.194  18.514  0.00  0.00    +0.000 C 
BRANCH  22  23
ATOM     23  S   UNL     1       1.947   6.383  20.273  0.00  0.00    +0.000 S 
BRANCH  23  24
ATOM     24  C   UNL     1       1.598   8.178  20.352  0.00  0.00    +0.000 C 
BRANCH  24  25
ATOM     25  C   UNL     1       1.253   8.734  21.733  0.00  0.00    +0.000 C 
BRANCH  25  26
ATOM     26  C   UNL     1      -0.150   9.352  21.886  0.00  0.00    +0.000 C 
BRANCH  26  27
ATOM     27  C   UNL     1      -0.124  10.819  21.379  0.00  0.00    +0.000 C 
ATOM     28  O   UNL     1       0.453  11.699  22.026  0.00  0.00    +0.000 OA
ATOM     29  N   UNL     1      -0.744  11.116  20.185  0.00  0.00    +0.000 N 
ATOM     30  C   UNL     1      -1.456  10.216  19.304  0.00  0.00    +0.000 C 
ATOM     31  C   UNL     1      -1.157  10.813  17.938  0.00  0.00    +0.000 C 
ATOM     32  C   UNL     1      -1.197  12.299  18.162  0.00  0.00    +0.000 C 
ATOM     33  C   UNL     1      -0.635  12.436  19.578  0.00  0.00    +0.000 C 
ENDBRANCH  26  27
BRANCH  26  34
ATOM     34  N   UNL     1      -0.617   9.340  23.291  0.00  0.00    +0.000 NA
ATOM     35  H   UNL     1       0.038   9.883  23.850  0.00  0.00    +0.000 HD
ATOM     36  H   UNL     1      -0.588   8.386  23.644  0.00  0.00    +0.000 HD
ENDBRANCH  26  34
ENDBRANCH  25  26
ENDBRANCH  24  25
ENDBRANCH  23  24
ENDBRANCH  22  23
ENDBRANCH   3  22
TORSDOF 11
ENDMDL
MODEL 5
REMARK VINA RESULT:      -7.4      2.244      6.175
REMARK  Name = 
REMARK  11 active torsions:
REMARK  status: ('A' for Active; 'I' for Inactive)
REMARK    1  A    between atoms: N_1  and  C_2
REMARK    2  A    between atoms: N_10  and  C_11
REMARK    3  A    between atoms: C_13  and  C_14
REMARK    4  A    between atoms: C_14  and  S_15
REMARK    5  A    between atoms: S_15  and  C_16
REMARK    6  A    between atoms: C_16  and  C_17
REMARK    7  A    between atoms: C_17  and  C_18
REMARK    8  A    between atoms: C_18  and  N_19
REMARK    9  A    between atoms: C_18  and  C_20
REMARK   10  A    between atoms: C_27  and  O_28
REMARK   11  A    between atoms: C_29  and  O_30
REMARK                            x       y       z     vdW  Elec       q    Type
REMARK                         _______ _______ _______ _____ _____    ______ ____
ROOT
ATOM      1  C   UNL     1       2.172   5.129  20.515  0.00  0.00    +0.000 C 
ATOM      2  O   UNL     1       3.570   4.762  20.704  0.00  0.00    +0.000 OA
ATOM      3  C   UNL     1       3.732   3.329  20.573  0.00  0.00    +0.000 C 
ATOM      4  C   UNL     1       2.308   2.781  20.558  0.00  0.00    +0.000 C 
ATOM      5  C   UNL     1       1.507   3.898  19.897  0.00  0.00    +0.000 C 
ENDROOT
BRANCH   1  14
ATOM      6  C   UNL     1       1.417   9.700  18.999  0.00  0.00    +0.000 A 
ATOM      7  N   UNL     1       0.878  10.144  20.149  0.00  0.00    +0.000 NA
ATOM      8  C   UNL     1       0.825   9.300  21.200  0.00  0.00    +0.000 A 
ATOM      9  N   UNL     1       1.191   7.993  21.262  0.00  0.00    +0.000 NA
ATOM     10  C   UNL     1       1.714   7.595  20.094  0.00  0.00    +0.000 A 
ATOM     11  C   UNL     1       1.917   8.381  18.967  0.00  0.00    +0.000 A 
ATOM     12  N   UNL     1       2.579   7.669  18.006  0.00  0.00    +0.000 NA
ATOM     13  C   UNL     1       2.589   6.429  18.442  0.00  0.00    +0.000 A 
ATOM     14  N   UNL     1       2.127   6.337  19.722  0.00  0.00    +0.000 N 
BRANCH   6  15
ATOM     15  N   UNL     1       1.380  10.549  17.913  0.00  0.00    +0.000 N 
ATOM     16  H   UNL     1       1.790  10.232  17.050  0.00  0.00    +0.000 HD
ATOM     17  H   UNL     1       0.927  11.447  17.973  0.00  0.00    +0.000 HD
ENDBRANCH   6  15
ENDBRANCH   1  14
BRANCH   4  18
ATOM     18  O   UNL     1       1.813   2.621  21.904  0.00  0.00    +0.000 OA
ATOM     19  H   UNL     1       1.876   3.477  22.369  0.00  0.00    +0.000 HD
ENDBRANCH   4  18
BRANCH   5  20
ATOM     20  O   UNL     1       0.123   3.772  20.202  0.00  0.00    +0.000 OA
ATOM     21  H   UNL     1      -0.259   3.181  19.521  0.00  0.00    +0.000 HD
ENDBRANCH   5  20
BRANCH   3  22
ATOM     22  C   UNL     1       4.524   2.939  19.307  0.00  0.00    +0.000 C 
BRANCH  22  23
ATOM     23  S   UNL     1       3.578   1.765  18.267  0.00  0.00    +0.000 S 
BRANCH  23  24
ATOM     24  C   UNL     1       3.293   2.775  16.767  0.00  0.00    +0.000 C 
BRANCH  24  25
ATOM     25  C   UNL     1       3.946   4.156  16.754  0.00  0.00    +0.000 C 
BRANCH  25  26
ATOM     26  C   UNL     1       5.303   4.261  16.033  0.00  0.00    +0.000 C 
BRANCH  26  27
ATOM     27  C   UNL     1       5.856   5.704  16.184  0.00  0.00    +0.000 C 
ATOM     28  O   UNL     1       5.396   6.629  15.508  0.00  0.00    +0.000 OA
ATOM     29  N   UNL     1       6.860   5.933  17.100  0.00  0.00    +0.000 N 
ATOM     30  C   UNL     1       7.506   4.975  17.970  0.00  0.00    +0.000 C 
ATOM     31  C   UNL     1       7.811   5.822  19.197  0.00  0.00    +0.000 C 
ATOM     32  C   UNL     1       8.214   7.157  18.637  0.00  0.00    +0.000 C 
ATOM     33  C   UNL     1       7.323   7.281  17.399  0.00  0.00    +0.000 C 
ENDBRANCH  26  27
BRANCH  26  34
ATOM     34  N   UNL     1       5.197   3.939  14.592  0.00  0.00    +0.000 NA
ATOM     35  H   UNL     1       6.055   3.473  14.304  0.00  0.00    +0.000 HD
ATOM     36  H   UNL     1       5.138   4.805  14.060  0.00  0.00    +0.000 HD
ENDBRANCH  26  34
ENDBRANCH  25  26
ENDBRANCH  24  25
ENDBRANCH  23  24
ENDBRANCH  22  23
ENDBRANCH   3  22
TORSDOF 11
ENDMDL
MODEL 6
REMARK VINA RESULT:      -7.2      2.202      2.846
REMARK  Name = 
REMARK  11 active torsions:
REMARK  status: ('A' for Active; 'I' for Inactive)
REMARK    1  A    between atoms: N_1  and  C_2
REMARK    2  A    between atoms: N_10  and  C_11
REMARK    3  A    between atoms: C_13  and  C_14
REMARK    4  A    between atoms: C_14  and  S_15
REMARK    5  A    between atoms: S_15  and  C_16
REMARK    6  A    between atoms: C_16  and  C_17
REMARK    7  A    between atoms: C_17  and  C_18
REMARK    8  A    between atoms: C_18  and  N_19
REMARK    9  A    between atoms: C_18  and  C_20
REMARK   10  A    between atoms: C_27  and  O_28
REMARK   11  A    between atoms: C_29  and  O_30
REMARK                            x       y       z     vdW  Elec       q    Type
REMARK                         _______ _______ _______ _____ _____    ______ ____
ROOT
ATOM      1  C   UNL     1       3.806   4.179  18.187  0.00  0.00    +0.000 C 
ATOM      2  O   UNL     1       2.501   4.783  18.418  0.00  0.00    +0.000 OA
ATOM      3  C   UNL     1       1.903   4.234  19.618  0.00  0.00    +0.000 C 
ATOM      4  C   UNL     1       2.790   3.049  19.982  0.00  0.00    +0.000 C 
ATOM      5  C   UNL     1       4.171   3.479  19.497  0.00  0.00    +0.000 C 
ENDROOT
BRANCH   1  14
ATOM      6  C   UNL     1       7.580   7.245  17.839  0.00  0.00    +0.000 A 
ATOM      7  N   UNL     1       8.252   6.764  18.900  0.00  0.00    +0.000 NA
ATOM      8  C   UNL     1       7.750   5.691  19.545  0.00  0.00    +0.000 A 
ATOM      9  N   UNL     1       6.586   5.028  19.317  0.00  0.00    +0.000 NA
ATOM     10  C   UNL     1       5.949   5.547  18.257  0.00  0.00    +0.000 A 
ATOM     11  C   UNL     1       6.397   6.583  17.447  0.00  0.00    +0.000 A 
ATOM     12  N   UNL     1       5.545   6.764  16.394  0.00  0.00    +0.000 NA
ATOM     13  C   UNL     1       4.499   6.015  16.666  0.00  0.00    +0.000 A 
ATOM     14  N   UNL     1       4.713   5.218  17.752  0.00  0.00    +0.000 N 
BRANCH   6  15
ATOM     15  N   UNL     1       8.064   8.394  17.250  0.00  0.00    +0.000 N 
ATOM     16  H   UNL     1       7.405   9.012  16.804  0.00  0.00    +0.000 HD
ATOM     17  H   UNL     1       9.044   8.625  17.294  0.00  0.00    +0.000 HD
ENDBRANCH   6  15
ENDBRANCH   1  14
BRANCH   4  18
ATOM     18  O   UNL     1       2.405   1.878  19.231  0.00  0.00    +0.000 OA
ATOM     19  H   UNL     1       1.476   1.975  18.948  0.00  0.00    +0.000 HD
ENDBRANCH   4  18
BRANCH   5  20
ATOM     20  O   UNL     1       5.021   2.350  19.335  0.00  0.00    +0.000 OA
ATOM     21  H   UNL     1       5.413   2.169  20.215  0.00  0.00    +0.000 HD
ENDBRANCH   5  20
BRANCH   3  22
ATOM     22  C   UNL     1       1.809   5.271  20.757  0.00  0.00    +0.000 C 
BRANCH  22  23
ATOM     23  S   UNL     1       2.071   6.972  20.130  0.00  0.00    +0.000 S 
BRANCH  23  24
ATOM     24  C   UNL     1       0.877   7.911  21.152  0.00  0.00    +0.000 C 
BRANCH  24  25
ATOM     25  C   UNL     1       1.186   9.394  21.352  0.00  0.00    +0.000 C 
BRANCH  25  26
ATOM     26  C   UNL     1       0.818  10.329  20.185  0.00  0.00    +0.000 C 
BRANCH  26  27
ATOM     27  C   UNL     1       0.874  11.804  20.669  0.00  0.00    +0.000 C 
ATOM     28  O   UNL     1       0.487  12.110  21.801  0.00  0.00    +0.000 OA
ATOM     29  N   UNL     1       1.380  12.760  19.815  0.00  0.00    +0.000 N 
ATOM     30  C   UNL     1       1.877  12.577  18.469  0.00  0.00    +0.000 C 
ATOM     31  C   UNL     1       2.973  13.629  18.394  0.00  0.00    +0.000 C 
ATOM     32  C   UNL     1       2.416  14.804  19.148  0.00  0.00    +0.000 C 
ATOM     33  C   UNL     1       1.599  14.132  20.253  0.00  0.00    +0.000 C 
ENDBRANCH  26  27
BRANCH  26  34
ATOM     34  N   UNL     1      -0.535  10.053  19.652  0.00  0.00    +0.000 NA
ATOM     35  H   UNL     1      -0.748   9.071  19.814  0.00  0.00    +0.000 HD
ATOM     36  H   UNL     1      -0.531  10.193  18.643  0.00  0.00    +0.000 HD
ENDBRANCH  26  34
ENDBRANCH  25  26
ENDBRANCH  24  25
ENDBRANCH  23  24
ENDBRANCH  22  23
ENDBRANCH   3  22
TORSDOF 11
ENDMDL
MODEL 7
REMARK VINA RESULT:      -7.2      2.677      3.553
REMARK  Name = 
REMARK  11 active torsions:
REMARK  status: ('A' for Active; 'I' for Inactive)
REMARK    1  A    between atoms: N_1  and  C_2
REMARK    2  A    between atoms: N_10  and  C_11
REMARK    3  A    between atoms: C_13  and  C_14
REMARK    4  A    between atoms: C_14  and  S_15
REMARK    5  A    between atoms: S_15  and  C_16
REMARK    6  A    between atoms: C_16  and  C_17
REMARK    7  A    between atoms: C_17  and  C_18
REMARK    8  A    between atoms: C_18  and  N_19
REMARK    9  A    between atoms: C_18  and  C_20
REMARK   10  A    between atoms: C_27  and  O_28
REMARK   11  A    between atoms: C_29  and  O_30
REMARK                            x       y       z     vdW  Elec       q    Type
REMARK                         _______ _______ _______ _____ _____    ______ ____
ROOT
ATOM      1  C   UNL     1       4.494   3.920  17.443  0.00  0.00    +0.000 C 
ATOM      2  O   UNL     1       3.275   4.682  17.207  0.00  0.00    +0.000 OA
ATOM      3  C   UNL     1       2.548   4.857  18.448  0.00  0.00    +0.000 C 
ATOM      4  C   UNL     1       3.244   3.927  19.436  0.00  0.00    +0.000 C 
ATOM      5  C   UNL     1       4.694   3.928  18.960  0.00  0.00    +0.000 C 
ENDROOT
BRANCH   1  14
ATOM      6  C   UNL     1       7.504   5.147  13.809  0.00  0.00    +0.000 A 
ATOM      7  N   UNL     1       6.897   4.405  12.865  0.00  0.00    +0.000 NA
ATOM      8  C   UNL     1       5.770   3.742  13.198  0.00  0.00    +0.000 A 
ATOM      9  N   UNL     1       5.160   3.653  14.408  0.00  0.00    +0.000 NA
ATOM     10  C   UNL     1       5.803   4.400  15.316  0.00  0.00    +0.000 A 
ATOM     11  C   UNL     1       6.912   5.206  15.089  0.00  0.00    +0.000 A 
ATOM     12  N   UNL     1       7.224   5.911  16.218  0.00  0.00    +0.000 NA
ATOM     13  C   UNL     1       6.471   5.396  17.164  0.00  0.00    +0.000 A 
ATOM     14  N   UNL     1       5.557   4.517  16.664  0.00  0.00    +0.000 N 
BRANCH   6  15
ATOM     15  N   UNL     1       8.701   5.744  13.474  0.00  0.00    +0.000 N 
ATOM     16  H   UNL     1       8.835   6.033  12.519  0.00  0.00    +0.000 HD
ATOM     17  H   UNL     1       9.407   5.915  14.172  0.00  0.00    +0.000 HD
ENDBRANCH   6  15
ENDBRANCH   1  14
BRANCH   4  18
ATOM     18  O   UNL     1       2.739   2.581  19.307  0.00  0.00    +0.000 OA
ATOM     19  H   UNL     1       2.813   2.303  18.374  0.00  0.00    +0.000 HD
ENDBRANCH   4  18
BRANCH   5  20
ATOM     20  O   UNL     1       5.387   2.790  19.460  0.00  0.00    +0.000 OA
ATOM     21  H   UNL     1       4.896   2.004  19.142  0.00  0.00    +0.000 HD
ENDBRANCH   5  20
BRANCH   3  22
ATOM     22  C   UNL     1       2.543   6.324  18.926  0.00  0.00    +0.000 C 
BRANCH  22  23
ATOM     23  S   UNL     1       3.457   7.405  17.763  0.00  0.00    +0.000 S 
BRANCH  23  24
ATOM     24  C   UNL     1       2.296   8.812  17.603  0.00  0.00    +0.000 C 
BRANCH  24  25
ATOM     25  C   UNL     1       1.436   9.114  18.830  0.00  0.00    +0.000 C 
BRANCH  25  26
ATOM     26  C   UNL     1       0.977  10.576  18.995  0.00  0.00    +0.000 C 
BRANCH  26  27
ATOM     27  C   UNL     1      -0.511  10.699  18.572  0.00  0.00    +0.000 C 
ATOM     28  O   UNL     1      -0.981   9.961  17.699  0.00  0.00    +0.000 OA
ATOM     29  N   UNL     1      -1.302  11.636  19.202  0.00  0.00    +0.000 N 
ATOM     30  C   UNL     1      -0.920  12.569  20.238  0.00  0.00    +0.000 C 
ATOM     31  C   UNL     1      -2.201  12.676  21.051  0.00  0.00    +0.000 C 
ATOM     32  C   UNL     1      -3.298  12.652  20.024  0.00  0.00    +0.000 C 
ATOM     33  C   UNL     1      -2.736  11.707  18.960  0.00  0.00    +0.000 C 
ENDBRANCH  26  27
BRANCH  26  34
ATOM     34  N   UNL     1       1.784  11.511  18.180  0.00  0.00    +0.000 NA
ATOM     35  H   UNL     1       2.578  11.820  18.739  0.00  0.00    +0.000 HD
ATOM     36  H   UNL     1       1.228  12.339  17.974  0.00  0.00    +0.000 HD
ENDBRANCH  26  34
ENDBRANCH  25  26
ENDBRANCH  24  25
ENDBRANCH  23  24
ENDBRANCH  22  23
ENDBRANCH   3  22
TORSDOF 11
ENDMDL
MODEL 8
REMARK VINA RESULT:      -7.2      3.951      9.750
REMARK  Name = 
REMARK  11 active torsions:
REMARK  status: ('A' for Active; 'I' for Inactive)
REMARK    1  A    between atoms: N_1  and  C_2
REMARK    2  A    between atoms: N_10  and  C_11
REMARK    3  A    between atoms: C_13  and  C_14
REMARK    4  A    between atoms: C_14  and  S_15
REMARK    5  A    between atoms: S_15  and  C_16
REMARK    6  A    between atoms: C_16  and  C_17
REMARK    7  A    between atoms: C_17  and  C_18
REMARK    8  A    between atoms: C_18  and  N_19
REMARK    9  A    between atoms: C_18  and  C_20
REMARK   10  A    between atoms: C_27  and  O_28
REMARK   11  A    between atoms: C_29  and  O_30
REMARK                            x       y       z     vdW  Elec       q    Type
REMARK                         _______ _______ _______ _____ _____    ______ ____
ROOT
ATOM      1  C   UNL     1      -0.955  11.991  19.523  0.00  0.00    +0.000 C 
ATOM      2  O   UNL     1       0.079  11.437  18.659  0.00  0.00    +0.000 OA
ATOM      3  C   UNL     1       1.083  10.759  19.454  0.00  0.00    +0.000 C 
ATOM      4  C   UNL     1       0.763  11.152  20.892  0.00  0.00    +0.000 C 
ATOM      5  C   UNL     1      -0.753  11.322  20.883  0.00  0.00    +0.000 C 
ENDROOT
BRANCH   1  14
ATOM      6  C   UNL     1      -5.734  11.829  18.575  0.00  0.00    +0.000 A 
ATOM      7  N   UNL     1      -6.124  12.444  19.706  0.00  0.00    +0.000 NA
ATOM      8  C   UNL     1      -5.174  12.902  20.547  0.00  0.00    +0.000 A 
ATOM      9  N   UNL     1      -3.825  12.779  20.456  0.00  0.00    +0.000 NA
ATOM     10  C   UNL     1      -3.485  12.154  19.319  0.00  0.00    +0.000 A 
ATOM     11  C   UNL     1      -4.350  11.719  18.323  0.00  0.00    +0.000 A 
ATOM     12  N   UNL     1      -3.642  11.235  17.259  0.00  0.00    +0.000 NA
ATOM     13  C   UNL     1      -2.396  11.173  17.674  0.00  0.00    +0.000 A 
ATOM     14  N   UNL     1      -2.237  11.766  18.892  0.00  0.00    +0.000 N 
BRANCH   6  15
ATOM     15  N   UNL     1      -6.719  11.290  17.774  0.00  0.00    +0.000 N 
ATOM     16  H   UNL     1      -7.573  10.986  18.212  0.00  0.00    +0.000 HD
ATOM     17  H   UNL     1      -6.600  11.233  16.775  0.00  0.00    +0.000 HD
ENDBRANCH   6  15
ENDBRANCH   1  14
BRANCH   4  18
ATOM     18  O   UNL     1       1.348  12.432  21.211  0.00  0.00    +0.000 OA
ATOM     19  H   UNL     1       1.046  12.705  22.098  0.00  0.00    +0.000 HD
ENDBRANCH   4  18
BRANCH   5  20
ATOM     20  O   UNL     1      -1.176  12.113  21.987  0.00  0.00    +0.000 OA
ATOM     21  H   UNL     1      -2.139  11.963  22.084  0.00  0.00    +0.000 HD
ENDBRANCH   5  20
BRANCH   3  22
ATOM     22  C   UNL     1       1.067   9.231  19.244  0.00  0.00    +0.000 C 
BRANCH  22  23
ATOM     23  S   UNL     1       2.209   8.733  17.900  0.00  0.00    +0.000 S 
BRANCH  23  24
ATOM     24  C   UNL     1       2.588   7.008  18.382  0.00  0.00    +0.000 C 
BRANCH  24  25
ATOM     25  C   UNL     1       3.880   6.421  17.812  0.00  0.00    +0.000 C 
BRANCH  25  26
ATOM     26  C   UNL     1       3.857   4.915  17.488  0.00  0.00    +0.000 C 
BRANCH  26  27
ATOM     27  C   UNL     1       4.072   4.105  18.794  0.00  0.00    +0.000 C 
ATOM     28  O   UNL     1       5.202   3.978  19.278  0.00  0.00    +0.000 OA
ATOM     29  N   UNL     1       2.975   3.544  19.412  0.00  0.00    +0.000 N 
ATOM     30  C   UNL     1       1.593   3.597  18.989  0.00  0.00    +0.000 C 
ATOM     31  C   UNL     1       0.858   3.604  20.320  0.00  0.00    +0.000 C 
ATOM     32  C   UNL     1       1.646   2.662  21.187  0.00  0.00    +0.000 C 
ATOM     33  C   UNL     1       3.081   2.897  20.712  0.00  0.00    +0.000 C 
ENDBRANCH  26  27
BRANCH  26  34
ATOM     34  N   UNL     1       4.905   4.537  16.513  0.00  0.00    +0.000 NA
ATOM     35  H   UNL     1       5.183   5.372  16.002  0.00  0.00    +0.000 HD
ATOM     36  H   UNL     1       4.510   3.891  15.833  0.00  0.00    +0.000 HD
ENDBRANCH  26  34
ENDBRANCH  25  26
ENDBRANCH  24  25
ENDBRANCH  23  24
ENDBRANCH  22  23
ENDBRANCH   3  22
TORSDOF 11
ENDMDL
MODEL 9
REMARK VINA RESULT:      -7.2      1.809      2.500
REMARK  Name = 
REMARK  11 active torsions:
REMARK  status: ('A' for Active; 'I' for Inactive)
REMARK    1  A    between atoms: N_1  and  C_2
REMARK    2  A    between atoms: N_10  and  C_11
REMARK    3  A    between atoms: C_13  and  C_14
REMARK    4  A    between atoms: C_14  and  S_15
REMARK    5  A    between atoms: S_15  and  C_16
REMARK    6  A    between atoms: C_16  and  C_17
REMARK    7  A    between atoms: C_17  and  C_18
REMARK    8  A    between atoms: C_18  and  N_19
REMARK    9  A    between atoms: C_18  and  C_20
REMARK   10  A    between atoms: C_27  and  O_28
REMARK   11  A    between atoms: C_29  and  O_30
REMARK                            x       y       z     vdW  Elec       q    Type
REMARK                         _______ _______ _______ _____ _____    ______ ____
ROOT
ATOM      1  C   UNL     1       3.474   3.403  17.775  0.00  0.00    +0.000 C 
ATOM      2  O   UNL     1       2.276   4.185  18.047  0.00  0.00    +0.000 OA
ATOM      3  C   UNL     1       1.655   3.735  19.276  0.00  0.00    +0.000 C 
ATOM      4  C   UNL     1       2.382   2.440  19.623  0.00  0.00    +0.000 C 
ATOM      5  C   UNL     1       3.790   2.670  19.080  0.00  0.00    +0.000 C 
ENDROOT
BRANCH   1  14
ATOM      6  C   UNL     1       7.318   6.387  17.489  0.00  0.00    +0.000 A 
ATOM      7  N   UNL     1       7.677   6.281  18.781  0.00  0.00    +0.000 NA
ATOM      8  C   UNL     1       6.988   5.432  19.569  0.00  0.00    +0.000 A 
ATOM      9  N   UNL     1       5.899   4.679  19.264  0.00  0.00    +0.000 NA
ATOM     10  C   UNL     1       5.574   4.823  17.972  0.00  0.00    +0.000 A 
ATOM     11  C   UNL     1       6.253   5.585  17.028  0.00  0.00    +0.000 A 
ATOM     12  N   UNL     1       5.706   5.400  15.789  0.00  0.00    +0.000 NA
ATOM     13  C   UNL     1       4.600   4.722  15.999  0.00  0.00    +0.000 A 
ATOM     14  N   UNL     1       4.499   4.302  17.292  0.00  0.00    +0.000 N 
BRANCH   6  15
ATOM     15  N   UNL     1       7.978   7.325  16.722  0.00  0.00    +0.000 N 
ATOM     16  H   UNL     1       7.577   8.246  16.652  0.00  0.00    +0.000 HD
ATOM     17  H   UNL     1       8.852   7.104  16.273  0.00  0.00    +0.000 HD
ENDBRANCH   6  15
ENDBRANCH   1  14
BRANCH   4  18
ATOM     18  O   UNL     1       1.809   1.329  18.903  0.00  0.00    +0.000 OA
ATOM     19  H   UNL     1       1.572   1.623  18.003  0.00  0.00    +0.000 HD
ENDBRANCH   4  18
BRANCH   5  20
ATOM     20  O   UNL     1       4.467   1.432  18.901  0.00  0.00    +0.000 OA
ATOM     21  H   UNL     1       5.176   1.403  19.576  0.00  0.00    +0.000 HD
ENDBRANCH   5  20
BRANCH   3  22
ATOM     22  C   UNL     1       1.752   4.784  20.405  0.00  0.00    +0.000 C 
BRANCH  22  23
ATOM     23  S   UNL     1       2.265   6.417  19.751  0.00  0.00    +0.000 S 
BRANCH  23  24
ATOM     24  C   UNL     1       1.674   7.529  21.080  0.00  0.00    +0.000 C 
BRANCH  24  25
ATOM     25  C   UNL     1       1.068   8.855  20.624  0.00  0.00    +0.000 C 
BRANCH  25  26
ATOM     26  C   UNL     1      -0.332   9.188  21.175  0.00  0.00    +0.000 C 
BRANCH  26  27
ATOM     27  C   UNL     1      -0.363  10.669  21.641  0.00  0.00    +0.000 C 
ATOM     28  O   UNL     1       0.013  10.979  22.777  0.00  0.00    +0.000 OA
ATOM     29  N   UNL     1      -0.803  11.631  20.758  0.00  0.00    +0.000 N 
ATOM     30  C   UNL     1      -1.271  11.446  19.402  0.00  0.00    +0.000 C 
ATOM     31  C   UNL     1      -0.809  12.731  18.733  0.00  0.00    +0.000 C 
ATOM     32  C   UNL     1      -1.026  13.793  19.774  0.00  0.00    +0.000 C 
ATOM     33  C   UNL     1      -0.721  13.049  21.076  0.00  0.00    +0.000 C 
ENDBRANCH  26  27
BRANCH  26  34
ATOM     34  N   UNL     1      -0.707   8.321  22.314  0.00  0.00    +0.000 NA
ATOM     35  H   UNL     1      -0.871   8.912  23.126  0.00  0.00    +0.000 HD
ATOM     36  H   UNL     1       0.078   7.714  22.543  0.00  0.00    +0.000 HD
ENDBRANCH  26  34
ENDBRANCH  25  26
ENDBRANCH  24  25
ENDBRANCH  23  24
ENDBRANCH  22  23
ENDBRANCH   3  22
TORSDOF 11
ENDMDL
