MODEL 1
REMARK VINA RESULT:      -8.4      0.000      0.000
REMARK  Name = 
REMARK  5 active torsions:
REMARK  status: ('A' for Active; 'I' for Inactive)
REMARK    1  A    between atoms: N_1  and  C_2
REMARK    2  A    between atoms: C_2  and  N_4
REMARK    3  A    between atoms: N_4  and  N_5
REMARK    4  A    between atoms: C_6  and  C_7
REMARK    5  A    between atoms: C_6  and  C_15
REMARK                            x       y       z     vdW  Elec       q    Type
REMARK                         _______ _______ _______ _____ _____    ______ ____
ROOT
ATOM      1  N   UNL     1       7.602   4.616  16.799  0.00  0.00    +0.000 NA
ATOM      2  C   UNL     1       6.476   4.616  16.138  0.00  0.00    +0.000 C 
ENDROOT
BRANCH   2   3
ATOM      3  C   UNL     1       5.097   4.714  16.741  0.00  0.00    +0.000 A 
ATOM      4  C   UNL     1       4.372   3.557  17.057  0.00  0.00    +0.000 A 
ATOM      5  C   UNL     1       3.088   3.656  17.596  0.00  0.00    +0.000 A 
ATOM      6 CL   UNL     1       2.175   2.227  17.885  0.00  0.00    +0.000 Cl
ATOM      7  C   UNL     1       2.539   4.896  17.899  0.00  0.00    +0.000 A 
ATOM      8  C   UNL     1       3.276   6.046  17.632  0.00  0.00    +0.000 A 
ATOM      9 CL   UNL     1       2.641   7.584  18.067  0.00  0.00    +0.000 Cl
ATOM     10  C   UNL     1       4.533   5.966  17.027  0.00  0.00    +0.000 A 
ENDBRANCH   2   3
BRANCH   2  11
ATOM     11  C   UNL     1       6.608   4.532  14.641  0.00  0.00    +0.000 A 
ATOM     12  C   UNL     1       7.688   5.181  14.027  0.00  0.00    +0.000 A 
ATOM     13  C   UNL     1       7.875   5.096  12.645  0.00  0.00    +0.000 A 
ATOM     14  C   UNL     1       6.982   4.361  11.869  0.00  0.00    +0.000 A 
ATOM     15  C   UNL     1       5.895   3.734  12.474  0.00  0.00    +0.000 A 
ATOM     16 BR   UNL     1       4.697   2.716  11.423  0.00  0.00    +0.000 Br
ATOM     17  C   UNL     1       5.689   3.828  13.851  0.00  0.00    +0.000 A 
ENDBRANCH   2  11
BRANCH   1  18
ATOM     18  N   UNL     1       7.606   4.520  18.156  0.00  0.00    +0.000 N 
ATOM     19  H   UNL     1       7.385   3.641  18.612  0.00  0.00    +0.000 HD
BRANCH  18  20
ATOM     20  C   UNL     1       7.893   5.602  18.940  0.00  0.00    +0.000 C 
ATOM     21  S   UNL     1       7.906   7.150  18.344  0.00  0.00    +0.000 S 
BRANCH  20  22
ATOM     22  N   UNL     1       8.212   5.324  20.226  0.00  0.00    +0.000 N 
ATOM     23  H   UNL     1       8.769   4.519  20.472  0.00  0.00    +0.000 HD
ATOM     24  H   UNL     1       7.988   6.032  20.915  0.00  0.00    +0.000 HD
ENDBRANCH  20  22
ENDBRANCH  18  20
ENDBRANCH   1  18
TORSDOF 5
ENDMDL
MODEL 2
REMARK VINA RESULT:      -8.3      0.048      1.965
REMARK  Name = 
REMARK  5 active torsions:
REMARK  status: ('A' for Active; 'I' for Inactive)
REMARK    1  A    between atoms: N_1  and  C_2
REMARK    2  A    between atoms: C_2  and  N_4
REMARK    3  A    between atoms: N_4  and  N_5
REMARK    4  A    between atoms: C_6  and  C_7
REMARK    5  A    between atoms: C_6  and  C_15
REMARK                            x       y       z     vdW  Elec       q    Type
REMARK                         _______ _______ _______ _____ _____    ______ ____
ROOT
ATOM      1  N   UNL     1       7.623   4.633  16.831  0.00  0.00    +0.000 NA
ATOM      2  C   UNL     1       6.491   4.628  16.180  0.00  0.00    +0.000 C 
ENDROOT
BRANCH   2   3
ATOM      3  C   UNL     1       5.118   4.717  16.795  0.00  0.00    +0.000 A 
ATOM      4  C   UNL     1       4.534   5.965  17.061  0.00  0.00    +0.000 A 
ATOM      5  C   UNL     1       3.271   6.040  17.649  0.00  0.00    +0.000 A 
ATOM      6 CL   UNL     1       2.614   7.575  18.058  0.00  0.00    +0.000 Cl
ATOM      7  C   UNL     1       2.539   4.887  17.909  0.00  0.00    +0.000 A 
ATOM      8  C   UNL     1       3.095   3.648  17.601  0.00  0.00    +0.000 A 
ATOM      9 CL   UNL     1       2.175   2.217  17.851  0.00  0.00    +0.000 Cl
ATOM     10  C   UNL     1       4.387   3.554  17.078  0.00  0.00    +0.000 A 
ENDBRANCH   2   3
BRANCH   2  11
ATOM     11  C   UNL     1       6.610   4.548  14.682  0.00  0.00    +0.000 A 
ATOM     12  C   UNL     1       7.702   5.173  14.063  0.00  0.00    +0.000 A 
ATOM     13  C   UNL     1       7.877   5.089  12.679  0.00  0.00    +0.000 A 
ATOM     14  C   UNL     1       6.961   4.381  11.906  0.00  0.00    +0.000 A 
ATOM     15  C   UNL     1       5.862   3.777  12.516  0.00  0.00    +0.000 A 
ATOM     16 BR   UNL     1       4.632   2.795  11.469  0.00  0.00    +0.000 Br
ATOM     17  C   UNL     1       5.669   3.871  13.895  0.00  0.00    +0.000 A 
ENDBRANCH   2  11
BRANCH   1  18
ATOM     18  N   UNL     1       7.640   4.534  18.187  0.00  0.00    +0.000 N 
ATOM     19  H   UNL     1       7.445   3.648  18.643  0.00  0.00    +0.000 HD
BRANCH  18  20
ATOM     20  C   UNL     1       7.905   5.621  18.972  0.00  0.00    +0.000 C 
ATOM     21  S   UNL     1       7.942   7.164  18.365  0.00  0.00    +0.000 S 
BRANCH  20  22
ATOM     22  N   UNL     1       8.182   5.352  20.269  0.00  0.00    +0.000 N 
ATOM     23  H   UNL     1       7.922   4.475  20.696  0.00  0.00    +0.000 HD
ATOM     24  H   UNL     1       8.784   6.008  20.753  0.00  0.00    +0.000 HD
ENDBRANCH  20  22
ENDBRANCH  18  20
ENDBRANCH   1  18
TORSDOF 5
ENDMDL
MODEL 3
REMARK VINA RESULT:      -7.8      4.570      6.684
REMARK  Name = 
REMARK  5 active torsions:
REMARK  status: ('A' for Active; 'I' for Inactive)
REMARK    1  A    between atoms: N_1  and  C_2
REMARK    2  A    between atoms: C_2  and  N_4
REMARK    3  A    between atoms: N_4  and  N_5
REMARK    4  A    between atoms: C_6  and  C_7
REMARK    5  A    between atoms: C_6  and  C_15
REMARK                            x       y       z     vdW  Elec       q    Type
REMARK                         _______ _______ _______ _____ _____    ______ ____
ROOT
ATOM      1  N   UNL     1       2.222   4.443  18.809  0.00  0.00    +0.000 NA
ATOM      2  C   UNL     1       3.062   5.405  18.540  0.00  0.00    +0.000 C 
ENDROOT
BRANCH   2   3
ATOM      3  C   UNL     1       4.468   5.233  18.023  0.00  0.00    +0.000 A 
ATOM      4  C   UNL     1       5.570   5.460  18.861  0.00  0.00    +0.000 A 
ATOM      5  C   UNL     1       6.868   5.318  18.370  0.00  0.00    +0.000 A 
ATOM      6 CL   UNL     1       8.206   5.697  19.382  0.00  0.00    +0.000 Cl
ATOM      7  C   UNL     1       7.092   4.876  17.071  0.00  0.00    +0.000 A 
ATOM      8  C   UNL     1       6.001   4.602  16.252  0.00  0.00    +0.000 A 
ATOM      9 CL   UNL     1       6.260   3.987  14.667  0.00  0.00    +0.000 Cl
ATOM     10  C   UNL     1       4.696   4.808  16.706  0.00  0.00    +0.000 A 
ENDBRANCH   2   3
BRANCH   2  11
ATOM     11  C   UNL     1       2.535   6.799  18.755  0.00  0.00    +0.000 A 
ATOM     12  C   UNL     1       2.561   7.697  17.679  0.00  0.00    +0.000 A 
ATOM     13  C   UNL     1       2.043   8.988  17.820  0.00  0.00    +0.000 A 
ATOM     14  C   UNL     1       1.499   9.387  19.037  0.00  0.00    +0.000 A 
ATOM     15  C   UNL     1       1.492   8.503  20.115  0.00  0.00    +0.000 A 
ATOM     16 BR   UNL     1       0.730   9.038  21.761  0.00  0.00    +0.000 Br
ATOM     17  C   UNL     1       2.023   7.219  19.990  0.00  0.00    +0.000 A 
ENDBRANCH   2  11
BRANCH   1  18
ATOM     18  N   UNL     1       2.635   3.147  18.813  0.00  0.00    +0.000 N 
ATOM     19  H   UNL     1       2.514   2.563  17.992  0.00  0.00    +0.000 HD
BRANCH  18  20
ATOM     20  C   UNL     1       3.209   2.591  19.923  0.00  0.00    +0.000 C 
ATOM     21  S   UNL     1       2.493   2.657  21.417  0.00  0.00    +0.000 S 
BRANCH  20  22
ATOM     22  N   UNL     1       4.423   2.026  19.731  0.00  0.00    +0.000 N 
ATOM     23  H   UNL     1       5.272   2.470  20.048  0.00  0.00    +0.000 HD
ATOM     24  H   UNL     1       4.434   1.074  19.382  0.00  0.00    +0.000 HD
ENDBRANCH  20  22
ENDBRANCH  18  20
ENDBRANCH   1  18
TORSDOF 5
ENDMDL
MODEL 4
REMARK VINA RESULT:      -7.8      4.557      6.554
REMARK  Name = 
REMARK  5 active torsions:
REMARK  status: ('A' for Active; 'I' for Inactive)
REMARK    1  A    between atoms: N_1  and  C_2
REMARK    2  A    between atoms: C_2  and  N_4
REMARK    3  A    between atoms: N_4  and  N_5
REMARK    4  A    between atoms: C_6  and  C_7
REMARK    5  A    between atoms: C_6  and  C_15
REMARK                            x       y       z     vdW  Elec       q    Type
REMARK                         _______ _______ _______ _____ _____    ______ ____
ROOT
ATOM      1  N   UNL     1       2.332   4.381  18.844  0.00  0.00    +0.000 NA
ATOM      2  C   UNL     1       3.151   5.356  18.556  0.00  0.00    +0.000 C 
ENDROOT
BRANCH   2   3
ATOM      3  C   UNL     1       4.559   5.203  18.039  0.00  0.00    +0.000 A 
ATOM      4  C   UNL     1       4.795   4.867  16.698  0.00  0.00    +0.000 A 
ATOM      5  C   UNL     1       6.101   4.708  16.232  0.00  0.00    +0.000 A 
ATOM      6 CL   UNL     1       6.368   4.197  14.611  0.00  0.00    +0.000 Cl
ATOM      7  C   UNL     1       7.187   4.954  17.063  0.00  0.00    +0.000 A 
ATOM      8  C   UNL     1       6.957   5.337  18.382  0.00  0.00    +0.000 A 
ATOM      9 CL   UNL     1       8.288   5.714  19.402  0.00  0.00    +0.000 Cl
ATOM     10  C   UNL     1       5.656   5.431  18.883  0.00  0.00    +0.000 A 
ENDBRANCH   2   3
BRANCH   2  11
ATOM     11  C   UNL     1       2.596   6.741  18.748  0.00  0.00    +0.000 A 
ATOM     12  C   UNL     1       2.602   7.621  17.657  0.00  0.00    +0.000 A 
ATOM     13  C   UNL     1       2.058   8.903  17.776  0.00  0.00    +0.000 A 
ATOM     14  C   UNL     1       1.506   9.312  18.987  0.00  0.00    +0.000 A 
ATOM     15  C   UNL     1       1.518   8.447  20.079  0.00  0.00    +0.000 A 
ATOM     16 BR   UNL     1       0.746   8.994  21.716  0.00  0.00    +0.000 Br
ATOM     17  C   UNL     1       2.076   7.172  19.976  0.00  0.00    +0.000 A 
ENDBRANCH   2  11
BRANCH   1  18
ATOM     18  N   UNL     1       2.772   3.094  18.870  0.00  0.00    +0.000 N 
ATOM     19  H   UNL     1       2.683   2.501  18.052  0.00  0.00    +0.000 HD
BRANCH  18  20
ATOM     20  C   UNL     1       3.329   2.560  19.999  0.00  0.00    +0.000 C 
ATOM     21  S   UNL     1       2.554   2.581  21.465  0.00  0.00    +0.000 S 
BRANCH  20  22
ATOM     22  N   UNL     1       4.577   2.056  19.851  0.00  0.00    +0.000 N 
ATOM     23  H   UNL     1       5.231   2.444  19.188  0.00  0.00    +0.000 HD
ATOM     24  H   UNL     1       4.874   1.366  20.532  0.00  0.00    +0.000 HD
ENDBRANCH  20  22
ENDBRANCH  18  20
ENDBRANCH   1  18
TORSDOF 5
ENDMDL
MODEL 5
REMARK VINA RESULT:      -7.5      4.824      6.928
REMARK  Name = 
REMARK  5 active torsions:
REMARK  status: ('A' for Active; 'I' for Inactive)
REMARK    1  A    between atoms: N_1  and  C_2
REMARK    2  A    between atoms: C_2  and  N_4
REMARK    3  A    between atoms: N_4  and  N_5
REMARK    4  A    between atoms: C_6  and  C_7
REMARK    5  A    between atoms: C_6  and  C_15
REMARK                            x       y       z     vdW  Elec       q    Type
REMARK                         _______ _______ _______ _____ _____    ______ ____
ROOT
ATOM      1  N   UNL     1       2.091   4.823  19.750  0.00  0.00    +0.000 NA
ATOM      2  C   UNL     1       2.841   5.720  19.168  0.00  0.00    +0.000 C 
ENDROOT
BRANCH   2   3
ATOM      3  C   UNL     1       4.162   5.461  18.489  0.00  0.00    +0.000 A 
ATOM      4  C   UNL     1       4.211   5.109  17.132  0.00  0.00    +0.000 A 
ATOM      5  C   UNL     1       5.436   4.851  16.515  0.00  0.00    +0.000 A 
ATOM      6 CL   UNL     1       5.468   4.323  14.879  0.00  0.00    +0.000 Cl
ATOM      7  C   UNL     1       6.629   5.013  17.210  0.00  0.00    +0.000 A 
ATOM      8  C   UNL     1       6.587   5.411  18.543  0.00  0.00    +0.000 A 
ATOM      9 CL   UNL     1       8.055   5.685  19.395  0.00  0.00    +0.000 Cl
ATOM     10  C   UNL     1       5.366   5.604  19.194  0.00  0.00    +0.000 A 
ENDBRANCH   2   3
BRANCH   2  11
ATOM     11  C   UNL     1       2.294   7.122  19.177  0.00  0.00    +0.000 A 
ATOM     12  C   UNL     1       2.336   7.864  17.989  0.00  0.00    +0.000 A 
ATOM     13  C   UNL     1       1.801   9.154  17.938  0.00  0.00    +0.000 A 
ATOM     14  C   UNL     1       1.221   9.709  19.076  0.00  0.00    +0.000 A 
ATOM     15  C   UNL     1       1.197   8.982  20.265  0.00  0.00    +0.000 A 
ATOM     16 BR   UNL     1       0.388   9.726  21.803  0.00  0.00    +0.000 Br
ATOM     17  C   UNL     1       1.746   7.700  20.330  0.00  0.00    +0.000 A 
ENDBRANCH   2  11
BRANCH   1  18
ATOM     18  N   UNL     1       2.554   3.560  19.951  0.00  0.00    +0.000 N 
ATOM     19  H   UNL     1       3.153   3.350  20.743  0.00  0.00    +0.000 HD
BRANCH  18  20
ATOM     20  C   UNL     1       2.241   2.547  19.089  0.00  0.00    +0.000 C 
ATOM     21  S   UNL     1       3.402   1.617  18.355  0.00  0.00    +0.000 S 
BRANCH  20  22
ATOM     22  N   UNL     1       0.922   2.382  18.836  0.00  0.00    +0.000 N 
ATOM     23  H   UNL     1       0.443   2.929  18.136  0.00  0.00    +0.000 HD
ATOM     24  H   UNL     1       0.467   1.592  19.279  0.00  0.00    +0.000 HD
ENDBRANCH  20  22
ENDBRANCH  18  20
ENDBRANCH   1  18
TORSDOF 5
ENDMDL
MODEL 6
REMARK VINA RESULT:      -7.5      4.756      6.952
REMARK  Name = 
REMARK  5 active torsions:
REMARK  status: ('A' for Active; 'I' for Inactive)
REMARK    1  A    between atoms: N_1  and  C_2
REMARK    2  A    between atoms: C_2  and  N_4
REMARK    3  A    between atoms: N_4  and  N_5
REMARK    4  A    between atoms: C_6  and  C_7
REMARK    5  A    between atoms: C_6  and  C_15
REMARK                            x       y       z     vdW  Elec       q    Type
REMARK                         _______ _______ _______ _____ _____    ______ ____
ROOT
ATOM      1  N   UNL     1       2.237   4.606  19.691  0.00  0.00    +0.000 NA
ATOM      2  C   UNL     1       2.968   5.533  19.134  0.00  0.00    +0.000 C 
ENDROOT
BRANCH   2   3
ATOM      3  C   UNL     1       4.303   5.323  18.466  0.00  0.00    +0.000 A 
ATOM      4  C   UNL     1       5.496   5.484  19.187  0.00  0.00    +0.000 A 
ATOM      5  C   UNL     1       6.728   5.307  18.558  0.00  0.00    +0.000 A 
ATOM      6 CL   UNL     1       8.180   5.606  19.431  0.00  0.00    +0.000 Cl
ATOM      7  C   UNL     1       6.796   4.896  17.232  0.00  0.00    +0.000 A 
ATOM      8  C   UNL     1       5.614   4.687  16.527  0.00  0.00    +0.000 A 
ATOM      9 CL   UNL     1       5.680   4.109  14.908  0.00  0.00    +0.000 Cl
ATOM     10  C   UNL     1       4.374   4.928  17.122  0.00  0.00    +0.000 A 
ENDBRANCH   2   3
BRANCH   2  11
ATOM     11  C   UNL     1       2.381   6.918  19.160  0.00  0.00    +0.000 A 
ATOM     12  C   UNL     1       2.380   7.667  17.975  0.00  0.00    +0.000 A 
ATOM     13  C   UNL     1       1.807   8.941  17.940  0.00  0.00    +0.000 A 
ATOM     14  C   UNL     1       1.234   9.474  19.091  0.00  0.00    +0.000 A 
ATOM     15  C   UNL     1       1.253   8.742  20.277  0.00  0.00    +0.000 A 
ATOM     16 BR   UNL     1       0.452   9.456  21.833  0.00  0.00    +0.000 Br
ATOM     17  C   UNL     1       1.839   7.476  20.326  0.00  0.00    +0.000 A 
ENDBRANCH   2  11
BRANCH   1  18
ATOM     18  N   UNL     1       2.733   3.353  19.877  0.00  0.00    +0.000 N 
ATOM     19  H   UNL     1       3.339   3.149  20.665  0.00  0.00    +0.000 HD
BRANCH  18  20
ATOM     20  C   UNL     1       2.444   2.341  19.003  0.00  0.00    +0.000 C 
ATOM     21  S   UNL     1       3.626   1.468  18.236  0.00  0.00    +0.000 S 
BRANCH  20  22
ATOM     22  N   UNL     1       1.127   2.131  18.768  0.00  0.00    +0.000 N 
ATOM     23  H   UNL     1       0.810   1.554  18.004  0.00  0.00    +0.000 HD
ATOM     24  H   UNL     1       0.480   2.462  19.474  0.00  0.00    +0.000 HD
ENDBRANCH  20  22
ENDBRANCH  18  20
ENDBRANCH   1  18
TORSDOF 5
ENDMDL
MODEL 7
REMARK VINA RESULT:      -7.4      4.716      6.987
REMARK  Name = 
REMARK  5 active torsions:
REMARK  status: ('A' for Active; 'I' for Inactive)
REMARK    1  A    between atoms: N_1  and  C_2
REMARK    2  A    between atoms: C_2  and  N_4
REMARK    3  A    between atoms: N_4  and  N_5
REMARK    4  A    between atoms: C_6  and  C_7
REMARK    5  A    between atoms: C_6  and  C_15
REMARK                            x       y       z     vdW  Elec       q    Type
REMARK                         _______ _______ _______ _____ _____    ______ ____
ROOT
ATOM      1  N   UNL     1       2.533   4.768  19.184  0.00  0.00    +0.000 NA
ATOM      2  C   UNL     1       3.155   5.808  18.699  0.00  0.00    +0.000 C 
ENDROOT
BRANCH   2   3
ATOM      3  C   UNL     1       4.465   5.785  17.951  0.00  0.00    +0.000 A 
ATOM      4  C   UNL     1       5.635   6.279  18.545  0.00  0.00    +0.000 A 
ATOM      5  C   UNL     1       6.839   6.274  17.839  0.00  0.00    +0.000 A 
ATOM      6 CL   UNL     1       8.242   6.974  18.546  0.00  0.00    +0.000 Cl
ATOM      7  C   UNL     1       6.916   5.711  16.571  0.00  0.00    +0.000 A 
ATOM      8  C   UNL     1       5.766   5.175  15.998  0.00  0.00    +0.000 A 
ATOM      9 CL   UNL     1       5.859   4.411  14.460  0.00  0.00    +0.000 Cl
ATOM     10  C   UNL     1       4.539   5.237  16.662  0.00  0.00    +0.000 A 
ENDBRANCH   2   3
BRANCH   2  11
ATOM     11  C   UNL     1       2.462   7.127  18.905  0.00  0.00    +0.000 A 
ATOM     12  C   UNL     1       2.342   7.998  17.813  0.00  0.00    +0.000 A 
ATOM     13  C   UNL     1       1.669   9.215  17.946  0.00  0.00    +0.000 A 
ATOM     14  C   UNL     1       1.111   9.569  19.172  0.00  0.00    +0.000 A 
ATOM     15  C   UNL     1       1.248   8.715  20.265  0.00  0.00    +0.000 A 
ATOM     16 BR   UNL     1       0.469   9.184  21.923  0.00  0.00    +0.000 Br
ATOM     17  C   UNL     1       1.935   7.506  20.147  0.00  0.00    +0.000 A 
ENDBRANCH   2  11
BRANCH   1  18
ATOM     18  N   UNL     1       3.138   3.549  19.207  0.00  0.00    +0.000 N 
ATOM     19  H   UNL     1       4.097   3.455  19.524  0.00  0.00    +0.000 HD
BRANCH  18  20
ATOM     20  C   UNL     1       2.480   2.426  18.790  0.00  0.00    +0.000 C 
ATOM     21  S   UNL     1       0.828   2.292  18.851  0.00  0.00    +0.000 S 
BRANCH  20  22
ATOM     22  N   UNL     1       3.268   1.409  18.370  0.00  0.00    +0.000 N 
ATOM     23  H   UNL     1       2.997   0.807  17.607  0.00  0.00    +0.000 HD
ATOM     24  H   UNL     1       4.203   1.366  18.758  0.00  0.00    +0.000 HD
ENDBRANCH  20  22
ENDBRANCH  18  20
ENDBRANCH   1  18
TORSDOF 5
ENDMDL
MODEL 8
REMARK VINA RESULT:      -7.3      5.003      7.093
REMARK  Name = 
REMARK  5 active torsions:
REMARK  status: ('A' for Active; 'I' for Inactive)
REMARK    1  A    between atoms: N_1  and  C_2
REMARK    2  A    between atoms: C_2  and  N_4
REMARK    3  A    between atoms: N_4  and  N_5
REMARK    4  A    between atoms: C_6  and  C_7
REMARK    5  A    between atoms: C_6  and  C_15
REMARK                            x       y       z     vdW  Elec       q    Type
REMARK                         _______ _______ _______ _____ _____    ______ ____
ROOT
ATOM      1  N   UNL     1       2.190   5.208  20.227  0.00  0.00    +0.000 NA
ATOM      2  C   UNL     1       2.869   6.000  19.442  0.00  0.00    +0.000 C 
ENDROOT
BRANCH   2   3
ATOM      3  C   UNL     1       4.132   5.639  18.701  0.00  0.00    +0.000 A 
ATOM      4  C   UNL     1       5.383   5.744  19.327  0.00  0.00    +0.000 A 
ATOM      5  C   UNL     1       6.549   5.428  18.629  0.00  0.00    +0.000 A 
ATOM      6 CL   UNL     1       8.078   5.659  19.380  0.00  0.00    +0.000 Cl
ATOM      7  C   UNL     1       6.487   4.932  17.332  0.00  0.00    +0.000 A 
ATOM      8  C   UNL     1       5.244   4.779  16.724  0.00  0.00    +0.000 A 
ATOM      9 CL   UNL     1       5.146   4.100  15.147  0.00  0.00    +0.000 Cl
ATOM     10  C   UNL     1       4.073   5.159  17.385  0.00  0.00    +0.000 A 
ENDBRANCH   2   3
BRANCH   2  11
ATOM     11  C   UNL     1       2.296   7.380  19.267  0.00  0.00    +0.000 A 
ATOM     12  C   UNL     1       2.456   8.019  18.030  0.00  0.00    +0.000 A 
ATOM     13  C   UNL     1       1.904   9.284  17.807  0.00  0.00    +0.000 A 
ATOM     14  C   UNL     1       1.189   9.916  18.821  0.00  0.00    +0.000 A 
ATOM     15  C   UNL     1       1.047   9.292  20.060  0.00  0.00    +0.000 A 
ATOM     16 BR   UNL     1       0.055  10.140  21.428  0.00  0.00    +0.000 Br
ATOM     17  C   UNL     1       1.611   8.038  20.298  0.00  0.00    +0.000 A 
ENDBRANCH   2  11
BRANCH   1  18
ATOM     18  N   UNL     1       2.695   3.999  20.593  0.00  0.00    +0.000 N 
ATOM     19  H   UNL     1       3.679   3.896  20.816  0.00  0.00    +0.000 HD
BRANCH  18  20
ATOM     20  C   UNL     1       1.898   2.890  20.655  0.00  0.00    +0.000 C 
ATOM     21  S   UNL     1       1.141   2.266  19.318  0.00  0.00    +0.000 S 
BRANCH  20  22
ATOM     22  N   UNL     1       1.728   2.362  21.890  0.00  0.00    +0.000 N 
ATOM     23  H   UNL     1       2.062   1.438  22.123  0.00  0.00    +0.000 HD
ATOM     24  H   UNL     1       1.378   2.984  22.609  0.00  0.00    +0.000 HD
ENDBRANCH  20  22
ENDBRANCH  18  20
ENDBRANCH   1  18
TORSDOF 5
ENDMDL
MODEL 9
REMARK VINA RESULT:      -7.2      4.178      6.457
REMARK  Name = 
REMARK  5 active torsions:
REMARK  status: ('A' for Active; 'I' for Inactive)
REMARK    1  A    between atoms: N_1  and  C_2
REMARK    2  A    between atoms: C_2  and  N_4
REMARK    3  A    between atoms: N_4  and  N_5
REMARK    4  A    between atoms: C_6  and  C_7
REMARK    5  A    between atoms: C_6  and  C_15
REMARK                            x       y       z     vdW  Elec       q    Type
REMARK                         _______ _______ _______ _____ _____    ______ ____
ROOT
ATOM      1  N   UNL     1       2.586   3.954  18.272  0.00  0.00    +0.000 NA
ATOM      2  C   UNL     1       3.261   5.071  18.238  0.00  0.00    +0.000 C 
ENDROOT
BRANCH   2   3
ATOM      3  C   UNL     1       4.613   5.267  17.600  0.00  0.00    +0.000 A 
ATOM      4  C   UNL     1       4.836   4.890  16.268  0.00  0.00    +0.000 A 
ATOM      5  C   UNL     1       6.096   5.055  15.690  0.00  0.00    +0.000 A 
ATOM      6 CL   UNL     1       6.377   4.495  14.089  0.00  0.00    +0.000 Cl
ATOM      7  C   UNL     1       7.126   5.665  16.397  0.00  0.00    +0.000 A 
ATOM      8  C   UNL     1       6.894   6.086  17.703  0.00  0.00    +0.000 A 
ATOM      9 CL   UNL     1       8.136   6.906  18.565  0.00  0.00    +0.000 Cl
ATOM     10  C   UNL     1       5.661   5.863  18.318  0.00  0.00    +0.000 A 
ENDBRANCH   2   3
BRANCH   2  11
ATOM     11  C   UNL     1       2.587   6.252  18.883  0.00  0.00    +0.000 A 
ATOM     12  C   UNL     1       2.103   6.114  20.191  0.00  0.00    +0.000 A 
ATOM     13  C   UNL     1       1.508   7.195  20.846  0.00  0.00    +0.000 A 
ATOM     14  C   UNL     1       1.393   8.421  20.196  0.00  0.00    +0.000 A 
ATOM     15  C   UNL     1       1.853   8.555  18.888  0.00  0.00    +0.000 A 
ATOM     16 BR   UNL     1       1.720  10.227  18.014  0.00  0.00    +0.000 Br
ATOM     17  C   UNL     1       2.432   7.476  18.218  0.00  0.00    +0.000 A 
ENDBRANCH   2  11
BRANCH   1  18
ATOM     18  N   UNL     1       3.159   2.788  17.872  0.00  0.00    +0.000 N 
ATOM     19  H   UNL     1       3.163   2.523  16.893  0.00  0.00    +0.000 HD
BRANCH  18  20
ATOM     20  C   UNL     1       3.731   1.935  18.775  0.00  0.00    +0.000 C 
ATOM     21  S   UNL     1       4.071   2.391  20.333  0.00  0.00    +0.000 S 
BRANCH  20  22
ATOM     22  N   UNL     1       4.045   0.707  18.301  0.00  0.00    +0.000 N 
ATOM     23  H   UNL     1       3.470   0.239  17.616  0.00  0.00    +0.000 HD
ATOM     24  H   UNL     1       4.954   0.338  18.555  0.00  0.00    +0.000 HD
ENDBRANCH  20  22
ENDBRANCH  18  20
ENDBRANCH   1  18
TORSDOF 5
ENDMDL
