MODEL 1
REMARK VINA RESULT:      -7.4      0.000      0.000
REMARK  Name = 
REMARK  9 active torsions:
REMARK  status: ('A' for Active; 'I' for Inactive)
REMARK    1  A    between atoms: C_1  and  C_2
REMARK    2  A    between atoms: C_2  and  C_3
REMARK    3  A    between atoms: C_2  and  C_4
REMARK    4  A    between atoms: C_2  and  C_5
REMARK    5  A    between atoms: C_8  and  C_9
REMARK    6  A    between atoms: C_9  and  S_10
REMARK    7  A    between atoms: S_10  and  C_11
REMARK    8  A    between atoms: C_16  and  C_18
REMARK    9  A    between atoms: C_18  and  C_19
REMARK                            x       y       z     vdW  Elec       q    Type
REMARK                         _______ _______ _______ _____ _____    ______ ____
ROOT
ATOM      1  C   UNL     1      -0.246  10.918  21.501  0.00  0.00    +0.000 A 
ATOM      2  C   UNL     1      -0.141  10.798  20.131  0.00  0.00    +0.000 A 
ATOM      3  N   UNL     1       0.540   9.687  19.673  0.00  0.00    +0.000 NA
ATOM      4  C   UNL     1       0.963   8.976  20.681  0.00  0.00    +0.000 A 
ATOM      5  N   UNL     1       1.732   7.843  20.667  0.00  0.00    +0.000 N 
ATOM      6  C   UNL     1       2.330   7.412  19.496  0.00  0.00    +0.000 C 
ATOM      7  O   UNL     1       2.279   7.973  18.407  0.00  0.00    +0.000 OA
ATOM      8  S   UNL     1       0.507   9.543  22.231  0.00  0.00    +0.000 S 
ATOM      9  H   UNL     1       1.909   7.382  21.546  0.00  0.00    +0.000 HD
ENDROOT
BRANCH   1  10
ATOM     10  S   UNL     1      -0.942  12.222  22.457  0.00  0.00    +0.000 S 
BRANCH  10  11
ATOM     11  C   UNL     1      -1.806  13.246  21.224  0.00  0.00    +0.000 C 
BRANCH  11  15
ATOM     12  C   UNL     1      -5.114  12.320  20.192  0.00  0.00    +0.000 A 
ATOM     13  N   UNL     1      -5.403  12.348  21.479  0.00  0.00    +0.000 NA
ATOM     14  C   UNL     1      -4.232  12.708  22.084  0.00  0.00    +0.000 A 
ATOM     15  C   UNL     1      -3.245  12.884  21.142  0.00  0.00    +0.000 A 
ATOM     16  O   UNL     1      -3.801  12.628  19.910  0.00  0.00    +0.000 OA
BRANCH  12  18
ATOM     17  C   UNL     1      -7.341  11.392  19.641  0.00  0.00    +0.000 C 
ATOM     18  C   UNL     1      -6.073  12.043  19.057  0.00  0.00    +0.000 C 
ATOM     19  C   UNL     1      -5.419  11.057  18.070  0.00  0.00    +0.000 C 
ATOM     20  C   UNL     1      -6.476  13.310  18.287  0.00  0.00    +0.000 C 
ENDBRANCH  12  18
ENDBRANCH  11  15
ENDBRANCH  10  11
ENDBRANCH   1  10
BRANCH   6  21
ATOM     21  C   UNL     1       3.125   6.117  19.629  0.00  0.00    +0.000 C 
BRANCH  21  22
ATOM     22  C   UNL     1       2.278   4.885  19.405  0.00  0.00    +0.000 A 
ATOM     23  C   UNL     1       1.565   4.306  20.466  0.00  0.00    +0.000 A 
ATOM     24  C   UNL     1       0.823   3.141  20.275  0.00  0.00    +0.000 A 
ATOM     25  C   UNL     1       0.770   2.549  19.015  0.00  0.00    +0.000 A 
ATOM     26  C   UNL     1       1.437   3.138  17.943  0.00  0.00    +0.000 A 
ATOM     27  C   UNL     1       2.183   4.304  18.133  0.00  0.00    +0.000 A 
ENDBRANCH  21  22
ENDBRANCH   6  21
TORSDOF 6
ENDMDL
MODEL 2
REMARK VINA RESULT:      -7.3      0.775      1.165
REMARK  Name = 
REMARK  9 active torsions:
REMARK  status: ('A' for Active; 'I' for Inactive)
REMARK    1  A    between atoms: C_1  and  C_2
REMARK    2  A    between atoms: C_2  and  C_3
REMARK    3  A    between atoms: C_2  and  C_4
REMARK    4  A    between atoms: C_2  and  C_5
REMARK    5  A    between atoms: C_8  and  C_9
REMARK    6  A    between atoms: C_9  and  S_10
REMARK    7  A    between atoms: S_10  and  C_11
REMARK    8  A    between atoms: C_16  and  C_18
REMARK    9  A    between atoms: C_18  and  C_19
REMARK                            x       y       z     vdW  Elec       q    Type
REMARK                         _______ _______ _______ _____ _____    ______ ____
ROOT
ATOM      1  C   UNL     1      -0.053  10.976  21.205  0.00  0.00    +0.000 A 
ATOM      2  C   UNL     1       0.047  10.806  19.839  0.00  0.00    +0.000 A 
ATOM      3  N   UNL     1       0.708   9.669  19.419  0.00  0.00    +0.000 NA
ATOM      4  C   UNL     1       1.121   8.986  20.451  0.00  0.00    +0.000 A 
ATOM      5  N   UNL     1       1.870   7.840  20.474  0.00  0.00    +0.000 N 
ATOM      6  C   UNL     1       2.457   7.358  19.318  0.00  0.00    +0.000 C 
ATOM      7  O   UNL     1       2.413   7.882  18.210  0.00  0.00    +0.000 OA
ATOM      8  S   UNL     1       0.679   9.614  21.980  0.00  0.00    +0.000 S 
ATOM      9  H   UNL     1       2.042   7.407  21.368  0.00  0.00    +0.000 HD
ENDROOT
BRANCH   1  10
ATOM     10  S   UNL     1      -0.723  12.324  22.116  0.00  0.00    +0.000 S 
BRANCH  10  11
ATOM     11  C   UNL     1      -1.429  13.404  20.831  0.00  0.00    +0.000 C 
BRANCH  11  15
ATOM     12  C   UNL     1      -4.411  12.077  19.347  0.00  0.00    +0.000 A 
ATOM     13  N   UNL     1      -5.025  12.574  20.403  0.00  0.00    +0.000 NA
ATOM     14  C   UNL     1      -4.030  13.164  21.131  0.00  0.00    +0.000 A 
ATOM     15  C   UNL     1      -2.819  13.001  20.497  0.00  0.00    +0.000 A 
ATOM     16  O   UNL     1      -3.050  12.291  19.342  0.00  0.00    +0.000 OA
BRANCH  12  18
ATOM     17  C   UNL     1      -5.653  12.439  17.237  0.00  0.00    +0.000 C 
ATOM     18  C   UNL     1      -5.058  11.373  18.176  0.00  0.00    +0.000 C 
ATOM     19  C   UNL     1      -6.198  10.474  18.692  0.00  0.00    +0.000 C 
ATOM     20  C   UNL     1      -4.074  10.503  17.379  0.00  0.00    +0.000 C 
ENDBRANCH  12  18
ENDBRANCH  11  15
ENDBRANCH  10  11
ENDBRANCH   1  10
BRANCH   6  21
ATOM     21  C   UNL     1       3.230   6.055  19.494  0.00  0.00    +0.000 C 
BRANCH  21  22
ATOM     22  C   UNL     1       2.335   4.837  19.484  0.00  0.00    +0.000 A 
ATOM     23  C   UNL     1       1.886   4.271  20.688  0.00  0.00    +0.000 A 
ATOM     24  C   UNL     1       1.100   3.119  20.684  0.00  0.00    +0.000 A 
ATOM     25  C   UNL     1       0.739   2.528  19.476  0.00  0.00    +0.000 A 
ATOM     26  C   UNL     1       1.141   3.104  18.273  0.00  0.00    +0.000 A 
ATOM     27  C   UNL     1       1.929   4.257  18.274  0.00  0.00    +0.000 A 
ENDBRANCH  21  22
ENDBRANCH   6  21
TORSDOF 6
ENDMDL
MODEL 3
REMARK VINA RESULT:      -7.2      0.643      1.137
REMARK  Name = 
REMARK  9 active torsions:
REMARK  status: ('A' for Active; 'I' for Inactive)
REMARK    1  A    between atoms: C_1  and  C_2
REMARK    2  A    between atoms: C_2  and  C_3
REMARK    3  A    between atoms: C_2  and  C_4
REMARK    4  A    between atoms: C_2  and  C_5
REMARK    5  A    between atoms: C_8  and  C_9
REMARK    6  A    between atoms: C_9  and  S_10
REMARK    7  A    between atoms: S_10  and  C_11
REMARK    8  A    between atoms: C_16  and  C_18
REMARK    9  A    between atoms: C_18  and  C_19
REMARK                            x       y       z     vdW  Elec       q    Type
REMARK                         _______ _______ _______ _____ _____    ______ ____
ROOT
ATOM      1  C   UNL     1      -0.092  10.882  20.969  0.00  0.00    +0.000 A 
ATOM      2  C   UNL     1       0.131  10.659  19.626  0.00  0.00    +0.000 A 
ATOM      3  N   UNL     1       0.817   9.502  19.311  0.00  0.00    +0.000 NA
ATOM      4  C   UNL     1       1.127   8.857  20.402  0.00  0.00    +0.000 A 
ATOM      5  N   UNL     1       1.860   7.709  20.538  0.00  0.00    +0.000 N 
ATOM      6  C   UNL     1       2.547   7.179  19.460  0.00  0.00    +0.000 C 
ATOM      7  O   UNL     1       2.610   7.660  18.333  0.00  0.00    +0.000 OA
ATOM      8  S   UNL     1       0.552   9.546  21.859  0.00  0.00    +0.000 S 
ATOM      9  H   UNL     1       1.945   7.310  21.460  0.00  0.00    +0.000 HD
ENDROOT
BRANCH   1  10
ATOM     10  S   UNL     1      -0.831  12.268  21.762  0.00  0.00    +0.000 S 
BRANCH  10  11
ATOM     11  C   UNL     1      -1.794  13.061  20.436  0.00  0.00    +0.000 C 
BRANCH  11  15
ATOM     12  C   UNL     1      -5.236  12.210  19.901  0.00  0.00    +0.000 A 
ATOM     13  N   UNL     1      -5.348  12.306  21.212  0.00  0.00    +0.000 NA
ATOM     14  C   UNL     1      -4.096  12.651  21.638  0.00  0.00    +0.000 A 
ATOM     15  C   UNL     1      -3.240  12.748  20.565  0.00  0.00    +0.000 A 
ATOM     16  O   UNL     1      -3.965  12.457  19.432  0.00  0.00    +0.000 OA
BRANCH  12  18
ATOM     17  C   UNL     1      -6.672  10.413  18.988  0.00  0.00    +0.000 C 
ATOM     18  C   UNL     1      -6.348  11.917  18.920  0.00  0.00    +0.000 C 
ATOM     19  C   UNL     1      -5.868  12.256  17.495  0.00  0.00    +0.000 C 
ATOM     20  C   UNL     1      -7.629  12.715  19.206  0.00  0.00    +0.000 C 
ENDBRANCH  12  18
ENDBRANCH  11  15
ENDBRANCH  10  11
ENDBRANCH   1  10
BRANCH   6  21
ATOM     21  C   UNL     1       3.288   5.879  19.756  0.00  0.00    +0.000 C 
BRANCH  21  22
ATOM     22  C   UNL     1       2.466   4.651  19.437  0.00  0.00    +0.000 A 
ATOM     23  C   UNL     1       2.669   3.947  18.240  0.00  0.00    +0.000 A 
ATOM     24  C   UNL     1       1.879   2.843  17.919  0.00  0.00    +0.000 A 
ATOM     25  C   UNL     1       0.887   2.419  18.800  0.00  0.00    +0.000 A 
ATOM     26  C   UNL     1       0.703   3.083  20.011  0.00  0.00    +0.000 A 
ATOM     27  C   UNL     1       1.492   4.190  20.333  0.00  0.00    +0.000 A 
ENDBRANCH  21  22
ENDBRANCH   6  21
TORSDOF 6
ENDMDL
MODEL 4
REMARK VINA RESULT:      -7.2      3.994     10.076
REMARK  Name = 
REMARK  9 active torsions:
REMARK  status: ('A' for Active; 'I' for Inactive)
REMARK    1  A    between atoms: C_1  and  C_2
REMARK    2  A    between atoms: C_2  and  C_3
REMARK    3  A    between atoms: C_2  and  C_4
REMARK    4  A    between atoms: C_2  and  C_5
REMARK    5  A    between atoms: C_8  and  C_9
REMARK    6  A    between atoms: C_9  and  S_10
REMARK    7  A    between atoms: S_10  and  C_11
REMARK    8  A    between atoms: C_16  and  C_18
REMARK    9  A    between atoms: C_18  and  C_19
REMARK                            x       y       z     vdW  Elec       q    Type
REMARK                         _______ _______ _______ _____ _____    ______ ____
ROOT
ATOM      1  C   UNL     1       1.846   4.070  18.908  0.00  0.00    +0.000 A 
ATOM      2  C   UNL     1       2.001   5.235  18.186  0.00  0.00    +0.000 A 
ATOM      3  N   UNL     1       1.977   6.406  18.917  0.00  0.00    +0.000 NA
ATOM      4  C   UNL     1       1.790   6.139  20.180  0.00  0.00    +0.000 A 
ATOM      5  N   UNL     1       1.637   7.011  21.226  0.00  0.00    +0.000 N 
ATOM      6  C   UNL     1       1.474   8.365  20.996  0.00  0.00    +0.000 C 
ATOM      7  O   UNL     1       1.415   8.913  19.900  0.00  0.00    +0.000 OA
ATOM      8  S   UNL     1       1.713   4.478  20.584  0.00  0.00    +0.000 S 
ATOM      9  H   UNL     1       1.569   6.625  22.155  0.00  0.00    +0.000 HD
ENDROOT
BRANCH   1  10
ATOM     10  S   UNL     1       1.725   2.410  18.336  0.00  0.00    +0.000 S 
BRANCH  10  11
ATOM     11  C   UNL     1       3.441   1.807  18.396  0.00  0.00    +0.000 C 
BRANCH  11  15
ATOM     12  C   UNL     1       5.599   4.567  17.629  0.00  0.00    +0.000 A 
ATOM     13  N   UNL     1       5.857   4.581  18.923  0.00  0.00    +0.000 NA
ATOM     14  C   UNL     1       5.113   3.553  19.430  0.00  0.00    +0.000 A 
ATOM     15  C   UNL     1       4.405   2.937  18.424  0.00  0.00    +0.000 A 
ATOM     16  O   UNL     1       4.705   3.589  17.250  0.00  0.00    +0.000 OA
BRANCH  12  18
ATOM     17  C   UNL     1       6.927   4.567  15.540  0.00  0.00    +0.000 C 
ATOM     18  C   UNL     1       6.216   5.459  16.576  0.00  0.00    +0.000 C 
ATOM     19  C   UNL     1       7.261   6.377  17.239  0.00  0.00    +0.000 C 
ATOM     20  C   UNL     1       5.185   6.336  15.851  0.00  0.00    +0.000 C 
ENDBRANCH  12  18
ENDBRANCH  11  15
ENDBRANCH  10  11
ENDBRANCH   1  10
BRANCH   6  21
ATOM     21  C   UNL     1       1.352   9.213  22.258  0.00  0.00    +0.000 C 
BRANCH  21  22
ATOM     22  C   UNL     1       0.242  10.236  22.171  0.00  0.00    +0.000 A 
ATOM     23  C   UNL     1       0.202  11.156  21.111  0.00  0.00    +0.000 A 
ATOM     24  C   UNL     1      -0.792  12.133  21.053  0.00  0.00    +0.000 A 
ATOM     25  C   UNL     1      -1.768  12.192  22.045  0.00  0.00    +0.000 A 
ATOM     26  C   UNL     1      -1.765  11.257  23.079  0.00  0.00    +0.000 A 
ATOM     27  C   UNL     1      -0.769  10.279  23.139  0.00  0.00    +0.000 A 
ENDBRANCH  21  22
ENDBRANCH   6  21
TORSDOF 6
ENDMDL
MODEL 5
REMARK VINA RESULT:      -7.0      2.002      2.351
REMARK  Name = 
REMARK  9 active torsions:
REMARK  status: ('A' for Active; 'I' for Inactive)
REMARK    1  A    between atoms: C_1  and  C_2
REMARK    2  A    between atoms: C_2  and  C_3
REMARK    3  A    between atoms: C_2  and  C_4
REMARK    4  A    between atoms: C_2  and  C_5
REMARK    5  A    between atoms: C_8  and  C_9
REMARK    6  A    between atoms: C_9  and  S_10
REMARK    7  A    between atoms: S_10  and  C_11
REMARK    8  A    between atoms: C_16  and  C_18
REMARK    9  A    between atoms: C_18  and  C_19
REMARK                            x       y       z     vdW  Elec       q    Type
REMARK                         _______ _______ _______ _____ _____    ______ ____
ROOT
ATOM      1  C   UNL     1       0.005  10.637  20.474  0.00  0.00    +0.000 A 
ATOM      2  C   UNL     1       0.192   9.571  21.330  0.00  0.00    +0.000 A 
ATOM      3  N   UNL     1       1.005   8.557  20.863  0.00  0.00    +0.000 NA
ATOM      4  C   UNL     1       1.421   8.838  19.659  0.00  0.00    +0.000 A 
ATOM      5  N   UNL     1       2.185   8.074  18.818  0.00  0.00    +0.000 N 
ATOM      6  C   UNL     1       2.460   6.753  19.120  0.00  0.00    +0.000 C 
ATOM      7  O   UNL     1       2.052   6.132  20.096  0.00  0.00    +0.000 OA
ATOM      8  S   UNL     1       0.936  10.360  19.043  0.00  0.00    +0.000 S 
ATOM      9  H   UNL     1       2.472   8.481  17.941  0.00  0.00    +0.000 HD
ENDROOT
BRANCH   1  10
ATOM     10  S   UNL     1      -1.023  12.053  20.663  0.00  0.00    +0.000 S 
BRANCH  10  11
ATOM     11  C   UNL     1      -1.481  12.484  18.954  0.00  0.00    +0.000 C 
BRANCH  11  15
ATOM     12  C   UNL     1      -4.839  11.315  18.491  0.00  0.00    +0.000 A 
ATOM     13  N   UNL     1      -4.312  10.489  17.608  0.00  0.00    +0.000 NA
ATOM     14  C   UNL     1      -2.975  10.769  17.635  0.00  0.00    +0.000 A 
ATOM     15  C   UNL     1      -2.718  11.776  18.537  0.00  0.00    +0.000 A 
ATOM     16  O   UNL     1      -3.921  12.145  19.094  0.00  0.00    +0.000 OA
BRANCH  12  18
ATOM     17  C   UNL     1      -6.359  11.965  20.334  0.00  0.00    +0.000 C 
ATOM     18  C   UNL     1      -6.290  11.382  18.910  0.00  0.00    +0.000 C 
ATOM     19  C   UNL     1      -6.878   9.957  18.929  0.00  0.00    +0.000 C 
ATOM     20  C   UNL     1      -7.147  12.250  17.976  0.00  0.00    +0.000 C 
ENDBRANCH  12  18
ENDBRANCH  11  15
ENDBRANCH  10  11
ENDBRANCH   1  10
BRANCH   6  21
ATOM     21  C   UNL     1       3.353   6.042  18.108  0.00  0.00    +0.000 C 
BRANCH  21  22
ATOM     22  C   UNL     1       3.363   4.541  18.289  0.00  0.00    +0.000 A 
ATOM     23  C   UNL     1       4.312   3.930  19.124  0.00  0.00    +0.000 A 
ATOM     24  C   UNL     1       4.356   2.542  19.256  0.00  0.00    +0.000 A 
ATOM     25  C   UNL     1       3.442   1.749  18.567  0.00  0.00    +0.000 A 
ATOM     26  C   UNL     1       2.467   2.345  17.769  0.00  0.00    +0.000 A 
ATOM     27  C   UNL     1       2.422   3.734  17.635  0.00  0.00    +0.000 A 
ENDBRANCH  21  22
ENDBRANCH   6  21
TORSDOF 6
ENDMDL
MODEL 6
REMARK VINA RESULT:      -7.0      2.751      3.734
REMARK  Name = 
REMARK  9 active torsions:
REMARK  status: ('A' for Active; 'I' for Inactive)
REMARK    1  A    between atoms: C_1  and  C_2
REMARK    2  A    between atoms: C_2  and  C_3
REMARK    3  A    between atoms: C_2  and  C_4
REMARK    4  A    between atoms: C_2  and  C_5
REMARK    5  A    between atoms: C_8  and  C_9
REMARK    6  A    between atoms: C_9  and  S_10
REMARK    7  A    between atoms: S_10  and  C_11
REMARK    8  A    between atoms: C_16  and  C_18
REMARK    9  A    between atoms: C_18  and  C_19
REMARK                            x       y       z     vdW  Elec       q    Type
REMARK                         _______ _______ _______ _____ _____    ______ ____
ROOT
ATOM      1  C   UNL     1       1.274   9.905  19.230  0.00  0.00    +0.000 A 
ATOM      2  C   UNL     1       1.292   9.071  20.328  0.00  0.00    +0.000 A 
ATOM      3  N   UNL     1       1.758   7.790  20.106  0.00  0.00    +0.000 NA
ATOM      4  C   UNL     1       2.078   7.643  18.850  0.00  0.00    +0.000 A 
ATOM      5  N   UNL     1       2.513   6.518  18.203  0.00  0.00    +0.000 N 
ATOM      6  C   UNL     1       2.481   5.286  18.832  0.00  0.00    +0.000 C 
ATOM      7  O   UNL     1       2.055   5.059  19.960  0.00  0.00    +0.000 OA
ATOM      8  S   UNL     1       1.919   9.042  17.877  0.00  0.00    +0.000 S 
ATOM      9  H   UNL     1       2.781   6.604  17.235  0.00  0.00    +0.000 HD
ENDROOT
BRANCH   1  10
ATOM     10  S   UNL     1       0.669  11.552  19.089  0.00  0.00    +0.000 S 
BRANCH  10  11
ATOM     11  C   UNL     1      -0.910  11.509  19.995  0.00  0.00    +0.000 C 
BRANCH  11  15
ATOM     12  C   UNL     1      -4.089  11.563  18.336  0.00  0.00    +0.000 A 
ATOM     13  N   UNL     1      -3.479  10.884  17.384  0.00  0.00    +0.000 NA
ATOM     14  C   UNL     1      -2.199  10.735  17.838  0.00  0.00    +0.000 A 
ATOM     15  C   UNL     1      -2.056  11.341  19.065  0.00  0.00    +0.000 A 
ATOM     16  O   UNL     1      -3.273  11.889  19.398  0.00  0.00    +0.000 OA
BRANCH  12  18
ATOM     17  C   UNL     1      -5.913  12.622  17.041  0.00  0.00    +0.000 C 
ATOM     18  C   UNL     1      -5.551  11.945  18.377  0.00  0.00    +0.000 C 
ATOM     19  C   UNL     1      -5.780  12.952  19.521  0.00  0.00    +0.000 C 
ATOM     20  C   UNL     1      -6.482  10.742  18.592  0.00  0.00    +0.000 C 
ENDBRANCH  12  18
ENDBRANCH  11  15
ENDBRANCH  10  11
ENDBRANCH   1  10
BRANCH   6  21
ATOM     21  C   UNL     1       3.031   4.133  18.000  0.00  0.00    +0.000 C 
BRANCH  21  22
ATOM     22  C   UNL     1       4.476   4.333  17.605  0.00  0.00    +0.000 A 
ATOM     23  C   UNL     1       4.875   4.205  16.265  0.00  0.00    +0.000 A 
ATOM     24  C   UNL     1       6.215   4.340  15.904  0.00  0.00    +0.000 A 
ATOM     25  C   UNL     1       7.172   4.621  16.876  0.00  0.00    +0.000 A 
ATOM     26  C   UNL     1       6.784   4.793  18.203  0.00  0.00    +0.000 A 
ATOM     27  C   UNL     1       5.443   4.657  18.567  0.00  0.00    +0.000 A 
ENDBRANCH  21  22
ENDBRANCH   6  21
TORSDOF 6
ENDMDL
MODEL 7
REMARK VINA RESULT:      -7.0      1.349      1.978
REMARK  Name = 
REMARK  9 active torsions:
REMARK  status: ('A' for Active; 'I' for Inactive)
REMARK    1  A    between atoms: C_1  and  C_2
REMARK    2  A    between atoms: C_2  and  C_3
REMARK    3  A    between atoms: C_2  and  C_4
REMARK    4  A    between atoms: C_2  and  C_5
REMARK    5  A    between atoms: C_8  and  C_9
REMARK    6  A    between atoms: C_9  and  S_10
REMARK    7  A    between atoms: S_10  and  C_11
REMARK    8  A    between atoms: C_16  and  C_18
REMARK    9  A    between atoms: C_18  and  C_19
REMARK                            x       y       z     vdW  Elec       q    Type
REMARK                         _______ _______ _______ _____ _____    ______ ____
ROOT
ATOM      1  C   UNL     1      -0.068  10.673  20.250  0.00  0.00    +0.000 A 
ATOM      2  C   UNL     1       0.359  10.663  18.939  0.00  0.00    +0.000 A 
ATOM      3  N   UNL     1       1.120   9.574  18.561  0.00  0.00    +0.000 NA
ATOM      4  C   UNL     1       1.285   8.771  19.575  0.00  0.00    +0.000 A 
ATOM      5  N   UNL     1       2.026   7.622  19.646  0.00  0.00    +0.000 N 
ATOM      6  C   UNL     1       2.882   7.270  18.617  0.00  0.00    +0.000 C 
ATOM      7  O   UNL     1       3.096   7.920  17.599  0.00  0.00    +0.000 OA
ATOM      8  S   UNL     1       0.479   9.222  21.016  0.00  0.00    +0.000 S 
ATOM      9  H   UNL     1       1.985   7.086  20.499  0.00  0.00    +0.000 HD
ENDROOT
BRANCH   1  10
ATOM     10  S   UNL     1      -0.960  11.914  21.123  0.00  0.00    +0.000 S 
BRANCH  10  11
ATOM     11  C   UNL     1      -1.711  12.915  19.801  0.00  0.00    +0.000 C 
BRANCH  11  15
ATOM     12  C   UNL     1      -5.102  11.906  19.212  0.00  0.00    +0.000 A 
ATOM     13  N   UNL     1      -4.596  11.165  18.245  0.00  0.00    +0.000 NA
ATOM     14  C   UNL     1      -3.251  11.399  18.303  0.00  0.00    +0.000 A 
ATOM     15  C   UNL     1      -2.968  12.295  19.309  0.00  0.00    +0.000 A 
ATOM     16  O   UNL     1      -4.161  12.638  19.902  0.00  0.00    +0.000 OA
BRANCH  12  18
ATOM     17  C   UNL     1      -7.364  12.602  18.487  0.00  0.00    +0.000 C 
ATOM     18  C   UNL     1      -6.552  11.971  19.634  0.00  0.00    +0.000 C 
ATOM     19  C   UNL     1      -6.676  12.868  20.881  0.00  0.00    +0.000 C 
ATOM     20  C   UNL     1      -7.145  10.594  19.963  0.00  0.00    +0.000 C 
ENDBRANCH  12  18
ENDBRANCH  11  15
ENDBRANCH  10  11
ENDBRANCH   1  10
BRANCH   6  21
ATOM     21  C   UNL     1       3.611   5.947  18.822  0.00  0.00    +0.000 C 
BRANCH  21  22
ATOM     22  C   UNL     1       2.681   4.819  19.209  0.00  0.00    +0.000 A 
ATOM     23  C   UNL     1       1.928   4.148  18.232  0.00  0.00    +0.000 A 
ATOM     24  C   UNL     1       1.032   3.141  18.590  0.00  0.00    +0.000 A 
ATOM     25  C   UNL     1       0.891   2.781  19.928  0.00  0.00    +0.000 A 
ATOM     26  C   UNL     1       1.664   3.408  20.902  0.00  0.00    +0.000 A 
ATOM     27  C   UNL     1       2.561   4.418  20.546  0.00  0.00    +0.000 A 
ENDBRANCH  21  22
ENDBRANCH   6  21
TORSDOF 6
ENDMDL
MODEL 8
REMARK VINA RESULT:      -7.0      2.573      3.341
REMARK  Name = 
REMARK  9 active torsions:
REMARK  status: ('A' for Active; 'I' for Inactive)
REMARK    1  A    between atoms: C_1  and  C_2
REMARK    2  A    between atoms: C_2  and  C_3
REMARK    3  A    between atoms: C_2  and  C_4
REMARK    4  A    between atoms: C_2  and  C_5
REMARK    5  A    between atoms: C_8  and  C_9
REMARK    6  A    between atoms: C_9  and  S_10
REMARK    7  A    between atoms: S_10  and  C_11
REMARK    8  A    between atoms: C_16  and  C_18
REMARK    9  A    between atoms: C_18  and  C_19
REMARK                            x       y       z     vdW  Elec       q    Type
REMARK                         _______ _______ _______ _____ _____    ______ ____
ROOT
ATOM      1  C   UNL     1       0.953  10.028  19.220  0.00  0.00    +0.000 A 
ATOM      2  C   UNL     1       1.009   9.247  20.355  0.00  0.00    +0.000 A 
ATOM      3  N   UNL     1       1.623   8.018  20.213  0.00  0.00    +0.000 NA
ATOM      4  C   UNL     1       2.017   7.857  18.980  0.00  0.00    +0.000 A 
ATOM      5  N   UNL     1       2.604   6.761  18.405  0.00  0.00    +0.000 N 
ATOM      6  C   UNL     1       2.678   5.561  19.089  0.00  0.00    +0.000 C 
ATOM      7  O   UNL     1       2.225   5.334  20.207  0.00  0.00    +0.000 OA
ATOM      8  S   UNL     1       1.753   9.188  17.937  0.00  0.00    +0.000 S 
ATOM      9  H   UNL     1       2.908   6.837  17.447  0.00  0.00    +0.000 HD
ENDROOT
BRANCH   1  10
ATOM     10  S   UNL     1       0.177  11.589  18.976  0.00  0.00    +0.000 S 
BRANCH  10  11
ATOM     11  C   UNL     1      -1.401  11.166  18.174  0.00  0.00    +0.000 C 
BRANCH  11  15
ATOM     12  C   UNL     1      -4.631  12.182  19.355  0.00  0.00    +0.000 A 
ATOM     13  N   UNL     1      -3.969  12.739  20.351  0.00  0.00    +0.000 NA
ATOM     14  C   UNL     1      -2.657  12.471  20.081  0.00  0.00    +0.000 A 
ATOM     15  C   UNL     1      -2.551  11.741  18.919  0.00  0.00    +0.000 A 
ATOM     16  O   UNL     1      -3.825  11.540  18.441  0.00  0.00    +0.000 OA
BRANCH  12  18
ATOM     17  C   UNL     1      -6.830  12.214  20.491  0.00  0.00    +0.000 C 
ATOM     18  C   UNL     1      -6.124  12.237  19.122  0.00  0.00    +0.000 C 
ATOM     19  C   UNL     1      -6.557  10.994  18.320  0.00  0.00    +0.000 C 
ATOM     20  C   UNL     1      -6.568  13.491  18.355  0.00  0.00    +0.000 C 
ENDBRANCH  12  18
ENDBRANCH  11  15
ENDBRANCH  10  11
ENDBRANCH   1  10
BRANCH   6  21
ATOM     21  C   UNL     1       3.391   4.443  18.336  0.00  0.00    +0.000 C 
BRANCH  21  22
ATOM     22  C   UNL     1       4.881   4.670  18.223  0.00  0.00    +0.000 A 
ATOM     23  C   UNL     1       5.605   5.207  19.299  0.00  0.00    +0.000 A 
ATOM     24  C   UNL     1       6.970   5.465  19.182  0.00  0.00    +0.000 A 
ATOM     25  C   UNL     1       7.633   5.174  17.993  0.00  0.00    +0.000 A 
ATOM     26  C   UNL     1       6.936   4.600  16.931  0.00  0.00    +0.000 A 
ATOM     27  C   UNL     1       5.568   4.343  17.046  0.00  0.00    +0.000 A 
ENDBRANCH  21  22
ENDBRANCH   6  21
TORSDOF 6
ENDMDL
MODEL 9
REMARK VINA RESULT:      -6.9      2.557      3.381
REMARK  Name = 
REMARK  9 active torsions:
REMARK  status: ('A' for Active; 'I' for Inactive)
REMARK    1  A    between atoms: C_1  and  C_2
REMARK    2  A    between atoms: C_2  and  C_3
REMARK    3  A    between atoms: C_2  and  C_4
REMARK    4  A    between atoms: C_2  and  C_5
REMARK    5  A    between atoms: C_8  and  C_9
REMARK    6  A    between atoms: C_9  and  S_10
REMARK    7  A    between atoms: S_10  and  C_11
REMARK    8  A    between atoms: C_16  and  C_18
REMARK    9  A    between atoms: C_18  and  C_19
REMARK                            x       y       z     vdW  Elec       q    Type
REMARK                         _______ _______ _______ _____ _____    ______ ____
ROOT
ATOM      1  C   UNL     1       0.676   9.736  20.902  0.00  0.00    +0.000 A 
ATOM      2  C   UNL     1       1.065   9.819  19.581  0.00  0.00    +0.000 A 
ATOM      3  N   UNL     1       1.727   8.718  19.076  0.00  0.00    +0.000 NA
ATOM      4  C   UNL     1       1.855   7.810  20.004  0.00  0.00    +0.000 A 
ATOM      5  N   UNL     1       2.503   6.605  19.940  0.00  0.00    +0.000 N 
ATOM      6  C   UNL     1       3.300   6.291  18.854  0.00  0.00    +0.000 C 
ATOM      7  O   UNL     1       3.538   7.018  17.895  0.00  0.00    +0.000 OA
ATOM      8  S   UNL     1       1.126   8.179  21.508  0.00  0.00    +0.000 S 
ATOM      9  H   UNL     1       2.443   5.994  20.739  0.00  0.00    +0.000 HD
ENDROOT
BRANCH   1  10
ATOM     10  S   UNL     1      -0.091  10.951  21.919  0.00  0.00    +0.000 S 
BRANCH  10  11
ATOM     11  C   UNL     1      -0.330  12.364  20.796  0.00  0.00    +0.000 C 
BRANCH  11  15
ATOM     12  C   UNL     1      -3.098  11.645  18.633  0.00  0.00    +0.000 A 
ATOM     13  N   UNL     1      -3.786  12.438  19.433  0.00  0.00    +0.000 NA
ATOM     14  C   UNL     1      -2.877  12.852  20.366  0.00  0.00    +0.000 A 
ATOM     15  C   UNL     1      -1.647  12.289  20.114  0.00  0.00    +0.000 A 
ATOM     16  O   UNL     1      -1.778  11.497  18.996  0.00  0.00    +0.000 OA
BRANCH  12  18
ATOM     17  C   UNL     1      -3.605   9.443  17.623  0.00  0.00    +0.000 C 
ATOM     18  C   UNL     1      -3.607  10.964  17.383  0.00  0.00    +0.000 C 
ATOM     19  C   UNL     1      -2.658  11.283  16.211  0.00  0.00    +0.000 C 
ATOM     20  C   UNL     1      -5.027  11.403  16.993  0.00  0.00    +0.000 C 
ENDBRANCH  12  18
ENDBRANCH  11  15
ENDBRANCH  10  11
ENDBRANCH   1  10
BRANCH   6  21
ATOM     21  C   UNL     1       3.927   4.902  18.907  0.00  0.00    +0.000 C 
BRANCH  21  22
ATOM     22  C   UNL     1       5.011   4.709  17.871  0.00  0.00    +0.000 A 
ATOM     23  C   UNL     1       4.691   4.270  16.576  0.00  0.00    +0.000 A 
ATOM     24  C   UNL     1       5.692   4.043  15.632  0.00  0.00    +0.000 A 
ATOM     25  C   UNL     1       7.026   4.269  15.966  0.00  0.00    +0.000 A 
ATOM     26  C   UNL     1       7.354   4.746  17.233  0.00  0.00    +0.000 A 
ATOM     27  C   UNL     1       6.352   4.972  18.181  0.00  0.00    +0.000 A 
ENDBRANCH  21  22
ENDBRANCH   6  21
TORSDOF 6
ENDMDL
