MODEL 1
REMARK VINA RESULT:      -7.6      0.000      0.000
REMARK  Name = 
REMARK  7 active torsions:
REMARK  status: ('A' for Active; 'I' for Inactive)
REMARK    1  A    between atoms: C_1  and  C_2
REMARK    2  A    between atoms: C_2  and  N_3
REMARK    3  A    between atoms: C_7  and  C_8
REMARK    4  A    between atoms: N_13  and  S_14
REMARK    5  A    between atoms: S_14  and  C_17
REMARK    6  A    between atoms: C_21  and  O_22
REMARK    7  A    between atoms: O_22  and  C_23
REMARK                            x       y       z     vdW  Elec       q    Type
REMARK                         _______ _______ _______ _____ _____    ______ ____
ROOT
ATOM      1  C   UNL     1       3.825   5.612  19.044  0.00  0.00    +0.000 C 
ATOM      2  C   UNL     1       2.529   5.950  19.804  0.00  0.00    +0.000 C 
ATOM      3  C   UNL     1       2.161   7.416  19.687  0.00  0.00    +0.000 C 
ATOM      4  C   UNL     1       1.996   7.755  18.221  0.00  0.00    +0.000 C 
ATOM      5  C   UNL     1       3.294   7.505  17.464  0.00  0.00    +0.000 C 
ATOM      6  N   UNL     1       3.786   6.100  17.612  0.00  0.00    +0.000 NA
ENDROOT
BRANCH   1  11
ATOM      7  N   UNL     1       3.200   3.150  18.738  0.00  0.00    +0.000 N 
ATOM      8  C   UNL     1       3.688   1.970  19.213  0.00  0.00    +0.000 A 
ATOM      9  N   UNL     1       4.824   2.183  19.827  0.00  0.00    +0.000 NA
ATOM     10  N   UNL     1       5.078   3.530  19.771  0.00  0.00    +0.000 NA
ATOM     11  C   UNL     1       4.057   4.131  19.190  0.00  0.00    +0.000 A 
BRANCH   7  13
ATOM     12  C   UNL     1       0.770   2.763  18.720  0.00  0.00    +0.000 C 
ATOM     13  C   UNL     1       1.985   3.276  17.963  0.00  0.00    +0.000 C 
ENDBRANCH   7  13
ENDBRANCH   1  11
BRANCH   6  14
ATOM     14  S   UNL     1       5.162   5.777  16.577  0.00  0.00    +0.000 S 
ATOM     15  O   UNL     1       5.410   4.356  16.464  0.00  0.00    +0.000 OA
ATOM     16  O   UNL     1       5.013   6.577  15.386  0.00  0.00    +0.000 OA
BRANCH  14  17
ATOM     17  C   UNL     1       6.558   6.454  17.475  0.00  0.00    +0.000 A 
ATOM     18  C   UNL     1       7.268   5.629  18.353  0.00  0.00    +0.000 A 
ATOM     19  C   UNL     1       8.234   6.169  19.195  0.00  0.00    +0.000 A 
ATOM     20  C   UNL     1       8.597   7.499  19.038  0.00  0.00    +0.000 A 
ATOM     21  C   UNL     1       8.019   8.283  18.030  0.00  0.00    +0.000 A 
ATOM     22  C   UNL     1       6.969   7.769  17.266  0.00  0.00    +0.000 A 
BRANCH  21  23
ATOM     23  O   UNL     1       8.567   9.528  17.897  0.00  0.00    +0.000 OA
ATOM     24  C   UNL     1       9.186  10.068  19.060  0.00  0.00    +0.000 C 
ENDBRANCH  21  23
ENDBRANCH  14  17
ENDBRANCH   6  14
TORSDOF 5
ENDMDL
MODEL 2
REMARK VINA RESULT:      -7.5      2.701      3.861
REMARK  Name = 
REMARK  7 active torsions:
REMARK  status: ('A' for Active; 'I' for Inactive)
REMARK    1  A    between atoms: C_1  and  C_2
REMARK    2  A    between atoms: C_2  and  N_3
REMARK    3  A    between atoms: C_7  and  C_8
REMARK    4  A    between atoms: N_13  and  S_14
REMARK    5  A    between atoms: S_14  and  C_17
REMARK    6  A    between atoms: C_21  and  O_22
REMARK    7  A    between atoms: O_22  and  C_23
REMARK                            x       y       z     vdW  Elec       q    Type
REMARK                         _______ _______ _______ _____ _____    ______ ____
ROOT
ATOM      1  C   UNL     1       2.965   5.732  20.002  0.00  0.00    +0.000 C 
ATOM      2  C   UNL     1       1.752   6.645  19.742  0.00  0.00    +0.000 C 
ATOM      3  C   UNL     1       2.148   7.953  19.085  0.00  0.00    +0.000 C 
ATOM      4  C   UNL     1       2.842   7.641  17.776  0.00  0.00    +0.000 C 
ATOM      5  C   UNL     1       4.093   6.807  18.018  0.00  0.00    +0.000 C 
ATOM      6  N   UNL     1       3.805   5.539  18.759  0.00  0.00    +0.000 NA
ENDROOT
BRANCH   1  11
ATOM      7  N   UNL     1       1.666   3.530  19.943  0.00  0.00    +0.000 N 
ATOM      8  C   UNL     1       1.274   2.621  20.880  0.00  0.00    +0.000 A 
ATOM      9  N   UNL     1       1.848   2.896  22.022  0.00  0.00    +0.000 NA
ATOM     10  N   UNL     1       2.618   4.018  21.838  0.00  0.00    +0.000 NA
ATOM     11  C   UNL     1       2.444   4.455  20.606  0.00  0.00    +0.000 A 
BRANCH   7  13
ATOM     12  C   UNL     1       2.018   2.437  17.767  0.00  0.00    +0.000 C 
ATOM     13  C   UNL     1       1.261   3.494  18.554  0.00  0.00    +0.000 C 
ENDBRANCH   7  13
ENDBRANCH   1  11
BRANCH   6  14
ATOM     14  S   UNL     1       5.214   4.502  18.851  0.00  0.00    +0.000 S 
ATOM     15  O   UNL     1       6.233   5.078  19.701  0.00  0.00    +0.000 OA
ATOM     16  O   UNL     1       4.753   3.157  19.093  0.00  0.00    +0.000 OA
BRANCH  14  17
ATOM     17  C   UNL     1       5.886   4.521  17.190  0.00  0.00    +0.000 A 
ATOM     18  C   UNL     1       7.216   4.906  16.997  0.00  0.00    +0.000 A 
ATOM     19  C   UNL     1       7.709   5.106  15.712  0.00  0.00    +0.000 A 
ATOM     20  C   UNL     1       6.917   4.761  14.625  0.00  0.00    +0.000 A 
ATOM     21  C   UNL     1       5.648   4.196  14.817  0.00  0.00    +0.000 A 
ATOM     22  C   UNL     1       5.115   4.107  16.105  0.00  0.00    +0.000 A 
BRANCH  21  23
ATOM     23  O   UNL     1       5.036   3.777  13.670  0.00  0.00    +0.000 OA
ATOM     24  C   UNL     1       5.895   3.477  12.575  0.00  0.00    +0.000 C 
ENDBRANCH  21  23
ENDBRANCH  14  17
ENDBRANCH   6  14
TORSDOF 5
ENDMDL
MODEL 3
REMARK VINA RESULT:      -7.2      2.681      3.493
REMARK  Name = 
REMARK  7 active torsions:
REMARK  status: ('A' for Active; 'I' for Inactive)
REMARK    1  A    between atoms: C_1  and  C_2
REMARK    2  A    between atoms: C_2  and  N_3
REMARK    3  A    between atoms: C_7  and  C_8
REMARK    4  A    between atoms: N_13  and  S_14
REMARK    5  A    between atoms: S_14  and  C_17
REMARK    6  A    between atoms: C_21  and  O_22
REMARK    7  A    between atoms: O_22  and  C_23
REMARK                            x       y       z     vdW  Elec       q    Type
REMARK                         _______ _______ _______ _____ _____    ______ ____
ROOT
ATOM      1  C   UNL     1       3.047   5.859  19.924  0.00  0.00    +0.000 C 
ATOM      2  C   UNL     1       1.761   6.690  19.752  0.00  0.00    +0.000 C 
ATOM      3  C   UNL     1       2.035   8.053  19.147  0.00  0.00    +0.000 C 
ATOM      4  C   UNL     1       2.698   7.856  17.801  0.00  0.00    +0.000 C 
ATOM      5  C   UNL     1       4.016   7.107  17.957  0.00  0.00    +0.000 C 
ATOM      6  N   UNL     1       3.849   5.788  18.643  0.00  0.00    +0.000 NA
ENDROOT
BRANCH   1  11
ATOM      7  N   UNL     1       2.001   3.531  19.769  0.00  0.00    +0.000 N 
ATOM      8  C   UNL     1       1.672   2.564  20.672  0.00  0.00    +0.000 A 
ATOM      9  N   UNL     1       2.165   2.875  21.843  0.00  0.00    +0.000 NA
ATOM     10  N   UNL     1       2.814   4.077  21.712  0.00  0.00    +0.000 NA
ATOM     11  C   UNL     1       2.644   4.520  20.481  0.00  0.00    +0.000 A 
BRANCH   7  13
ATOM     12  C   UNL     1       2.191   2.225  17.692  0.00  0.00    +0.000 C 
ATOM     13  C   UNL     1       1.660   3.481  18.363  0.00  0.00    +0.000 C 
ENDBRANCH   7  13
ENDBRANCH   1  11
BRANCH   6  14
ATOM     14  S   UNL     1       5.333   4.856  18.634  0.00  0.00    +0.000 S 
ATOM     15  O   UNL     1       6.432   5.616  19.188  0.00  0.00    +0.000 OA
ATOM     16  O   UNL     1       5.030   3.545  19.155  0.00  0.00    +0.000 OA
BRANCH  14  17
ATOM     17  C   UNL     1       5.708   4.640  16.895  0.00  0.00    +0.000 A 
ATOM     18  C   UNL     1       4.852   3.867  16.104  0.00  0.00    +0.000 A 
ATOM     19  C   UNL     1       5.211   3.532  14.803  0.00  0.00    +0.000 A 
ATOM     20  C   UNL     1       6.346   4.108  14.248  0.00  0.00    +0.000 A 
ATOM     21  C   UNL     1       7.106   5.034  14.976  0.00  0.00    +0.000 A 
ATOM     22  C   UNL     1       6.807   5.275  16.319  0.00  0.00    +0.000 A 
BRANCH  21  23
ATOM     23  O   UNL     1       8.111   5.626  14.264  0.00  0.00    +0.000 OA
ATOM     24  C   UNL     1       8.060   5.459  12.851  0.00  0.00    +0.000 C 
ENDBRANCH  21  23
ENDBRANCH  14  17
ENDBRANCH   6  14
TORSDOF 5
ENDMDL
MODEL 4
REMARK VINA RESULT:      -7.1      0.949      1.647
REMARK  Name = 
REMARK  7 active torsions:
REMARK  status: ('A' for Active; 'I' for Inactive)
REMARK    1  A    between atoms: C_1  and  C_2
REMARK    2  A    between atoms: C_2  and  N_3
REMARK    3  A    between atoms: C_7  and  C_8
REMARK    4  A    between atoms: N_13  and  S_14
REMARK    5  A    between atoms: S_14  and  C_17
REMARK    6  A    between atoms: C_21  and  O_22
REMARK    7  A    between atoms: O_22  and  C_23
REMARK                            x       y       z     vdW  Elec       q    Type
REMARK                         _______ _______ _______ _____ _____    ______ ____
ROOT
ATOM      1  C   UNL     1       3.247   5.483  18.531  0.00  0.00    +0.000 C 
ATOM      2  C   UNL     1       1.990   5.986  19.267  0.00  0.00    +0.000 C 
ATOM      3  C   UNL     1       2.079   7.459  19.613  0.00  0.00    +0.000 C 
ATOM      4  C   UNL     1       2.267   8.243  18.332  0.00  0.00    +0.000 C 
ATOM      5  C   UNL     1       3.550   7.819  17.628  0.00  0.00    +0.000 C 
ATOM      6  N   UNL     1       3.590   6.351  17.340  0.00  0.00    +0.000 NA
ENDROOT
BRANCH   1  11
ATOM      7  N   UNL     1       3.729   2.980  18.739  0.00  0.00    +0.000 N 
ATOM      8  C   UNL     1       3.335   1.866  18.059  0.00  0.00    +0.000 A 
ATOM      9  N   UNL     1       2.376   2.180  17.226  0.00  0.00    +0.000 NA
ATOM     10  N   UNL     1       2.147   3.528  17.348  0.00  0.00    +0.000 NA
ATOM     11  C   UNL     1       3.021   4.032  18.199  0.00  0.00    +0.000 A 
BRANCH   7  13
ATOM     12  C   UNL     1       4.714   1.707  20.601  0.00  0.00    +0.000 C 
ATOM     13  C   UNL     1       4.736   2.985  19.778  0.00  0.00    +0.000 C 
ENDBRANCH   7  13
ENDBRANCH   1  11
BRANCH   6  14
ATOM     14  S   UNL     1       4.973   5.916  16.356  0.00  0.00    +0.000 S 
ATOM     15  O   UNL     1       5.081   4.481  16.210  0.00  0.00    +0.000 OA
ATOM     16  O   UNL     1       4.960   6.758  15.185  0.00  0.00    +0.000 OA
BRANCH  14  17
ATOM     17  C   UNL     1       6.387   6.422  17.334  0.00  0.00    +0.000 A 
ATOM     18  C   UNL     1       6.965   5.508  18.221  0.00  0.00    +0.000 A 
ATOM     19  C   UNL     1       7.940   5.925  19.120  0.00  0.00    +0.000 A 
ATOM     20  C   UNL     1       8.448   7.213  19.014  0.00  0.00    +0.000 A 
ATOM     21  C   UNL     1       8.004   8.075  18.001  0.00  0.00    +0.000 A 
ATOM     22  C   UNL     1       6.944   7.691  17.177  0.00  0.00    +0.000 A 
BRANCH  21  23
ATOM     23  O   UNL     1       8.685   9.257  17.926  0.00  0.00    +0.000 OA
ATOM     24  C   UNL     1       9.057   9.846  19.167  0.00  0.00    +0.000 C 
ENDBRANCH  21  23
ENDBRANCH  14  17
ENDBRANCH   6  14
TORSDOF 5
ENDMDL
MODEL 5
REMARK VINA RESULT:      -7.0      2.897      4.342
REMARK  Name = 
REMARK  7 active torsions:
REMARK  status: ('A' for Active; 'I' for Inactive)
REMARK    1  A    between atoms: C_1  and  C_2
REMARK    2  A    between atoms: C_2  and  N_3
REMARK    3  A    between atoms: C_7  and  C_8
REMARK    4  A    between atoms: N_13  and  S_14
REMARK    5  A    between atoms: S_14  and  C_17
REMARK    6  A    between atoms: C_21  and  O_22
REMARK    7  A    between atoms: O_22  and  C_23
REMARK                            x       y       z     vdW  Elec       q    Type
REMARK                         _______ _______ _______ _____ _____    ______ ____
ROOT
ATOM      1  C   UNL     1       2.742   5.354  18.726  0.00  0.00    +0.000 C 
ATOM      2  C   UNL     1       1.778   6.548  18.588  0.00  0.00    +0.000 C 
ATOM      3  C   UNL     1       2.510   7.874  18.525  0.00  0.00    +0.000 C 
ATOM      4  C   UNL     1       3.457   7.843  17.344  0.00  0.00    +0.000 C 
ATOM      5  C   UNL     1       4.474   6.720  17.501  0.00  0.00    +0.000 C 
ATOM      6  N   UNL     1       3.829   5.381  17.674  0.00  0.00    +0.000 NA
ENDROOT
BRANCH   1  11
ATOM      7  N   UNL     1       1.871   3.179  19.751  0.00  0.00    +0.000 N 
ATOM      8  C   UNL     1       1.135   2.128  19.291  0.00  0.00    +0.000 A 
ATOM      9  N   UNL     1       0.658   2.415  18.107  0.00  0.00    +0.000 NA
ATOM     10  N   UNL     1       1.103   3.670  17.774  0.00  0.00    +0.000 NA
ATOM     11  C   UNL     1       1.907   4.102  18.727  0.00  0.00    +0.000 A 
BRANCH   7  13
ATOM     12  C   UNL     1       1.643   2.573  22.125  0.00  0.00    +0.000 C 
ATOM     13  C   UNL     1       2.502   3.223  21.052  0.00  0.00    +0.000 C 
ENDBRANCH   7  13
ENDBRANCH   1  11
BRANCH   6  14
ATOM     14  S   UNL     1       5.005   4.082  17.650  0.00  0.00    +0.000 S 
ATOM     15  O   UNL     1       6.040   4.294  18.639  0.00  0.00    +0.000 OA
ATOM     16  O   UNL     1       4.280   2.835  17.625  0.00  0.00    +0.000 OA
BRANCH  14  17
ATOM     17  C   UNL     1       5.805   4.240  16.054  0.00  0.00    +0.000 A 
ATOM     18  C   UNL     1       7.100   4.765  15.990  0.00  0.00    +0.000 A 
ATOM     19  C   UNL     1       7.672   5.069  14.760  0.00  0.00    +0.000 A 
ATOM     20  C   UNL     1       7.012   4.692  13.598  0.00  0.00    +0.000 A 
ATOM     21  C   UNL     1       5.798   3.994  13.661  0.00  0.00    +0.000 A 
ATOM     22  C   UNL     1       5.173   3.796  14.894  0.00  0.00    +0.000 A 
BRANCH  21  23
ATOM     23  O   UNL     1       5.330   3.564  12.451  0.00  0.00    +0.000 OA
ATOM     24  C   UNL     1       6.106   2.565  11.797  0.00  0.00    +0.000 C 
ENDBRANCH  21  23
ENDBRANCH  14  17
ENDBRANCH   6  14
TORSDOF 5
ENDMDL
MODEL 6
REMARK VINA RESULT:      -6.9      2.284      2.900
REMARK  Name = 
REMARK  7 active torsions:
REMARK  status: ('A' for Active; 'I' for Inactive)
REMARK    1  A    between atoms: C_1  and  C_2
REMARK    2  A    between atoms: C_2  and  N_3
REMARK    3  A    between atoms: C_7  and  C_8
REMARK    4  A    between atoms: N_13  and  S_14
REMARK    5  A    between atoms: S_14  and  C_17
REMARK    6  A    between atoms: C_21  and  O_22
REMARK    7  A    between atoms: O_22  and  C_23
REMARK                            x       y       z     vdW  Elec       q    Type
REMARK                         _______ _______ _______ _____ _____    ______ ____
ROOT
ATOM      1  C   UNL     1       2.859   5.329  20.122  0.00  0.00    +0.000 C 
ATOM      2  C   UNL     1       1.807   6.450  20.219  0.00  0.00    +0.000 C 
ATOM      3  C   UNL     1       2.211   7.685  19.439  0.00  0.00    +0.000 C 
ATOM      4  C   UNL     1       2.408   7.295  17.990  0.00  0.00    +0.000 C 
ATOM      5  C   UNL     1       3.504   6.244  17.861  0.00  0.00    +0.000 C 
ATOM      6  N   UNL     1       3.232   5.027  18.687  0.00  0.00    +0.000 NA
ENDROOT
BRANCH   1  11
ATOM      7  N   UNL     1       1.300   3.330  20.464  0.00  0.00    +0.000 N 
ATOM      8  C   UNL     1       1.018   2.500  21.508  0.00  0.00    +0.000 A 
ATOM      9  N   UNL     1       1.873   2.710  22.476  0.00  0.00    +0.000 NA
ATOM     10  N   UNL     1       2.721   3.710  22.068  0.00  0.00    +0.000 NA
ATOM     11  C   UNL     1       2.326   4.148  20.888  0.00  0.00    +0.000 A 
BRANCH   7  13
ATOM     12  C   UNL     1       0.612   1.964  18.536  0.00  0.00    +0.000 C 
ATOM     13  C   UNL     1       0.584   3.329  19.207  0.00  0.00    +0.000 C 
ENDBRANCH   7  13
ENDBRANCH   1  11
BRANCH   6  14
ATOM     14  S   UNL     1       4.394   3.753  18.373  0.00  0.00    +0.000 S 
ATOM     15  O   UNL     1       5.237   3.518  19.526  0.00  0.00    +0.000 OA
ATOM     16  O   UNL     1       3.685   2.653  17.766  0.00  0.00    +0.000 OA
BRANCH  14  17
ATOM     17  C   UNL     1       5.464   4.433  17.107  0.00  0.00    +0.000 A 
ATOM     18  C   UNL     1       5.438   3.879  15.823  0.00  0.00    +0.000 A 
ATOM     19  C   UNL     1       6.382   4.262  14.876  0.00  0.00    +0.000 A 
ATOM     20  C   UNL     1       7.241   5.313  15.167  0.00  0.00    +0.000 A 
ATOM     21  C   UNL     1       7.144   5.998  16.386  0.00  0.00    +0.000 A 
ATOM     22  C   UNL     1       6.275   5.535  17.376  0.00  0.00    +0.000 A 
BRANCH  21  23
ATOM     23  O   UNL     1       7.952   7.096  16.484  0.00  0.00    +0.000 OA
ATOM     24  C   UNL     1       7.790   7.890  17.655  0.00  0.00    +0.000 C 
ENDBRANCH  21  23
ENDBRANCH  14  17
ENDBRANCH   6  14
TORSDOF 5
ENDMDL
MODEL 7
REMARK VINA RESULT:      -6.8      2.297      3.098
REMARK  Name = 
REMARK  7 active torsions:
REMARK  status: ('A' for Active; 'I' for Inactive)
REMARK    1  A    between atoms: C_1  and  C_2
REMARK    2  A    between atoms: C_2  and  N_3
REMARK    3  A    between atoms: C_7  and  C_8
REMARK    4  A    between atoms: N_13  and  S_14
REMARK    5  A    between atoms: S_14  and  C_17
REMARK    6  A    between atoms: C_21  and  O_22
REMARK    7  A    between atoms: O_22  and  C_23
REMARK                            x       y       z     vdW  Elec       q    Type
REMARK                         _______ _______ _______ _____ _____    ______ ____
ROOT
ATOM      1  C   UNL     1       2.747   5.273  20.339  0.00  0.00    +0.000 C 
ATOM      2  C   UNL     1       1.669   6.360  20.502  0.00  0.00    +0.000 C 
ATOM      3  C   UNL     1       2.057   7.661  19.827  0.00  0.00    +0.000 C 
ATOM      4  C   UNL     1       2.288   7.388  18.356  0.00  0.00    +0.000 C 
ATOM      5  C   UNL     1       3.409   6.374  18.168  0.00  0.00    +0.000 C 
ATOM      6  N   UNL     1       3.152   5.091  18.892  0.00  0.00    +0.000 NA
ENDROOT
BRANCH   1  11
ATOM      7  N   UNL     1       1.251   3.203  20.482  0.00  0.00    +0.000 N 
ATOM      8  C   UNL     1       0.959   2.295  21.455  0.00  0.00    +0.000 A 
ATOM      9  N   UNL     1       1.768   2.467  22.469  0.00  0.00    +0.000 NA
ATOM     10  N   UNL     1       2.594   3.520  22.165  0.00  0.00    +0.000 NA
ATOM     11  C   UNL     1       2.229   4.024  21.002  0.00  0.00    +0.000 A 
BRANCH   7  13
ATOM     12  C   UNL     1       0.722   1.963  18.423  0.00  0.00    +0.000 C 
ATOM     13  C   UNL     1       0.584   3.264  19.199  0.00  0.00    +0.000 C 
ENDBRANCH   7  13
ENDBRANCH   1  11
BRANCH   6  14
ATOM     14  S   UNL     1       4.348   3.870  18.503  0.00  0.00    +0.000 S 
ATOM     15  O   UNL     1       4.830   3.211  19.697  0.00  0.00    +0.000 OA
ATOM     16  O   UNL     1       3.833   3.086  17.407  0.00  0.00    +0.000 OA
BRANCH  14  17
ATOM     17  C   UNL     1       5.735   4.802  17.857  0.00  0.00    +0.000 A 
ATOM     18  C   UNL     1       6.492   5.591  18.729  0.00  0.00    +0.000 A 
ATOM     19  C   UNL     1       7.454   6.462  18.230  0.00  0.00    +0.000 A 
ATOM     20  C   UNL     1       7.766   6.419  16.878  0.00  0.00    +0.000 A 
ATOM     21  C   UNL     1       7.141   5.494  16.030  0.00  0.00    +0.000 A 
ATOM     22  C   UNL     1       6.095   4.705  16.513  0.00  0.00    +0.000 A 
BRANCH  21  23
ATOM     23  O   UNL     1       7.640   5.464  14.759  0.00  0.00    +0.000 OA
ATOM     24  C   UNL     1       6.895   4.708  13.810  0.00  0.00    +0.000 C 
ENDBRANCH  21  23
ENDBRANCH  14  17
ENDBRANCH   6  14
TORSDOF 5
ENDMDL
MODEL 8
REMARK VINA RESULT:      -6.7      2.750      5.560
REMARK  Name = 
REMARK  7 active torsions:
REMARK  status: ('A' for Active; 'I' for Inactive)
REMARK    1  A    between atoms: C_1  and  C_2
REMARK    2  A    between atoms: C_2  and  N_3
REMARK    3  A    between atoms: C_7  and  C_8
REMARK    4  A    between atoms: N_13  and  S_14
REMARK    5  A    between atoms: S_14  and  C_17
REMARK    6  A    between atoms: C_21  and  O_22
REMARK    7  A    between atoms: O_22  and  C_23
REMARK                            x       y       z     vdW  Elec       q    Type
REMARK                         _______ _______ _______ _____ _____    ______ ____
ROOT
ATOM      1  C   UNL     1       4.118   3.868  17.404  0.00  0.00    +0.000 C 
ATOM      2  C   UNL     1       3.293   2.646  16.958  0.00  0.00    +0.000 C 
ATOM      3  C   UNL     1       2.185   2.313  17.938  0.00  0.00    +0.000 C 
ATOM      4  C   UNL     1       1.281   3.520  18.068  0.00  0.00    +0.000 C 
ATOM      5  C   UNL     1       2.061   4.721  18.588  0.00  0.00    +0.000 C 
ATOM      6  N   UNL     1       3.240   5.056  17.730  0.00  0.00    +0.000 NA
ENDROOT
BRANCH   1  11
ATOM      7  N   UNL     1       6.474   4.416  16.570  0.00  0.00    +0.000 N 
ATOM      8  C   UNL     1       7.012   4.746  15.362  0.00  0.00    +0.000 A 
ATOM      9  N   UNL     1       6.116   4.577  14.424  0.00  0.00    +0.000 NA
ATOM     10  N   UNL     1       4.961   4.145  15.028  0.00  0.00    +0.000 NA
ATOM     11  C   UNL     1       5.146   4.129  16.335  0.00  0.00    +0.000 A 
BRANCH   7  13
ATOM     12  C   UNL     1       7.704   5.830  18.164  0.00  0.00    +0.000 C 
ATOM     13  C   UNL     1       7.204   4.436  17.819  0.00  0.00    +0.000 C 
ENDBRANCH   7  13
ENDBRANCH   1  11
BRANCH   6  14
ATOM     14  S   UNL     1       4.004   6.553  18.225  0.00  0.00    +0.000 S 
ATOM     15  O   UNL     1       4.791   6.367  19.424  0.00  0.00    +0.000 OA
ATOM     16  O   UNL     1       4.605   7.146  17.055  0.00  0.00    +0.000 OA
BRANCH  14  17
ATOM     17  C   UNL     1       2.636   7.614  18.690  0.00  0.00    +0.000 A 
ATOM     18  C   UNL     1       2.090   8.479  17.736  0.00  0.00    +0.000 A 
ATOM     19  C   UNL     1       1.156   9.438  18.114  0.00  0.00    +0.000 A 
ATOM     20  C   UNL     1       0.655   9.417  19.408  0.00  0.00    +0.000 A 
ATOM     21  C   UNL     1       1.062   8.431  20.316  0.00  0.00    +0.000 A 
ATOM     22  C   UNL     1       2.084   7.545  19.968  0.00  0.00    +0.000 A 
BRANCH  21  23
ATOM     23  O   UNL     1       0.389   8.443  21.505  0.00  0.00    +0.000 OA
ATOM     24  C   UNL     1       0.827   9.400  22.464  0.00  0.00    +0.000 C 
ENDBRANCH  21  23
ENDBRANCH  14  17
ENDBRANCH   6  14
TORSDOF 5
ENDMDL
MODEL 9
REMARK VINA RESULT:      -6.7      2.842      3.898
REMARK  Name = 
REMARK  7 active torsions:
REMARK  status: ('A' for Active; 'I' for Inactive)
REMARK    1  A    between atoms: C_1  and  C_2
REMARK    2  A    between atoms: C_2  and  N_3
REMARK    3  A    between atoms: C_7  and  C_8
REMARK    4  A    between atoms: N_13  and  S_14
REMARK    5  A    between atoms: S_14  and  C_17
REMARK    6  A    between atoms: C_21  and  O_22
REMARK    7  A    between atoms: O_22  and  C_23
REMARK                            x       y       z     vdW  Elec       q    Type
REMARK                         _______ _______ _______ _____ _____    ______ ____
ROOT
ATOM      1  C   UNL     1       2.951   5.265  18.655  0.00  0.00    +0.000 C 
ATOM      2  C   UNL     1       1.957   6.442  18.644  0.00  0.00    +0.000 C 
ATOM      3  C   UNL     1       2.658   7.785  18.599  0.00  0.00    +0.000 C 
ATOM      4  C   UNL     1       3.522   7.835  17.357  0.00  0.00    +0.000 C 
ATOM      5  C   UNL     1       4.568   6.727  17.387  0.00  0.00    +0.000 C 
ATOM      6  N   UNL     1       3.962   5.368  17.535  0.00  0.00    +0.000 NA
ENDROOT
BRANCH   1  11
ATOM      7  N   UNL     1       2.209   3.013  19.614  0.00  0.00    +0.000 N 
ATOM      8  C   UNL     1       1.456   1.974  19.153  0.00  0.00    +0.000 A 
ATOM      9  N   UNL     1       0.875   2.320  18.034  0.00  0.00    +0.000 NA
ATOM     10  N   UNL     1       1.268   3.603  17.743  0.00  0.00    +0.000 NA
ATOM     11  C   UNL     1       2.142   3.995  18.649  0.00  0.00    +0.000 A 
BRANCH   7  13
ATOM     12  C   UNL     1       2.028   3.047  22.068  0.00  0.00    +0.000 C 
ATOM     13  C   UNL     1       2.948   2.993  20.858  0.00  0.00    +0.000 C 
ENDBRANCH   7  13
ENDBRANCH   1  11
BRANCH   6  14
ATOM     14  S   UNL     1       5.158   4.098  17.365  0.00  0.00    +0.000 S 
ATOM     15  O   UNL     1       6.295   4.331  18.229  0.00  0.00    +0.000 OA
ATOM     16  O   UNL     1       4.465   2.834  17.417  0.00  0.00    +0.000 OA
BRANCH  14  17
ATOM     17  C   UNL     1       5.763   4.282  15.689  0.00  0.00    +0.000 A 
ATOM     18  C   UNL     1       5.002   3.774  14.630  0.00  0.00    +0.000 A 
ATOM     19  C   UNL     1       5.528   3.739  13.343  0.00  0.00    +0.000 A 
ATOM     20  C   UNL     1       6.744   4.360  13.095  0.00  0.00    +0.000 A 
ATOM     21  C   UNL     1       7.423   5.037  14.119  0.00  0.00    +0.000 A 
ATOM     22  C   UNL     1       6.948   4.968  15.430  0.00  0.00    +0.000 A 
BRANCH  21  23
ATOM     23  O   UNL     1       8.533   5.719  13.707  0.00  0.00    +0.000 OA
ATOM     24  C   UNL     1       8.567   6.089  12.333  0.00  0.00    +0.000 C 
ENDBRANCH  21  23
ENDBRANCH  14  17
ENDBRANCH   6  14
TORSDOF 5
ENDMDL
