MODEL 1
REMARK VINA RESULT:      -7.2      0.000      0.000
REMARK  Name = 
REMARK  4 active torsions:
REMARK  status: ('A' for Active; 'I' for Inactive)
REMARK    1  A    between atoms: C_2  and  C_3
REMARK    2  A    between atoms: C_8  and  N_9
REMARK    3  A    between atoms: N_17  and  C_18
REMARK    4  A    between atoms: C_18  and  C_19
REMARK                            x       y       z     vdW  Elec       q    Type
REMARK                         _______ _______ _______ _____ _____    ______ ____
ROOT
ATOM      1  O   UNL     1       5.405   3.617  19.676  0.00  0.00    +0.000 OA
ATOM      2  C   UNL     1       4.733   3.806  18.665  0.00  0.00    +0.000 C 
ATOM      3  N   UNL     1       5.273   4.367  17.501  0.00  0.00    +0.000 N 
ATOM      4  C   UNL     1       4.616   4.445  16.185  0.00  0.00    +0.000 C 
ATOM      5  C   UNL     1       5.029   5.657  15.345  0.00  0.00    +0.000 C 
ATOM      6  N   UNL     1       6.482   5.863  15.258  0.00  0.00    +0.000 NA
ATOM      7  C   UNL     1       6.989   5.948  16.655  0.00  0.00    +0.000 C 
ATOM      8  C   UNL     1       6.703   4.695  17.508  0.00  0.00    +0.000 C 
ENDROOT
BRANCH   2   9
ATOM      9  C   UNL     1       3.322   3.333  18.684  0.00  0.00    +0.000 A 
ATOM     10  C   UNL     1       3.051   1.963  18.555  0.00  0.00    +0.000 A 
ATOM     11  C   UNL     1       1.753   1.481  18.599  0.00  0.00    +0.000 A 
ATOM     12  C   UNL     1       0.756   2.368  18.949  0.00  0.00    +0.000 A 
ATOM     13  N   UNL     1       0.977   3.675  19.207  0.00  0.00    +0.000 NA
ATOM     14  C   UNL     1       2.249   4.157  19.020  0.00  0.00    +0.000 A 
BRANCH  14  15
ATOM     15  N   UNL     1       2.387   5.581  19.100  0.00  0.00    +0.000 N 
ATOM     16  C   UNL     1       2.176   6.342  20.237  0.00  0.00    +0.000 A 
ATOM     17  C   UNL     1       2.268   7.658  19.851  0.00  0.00    +0.000 A 
ATOM     18  C   UNL     1       2.493   7.611  18.476  0.00  0.00    +0.000 A 
ATOM     19  N   UNL     1       2.547   6.363  17.999  0.00  0.00    +0.000 NA
ENDBRANCH  14  15
ENDBRANCH   2   9
BRANCH   6  20
ATOM     20  C   UNL     1       7.165   4.797  14.512  0.00  0.00    +0.000 C 
BRANCH  20  21
ATOM     21  C   UNL     1       6.632   4.653  13.113  0.00  0.00    +0.000 C 
ATOM     22  C   UNL     1       7.314   3.701  12.157  0.00  0.00    +0.000 C 
ATOM     23  C   UNL     1       5.939   3.383  12.669  0.00  0.00    +0.000 C 
ENDBRANCH  20  21
ENDBRANCH   6  20
TORSDOF 4
ENDMDL
MODEL 2
REMARK VINA RESULT:      -6.6      1.859      6.176
REMARK  Name = 
REMARK  4 active torsions:
REMARK  status: ('A' for Active; 'I' for Inactive)
REMARK    1  A    between atoms: C_2  and  C_3
REMARK    2  A    between atoms: C_8  and  N_9
REMARK    3  A    between atoms: N_17  and  C_18
REMARK    4  A    between atoms: C_18  and  C_19
REMARK                            x       y       z     vdW  Elec       q    Type
REMARK                         _______ _______ _______ _____ _____    ______ ____
ROOT
ATOM      1  O   UNL     1       4.228   7.531  16.134  0.00  0.00    +0.000 OA
ATOM      2  C   UNL     1       4.491   6.394  16.517  0.00  0.00    +0.000 C 
ATOM      3  N   UNL     1       3.871   5.817  17.633  0.00  0.00    +0.000 N 
ATOM      4  C   UNL     1       3.961   4.407  18.048  0.00  0.00    +0.000 C 
ATOM      5  C   UNL     1       3.853   4.186  19.559  0.00  0.00    +0.000 C 
ATOM      6  N   UNL     1       2.723   4.885  20.190  0.00  0.00    +0.000 NA
ATOM      7  C   UNL     1       2.857   6.325  19.840  0.00  0.00    +0.000 C 
ATOM      8  C   UNL     1       2.849   6.610  18.324  0.00  0.00    +0.000 C 
ENDROOT
BRANCH   2   9
ATOM      9  C   UNL     1       5.443   5.599  15.695  0.00  0.00    +0.000 A 
ATOM     10  C   UNL     1       4.965   4.873  14.594  0.00  0.00    +0.000 A 
ATOM     11  C   UNL     1       5.825   4.147  13.786  0.00  0.00    +0.000 A 
ATOM     12  C   UNL     1       7.179   4.303  13.994  0.00  0.00    +0.000 A 
ATOM     13  N   UNL     1       7.700   5.089  14.961  0.00  0.00    +0.000 NA
ATOM     14  C   UNL     1       6.827   5.687  15.836  0.00  0.00    +0.000 A 
BRANCH  14  15
ATOM     15  N   UNL     1       7.430   6.333  16.964  0.00  0.00    +0.000 N 
ATOM     16  C   UNL     1       7.625   5.755  18.207  0.00  0.00    +0.000 A 
ATOM     17  C   UNL     1       8.089   6.749  19.034  0.00  0.00    +0.000 A 
ATOM     18  C   UNL     1       8.110   7.893  18.238  0.00  0.00    +0.000 A 
ATOM     19  N   UNL     1       7.694   7.667  16.988  0.00  0.00    +0.000 NA
ENDBRANCH  14  15
ENDBRANCH   2   9
BRANCH   6  20
ATOM     20  C   UNL     1       1.418   4.357  19.766  0.00  0.00    +0.000 C 
BRANCH  20  21
ATOM     21  C   UNL     1       1.293   2.880  20.022  0.00  0.00    +0.000 C 
ATOM     22  C   UNL     1       0.402   2.048  19.128  0.00  0.00    +0.000 C 
ATOM     23  C   UNL     1       1.890   1.869  19.068  0.00  0.00    +0.000 C 
ENDBRANCH  20  21
ENDBRANCH   6  20
TORSDOF 4
ENDMDL
MODEL 3
REMARK VINA RESULT:      -6.5      2.063      6.440
REMARK  Name = 
REMARK  4 active torsions:
REMARK  status: ('A' for Active; 'I' for Inactive)
REMARK    1  A    between atoms: C_2  and  C_3
REMARK    2  A    between atoms: C_8  and  N_9
REMARK    3  A    between atoms: N_17  and  C_18
REMARK    4  A    between atoms: C_18  and  C_19
REMARK                            x       y       z     vdW  Elec       q    Type
REMARK                         _______ _______ _______ _____ _____    ______ ____
ROOT
ATOM      1  O   UNL     1       4.082   7.220  16.183  0.00  0.00    +0.000 OA
ATOM      2  C   UNL     1       4.449   6.091  16.501  0.00  0.00    +0.000 C 
ATOM      3  N   UNL     1       3.929   5.421  17.617  0.00  0.00    +0.000 N 
ATOM      4  C   UNL     1       4.145   4.006  17.963  0.00  0.00    +0.000 C 
ATOM      5  C   UNL     1       4.128   3.715  19.466  0.00  0.00    +0.000 C 
ATOM      6  N   UNL     1       2.980   4.296  20.178  0.00  0.00    +0.000 NA
ATOM      7  C   UNL     1       2.988   5.756  19.888  0.00  0.00    +0.000 C 
ATOM      8  C   UNL     1       2.885   6.103  18.389  0.00  0.00    +0.000 C 
ENDROOT
BRANCH   2   9
ATOM      9  C   UNL     1       5.418   5.408  15.602  0.00  0.00    +0.000 A 
ATOM     10  C   UNL     1       4.945   4.720  14.474  0.00  0.00    +0.000 A 
ATOM     11  C   UNL     1       5.818   4.098  13.596  0.00  0.00    +0.000 A 
ATOM     12  C   UNL     1       7.167   4.326  13.770  0.00  0.00    +0.000 A 
ATOM     13  N   UNL     1       7.673   5.084  14.766  0.00  0.00    +0.000 NA
ATOM     14  C   UNL     1       6.798   5.574  15.704  0.00  0.00    +0.000 A 
BRANCH  14  15
ATOM     15  N   UNL     1       7.401   6.188  16.849  0.00  0.00    +0.000 N 
ATOM     16  C   UNL     1       7.628   5.564  18.065  0.00  0.00    +0.000 A 
ATOM     17  C   UNL     1       8.079   6.534  18.926  0.00  0.00    +0.000 A 
ATOM     18  C   UNL     1       8.059   7.711  18.179  0.00  0.00    +0.000 A 
ATOM     19  N   UNL     1       7.631   7.526  16.926  0.00  0.00    +0.000 NA
ENDBRANCH  14  15
ENDBRANCH   2   9
BRANCH   6  20
ATOM     20  C   UNL     1       1.699   3.687  19.789  0.00  0.00    +0.000 C 
BRANCH  20  21
ATOM     21  C   UNL     1       1.333   2.526  20.672  0.00  0.00    +0.000 C 
ATOM     22  C   UNL     1       2.373   1.953  21.608  0.00  0.00    +0.000 C 
ATOM     23  C   UNL     1       1.196   2.696  22.169  0.00  0.00    +0.000 C 
ENDBRANCH  20  21
ENDBRANCH   6  20
TORSDOF 4
ENDMDL
MODEL 4
REMARK VINA RESULT:      -6.4      1.827      3.519
REMARK  Name = 
REMARK  4 active torsions:
REMARK  status: ('A' for Active; 'I' for Inactive)
REMARK    1  A    between atoms: C_2  and  C_3
REMARK    2  A    between atoms: C_8  and  N_9
REMARK    3  A    between atoms: N_17  and  C_18
REMARK    4  A    between atoms: C_18  and  C_19
REMARK                            x       y       z     vdW  Elec       q    Type
REMARK                         _______ _______ _______ _____ _____    ______ ____
ROOT
ATOM      1  O   UNL     1       1.974   4.104  17.568  0.00  0.00    +0.000 OA
ATOM      2  C   UNL     1       2.838   4.957  17.754  0.00  0.00    +0.000 C 
ATOM      3  N   UNL     1       4.091   4.904  17.128  0.00  0.00    +0.000 N 
ATOM      4  C   UNL     1       5.108   5.969  17.122  0.00  0.00    +0.000 C 
ATOM      5  C   UNL     1       6.551   5.463  17.047  0.00  0.00    +0.000 C 
ATOM      6  N   UNL     1       6.783   4.461  15.996  0.00  0.00    +0.000 NA
ATOM      7  C   UNL     1       5.811   3.358  16.231  0.00  0.00    +0.000 C 
ATOM      8  C   UNL     1       4.334   3.799  16.195  0.00  0.00    +0.000 C 
ENDROOT
BRANCH   2   9
ATOM      9  C   UNL     1       2.479   6.117  18.614  0.00  0.00    +0.000 A 
ATOM     10  C   UNL     1       2.481   7.409  18.066  0.00  0.00    +0.000 A 
ATOM     11  C   UNL     1       2.122   8.510  18.825  0.00  0.00    +0.000 A 
ATOM     12  C   UNL     1       1.597   8.277  20.079  0.00  0.00    +0.000 A 
ATOM     13  N   UNL     1       1.455   7.043  20.610  0.00  0.00    +0.000 NA
ATOM     14  C   UNL     1       1.947   5.979  19.895  0.00  0.00    +0.000 A 
BRANCH  14  15
ATOM     15  N   UNL     1       1.966   4.726  20.588  0.00  0.00    +0.000 N 
ATOM     16  C   UNL     1       3.105   4.069  21.023  0.00  0.00    +0.000 A 
ATOM     17  C   UNL     1       2.696   2.847  21.499  0.00  0.00    +0.000 A 
ATOM     18  C   UNL     1       1.319   2.824  21.284  0.00  0.00    +0.000 A 
ATOM     19  N   UNL     1       0.861   3.943  20.713  0.00  0.00    +0.000 NA
ENDBRANCH  14  15
ENDBRANCH   2   9
BRANCH   6  20
ATOM     20  C   UNL     1       6.640   5.012  14.641  0.00  0.00    +0.000 C 
BRANCH  20  21
ATOM     21  C   UNL     1       6.827   3.962  13.580  0.00  0.00    +0.000 C 
ATOM     22  C   UNL     1       5.716   3.711  12.585  0.00  0.00    +0.000 C 
ATOM     23  C   UNL     1       6.997   4.344  12.125  0.00  0.00    +0.000 C 
ENDBRANCH  20  21
ENDBRANCH   6  20
TORSDOF 4
ENDMDL
MODEL 5
REMARK VINA RESULT:      -6.4      2.802      6.786
REMARK  Name = 
REMARK  4 active torsions:
REMARK  status: ('A' for Active; 'I' for Inactive)
REMARK    1  A    between atoms: C_2  and  C_3
REMARK    2  A    between atoms: C_8  and  N_9
REMARK    3  A    between atoms: N_17  and  C_18
REMARK    4  A    between atoms: C_18  and  C_19
REMARK                            x       y       z     vdW  Elec       q    Type
REMARK                         _______ _______ _______ _____ _____    ______ ____
ROOT
ATOM      1  O   UNL     1       2.982   5.966  20.313  0.00  0.00    +0.000 OA
ATOM      2  C   UNL     1       2.846   6.600  19.270  0.00  0.00    +0.000 C 
ATOM      3  N   UNL     1       2.141   7.809  19.214  0.00  0.00    +0.000 N 
ATOM      4  C   UNL     1       2.095   8.740  18.074  0.00  0.00    +0.000 C 
ATOM      5  C   UNL     1       0.787   9.527  17.955  0.00  0.00    +0.000 C 
ATOM      6  N   UNL     1       0.346  10.156  19.209  0.00  0.00    +0.000 NA
ATOM      7  C   UNL     1       0.261   9.073  20.227  0.00  0.00    +0.000 C 
ATOM      8  C   UNL     1       1.589   8.328  20.470  0.00  0.00    +0.000 C 
ENDROOT
BRANCH   2   9
ATOM      9  C   UNL     1       3.539   6.081  18.059  0.00  0.00    +0.000 A 
ATOM     10  C   UNL     1       4.414   6.920  17.352  0.00  0.00    +0.000 A 
ATOM     11  C   UNL     1       5.101   6.464  16.239  0.00  0.00    +0.000 A 
ATOM     12  C   UNL     1       5.033   5.115  15.956  0.00  0.00    +0.000 A 
ATOM     13  N   UNL     1       4.305   4.237  16.679  0.00  0.00    +0.000 NA
ATOM     14  C   UNL     1       3.522   4.737  17.691  0.00  0.00    +0.000 A 
BRANCH  14  15
ATOM     15  N   UNL     1       2.613   3.804  18.286  0.00  0.00    +0.000 N 
ATOM     16  C   UNL     1       2.967   2.783  19.152  0.00  0.00    +0.000 A 
ATOM     17  C   UNL     1       1.832   2.039  19.368  0.00  0.00    +0.000 A 
ATOM     18  C   UNL     1       0.856   2.642  18.576  0.00  0.00    +0.000 A 
ATOM     19  N   UNL     1       1.314   3.699  17.897  0.00  0.00    +0.000 NA
ENDBRANCH  14  15
ENDBRANCH   2   9
BRANCH   6  20
ATOM     20  C   UNL     1       1.245  11.230  19.655  0.00  0.00    +0.000 C 
BRANCH  20  21
ATOM     21  C   UNL     1       1.298  12.369  18.674  0.00  0.00    +0.000 C 
ATOM     22  C   UNL     1       1.758  13.729  19.146  0.00  0.00    +0.000 C 
ATOM     23  C   UNL     1       2.620  12.937  18.208  0.00  0.00    +0.000 C 
ENDBRANCH  20  21
ENDBRANCH   6  20
TORSDOF 4
ENDMDL
MODEL 6
REMARK VINA RESULT:      -6.3      1.531      3.238
REMARK  Name = 
REMARK  4 active torsions:
REMARK  status: ('A' for Active; 'I' for Inactive)
REMARK    1  A    between atoms: C_2  and  C_3
REMARK    2  A    between atoms: C_8  and  N_9
REMARK    3  A    between atoms: N_17  and  C_18
REMARK    4  A    between atoms: C_18  and  C_19
REMARK                            x       y       z     vdW  Elec       q    Type
REMARK                         _______ _______ _______ _____ _____    ______ ____
ROOT
ATOM      1  O   UNL     1       6.445   4.717  19.463  0.00  0.00    +0.000 OA
ATOM      2  C   UNL     1       5.555   4.967  18.654  0.00  0.00    +0.000 C 
ATOM      3  N   UNL     1       5.771   4.942  17.270  0.00  0.00    +0.000 N 
ATOM      4  C   UNL     1       4.737   5.022  16.224  0.00  0.00    +0.000 C 
ATOM      5  C   UNL     1       5.203   5.687  14.926  0.00  0.00    +0.000 C 
ATOM      6  N   UNL     1       6.482   5.173  14.412  0.00  0.00    +0.000 NA
ATOM      7  C   UNL     1       7.478   5.320  15.508  0.00  0.00    +0.000 C 
ATOM      8  C   UNL     1       7.108   4.564  16.802  0.00  0.00    +0.000 C 
ENDROOT
BRANCH   2   9
ATOM      9  C   UNL     1       4.191   5.217  19.194  0.00  0.00    +0.000 A 
ATOM     10  C   UNL     1       3.731   6.537  19.323  0.00  0.00    +0.000 A 
ATOM     11  C   UNL     1       2.457   6.809  19.792  0.00  0.00    +0.000 A 
ATOM     12  C   UNL     1       1.597   5.743  19.960  0.00  0.00    +0.000 A 
ATOM     13  N   UNL     1       1.948   4.459  19.730  0.00  0.00    +0.000 NA
ATOM     14  C   UNL     1       3.257   4.204  19.401  0.00  0.00    +0.000 A 
BRANCH  14  15
ATOM     15  N   UNL     1       3.628   2.820  19.377  0.00  0.00    +0.000 N 
ATOM     16  C   UNL     1       4.379   2.176  20.345  0.00  0.00    +0.000 A 
ATOM     17  C   UNL     1       4.631   0.912  19.871  0.00  0.00    +0.000 A 
ATOM     18  C   UNL     1       4.041   0.881  18.608  0.00  0.00    +0.000 A 
ATOM     19  N   UNL     1       3.447   2.034  18.282  0.00  0.00    +0.000 NA
ENDBRANCH  14  15
ENDBRANCH   2   9
BRANCH   6  20
ATOM     20  C   UNL     1       6.394   3.777  13.961  0.00  0.00    +0.000 C 
BRANCH  20  21
ATOM     21  C   UNL     1       6.227   3.672  12.470  0.00  0.00    +0.000 C 
ATOM     22  C   UNL     1       6.031   2.311  11.842  0.00  0.00    +0.000 C 
ATOM     23  C   UNL     1       4.896   3.293  11.858  0.00  0.00    +0.000 C 
ENDBRANCH  20  21
ENDBRANCH   6  20
TORSDOF 4
ENDMDL
MODEL 7
REMARK VINA RESULT:      -6.2      1.869      6.489
REMARK  Name = 
REMARK  4 active torsions:
REMARK  status: ('A' for Active; 'I' for Inactive)
REMARK    1  A    between atoms: C_2  and  C_3
REMARK    2  A    between atoms: C_8  and  N_9
REMARK    3  A    between atoms: N_17  and  C_18
REMARK    4  A    between atoms: C_18  and  C_19
REMARK                            x       y       z     vdW  Elec       q    Type
REMARK                         _______ _______ _______ _____ _____    ______ ____
ROOT
ATOM      1  O   UNL     1       5.855   3.536  18.955  0.00  0.00    +0.000 OA
ATOM      2  C   UNL     1       5.303   4.291  18.159  0.00  0.00    +0.000 C 
ATOM      3  N   UNL     1       4.183   5.058  18.507  0.00  0.00    +0.000 N 
ATOM      4  C   UNL     1       3.580   6.135  17.703  0.00  0.00    +0.000 C 
ATOM      5  C   UNL     1       2.069   6.294  17.894  0.00  0.00    +0.000 C 
ATOM      6  N   UNL     1       1.642   6.339  19.301  0.00  0.00    +0.000 NA
ATOM      7  C   UNL     1       2.164   5.105  19.949  0.00  0.00    +0.000 C 
ATOM      8  C   UNL     1       3.699   4.960  19.887  0.00  0.00    +0.000 C 
ENDROOT
BRANCH   2   9
ATOM      9  C   UNL     1       5.922   4.438  16.814  0.00  0.00    +0.000 A 
ATOM     10  C   UNL     1       5.495   3.612  15.763  0.00  0.00    +0.000 A 
ATOM     11  C   UNL     1       6.025   3.739  14.490  0.00  0.00    +0.000 A 
ATOM     12  C   UNL     1       6.853   4.816  14.249  0.00  0.00    +0.000 A 
ATOM     13  N   UNL     1       7.199   5.717  15.193  0.00  0.00    +0.000 NA
ATOM     14  C   UNL     1       6.775   5.489  16.479  0.00  0.00    +0.000 A 
BRANCH  14  15
ATOM     15  N   UNL     1       7.339   6.348  17.477  0.00  0.00    +0.000 N 
ATOM     16  C   UNL     1       7.540   7.712  17.338  0.00  0.00    +0.000 A 
ATOM     17  C   UNL     1       8.231   8.122  18.452  0.00  0.00    +0.000 A 
ATOM     18  C   UNL     1       8.444   6.958  19.188  0.00  0.00    +0.000 A 
ATOM     19  N   UNL     1       7.931   5.870  18.604  0.00  0.00    +0.000 NA
ENDBRANCH  14  15
ENDBRANCH   2   9
BRANCH   6  20
ATOM     20  C   UNL     1       2.112   7.543  20.001  0.00  0.00    +0.000 C 
BRANCH  20  21
ATOM     21  C   UNL     1       1.146   7.995  21.062  0.00  0.00    +0.000 C 
ATOM     22  C   UNL     1       1.519   9.159  21.952  0.00  0.00    +0.000 C 
ATOM     23  C   UNL     1       0.419   9.317  20.944  0.00  0.00    +0.000 C 
ENDBRANCH  20  21
ENDBRANCH   6  20
TORSDOF 4
ENDMDL
MODEL 8
REMARK VINA RESULT:      -6.2      2.757      6.462
REMARK  Name = 
REMARK  4 active torsions:
REMARK  status: ('A' for Active; 'I' for Inactive)
REMARK    1  A    between atoms: C_2  and  C_3
REMARK    2  A    between atoms: C_8  and  N_9
REMARK    3  A    between atoms: N_17  and  C_18
REMARK    4  A    between atoms: C_18  and  C_19
REMARK                            x       y       z     vdW  Elec       q    Type
REMARK                         _______ _______ _______ _____ _____    ______ ____
ROOT
ATOM      1  O   UNL     1       3.502   6.082  17.289  0.00  0.00    +0.000 OA
ATOM      2  C   UNL     1       3.068   6.076  18.438  0.00  0.00    +0.000 C 
ATOM      3  N   UNL     1       2.338   7.147  18.969  0.00  0.00    +0.000 N 
ATOM      4  C   UNL     1       1.605   7.155  20.247  0.00  0.00    +0.000 C 
ATOM      5  C   UNL     1       1.534   8.526  20.924  0.00  0.00    +0.000 C 
ATOM      6  N   UNL     1       1.115   9.618  20.032  0.00  0.00    +0.000 NA
ATOM      7  C   UNL     1       2.050   9.610  18.874  0.00  0.00    +0.000 C 
ATOM      8  C   UNL     1       2.067   8.285  18.084  0.00  0.00    +0.000 C 
ENDROOT
BRANCH   2   9
ATOM      9  C   UNL     1       3.269   4.838  19.238  0.00  0.00    +0.000 A 
ATOM     10  C   UNL     1       2.157   4.183  19.790  0.00  0.00    +0.000 A 
ATOM     11  C   UNL     1       2.301   3.012  20.514  0.00  0.00    +0.000 A 
ATOM     12  C   UNL     1       3.546   2.418  20.525  0.00  0.00    +0.000 A 
ATOM     13  N   UNL     1       4.627   2.939  19.905  0.00  0.00    +0.000 NA
ATOM     14  C   UNL     1       4.491   4.171  19.313  0.00  0.00    +0.000 A 
BRANCH  14  15
ATOM     15  N   UNL     1       5.708   4.774  18.858  0.00  0.00    +0.000 N 
ATOM     16  C   UNL     1       6.269   4.595  17.605  0.00  0.00    +0.000 A 
ATOM     17  C   UNL     1       7.492   5.221  17.629  0.00  0.00    +0.000 A 
ATOM     18  C   UNL     1       7.614   5.714  18.927  0.00  0.00    +0.000 A 
ATOM     19  N   UNL     1       6.554   5.435  19.692  0.00  0.00    +0.000 NA
ENDBRANCH  14  15
ENDBRANCH   2   9
BRANCH   6  20
ATOM     20  C   UNL     1      -0.280   9.486  19.586  0.00  0.00    +0.000 C 
BRANCH  20  21
ATOM     21  C   UNL     1      -0.612  10.441  18.473  0.00  0.00    +0.000 C 
ATOM     22  C   UNL     1      -1.576  10.008  17.392  0.00  0.00    +0.000 C 
ATOM     23  C   UNL     1      -1.983  11.072  18.369  0.00  0.00    +0.000 C 
ENDBRANCH  20  21
ENDBRANCH   6  20
TORSDOF 4
ENDMDL
MODEL 9
REMARK VINA RESULT:      -6.0      1.894      3.152
REMARK  Name = 
REMARK  4 active torsions:
REMARK  status: ('A' for Active; 'I' for Inactive)
REMARK    1  A    between atoms: C_2  and  C_3
REMARK    2  A    between atoms: C_8  and  N_9
REMARK    3  A    between atoms: N_17  and  C_18
REMARK    4  A    between atoms: C_18  and  C_19
REMARK                            x       y       z     vdW  Elec       q    Type
REMARK                         _______ _______ _______ _____ _____    ______ ____
ROOT
ATOM      1  O   UNL     1       2.585   3.342  16.761  0.00  0.00    +0.000 OA
ATOM      2  C   UNL     1       3.325   3.699  17.674  0.00  0.00    +0.000 C 
ATOM      3  N   UNL     1       4.610   4.208  17.442  0.00  0.00    +0.000 N 
ATOM      4  C   UNL     1       5.487   4.848  18.437  0.00  0.00    +0.000 C 
ATOM      5  C   UNL     1       6.983   4.649  18.179  0.00  0.00    +0.000 C 
ATOM      6  N   UNL     1       7.400   4.937  16.798  0.00  0.00    +0.000 NA
ATOM      7  C   UNL     1       6.558   4.089  15.910  0.00  0.00    +0.000 C 
ATOM      8  C   UNL     1       5.043   4.340  16.047  0.00  0.00    +0.000 C 
ENDROOT
BRANCH   2   9
ATOM      9  C   UNL     1       2.775   3.656  19.057  0.00  0.00    +0.000 A 
ATOM     10  C   UNL     1       2.747   2.437  19.751  0.00  0.00    +0.000 A 
ATOM     11  C   UNL     1       2.272   2.363  21.050  0.00  0.00    +0.000 A 
ATOM     12  C   UNL     1       1.995   3.550  21.696  0.00  0.00    +0.000 A 
ATOM     13  N   UNL     1       2.124   4.763  21.116  0.00  0.00    +0.000 NA
ATOM     14  C   UNL     1       2.461   4.802  19.786  0.00  0.00    +0.000 A 
BRANCH  14  15
ATOM     15  N   UNL     1       2.378   6.091  19.166  0.00  0.00    +0.000 N 
ATOM     16  C   UNL     1       2.347   7.301  19.838  0.00  0.00    +0.000 A 
ATOM     17  C   UNL     1       2.117   8.270  18.892  0.00  0.00    +0.000 A 
ATOM     18  C   UNL     1       1.981   7.572  17.693  0.00  0.00    +0.000 A 
ATOM     19  N   UNL     1       2.115   6.250  17.841  0.00  0.00    +0.000 NA
ENDBRANCH  14  15
ENDBRANCH   2   9
BRANCH   6  20
ATOM     20  C   UNL     1       7.272   6.359  16.448  0.00  0.00    +0.000 C 
BRANCH  20  21
ATOM     21  C   UNL     1       7.151   7.234  17.666  0.00  0.00    +0.000 C 
ATOM     22  C   UNL     1       8.386   7.539  18.481  0.00  0.00    +0.000 C 
ATOM     23  C   UNL     1       7.733   8.630  17.684  0.00  0.00    +0.000 C 
ENDBRANCH  20  21
ENDBRANCH   6  20
TORSDOF 4
ENDMDL
