MODEL 1
REMARK VINA RESULT:      -6.9      0.000      0.000
REMARK  Name = 
REMARK  6 active torsions:
REMARK  status: ('A' for Active; 'I' for Inactive)
REMARK    1  A    between atoms: C_1  and  C_2
REMARK    2  A    between atoms: C_2  and  C_3
REMARK    3  A    between atoms: C_3  and  O_4
REMARK    4  A    between atoms: O_4  and  P_5
REMARK    5  A    between atoms: P_5  and  C_7
REMARK    6  A    between atoms: P_5  and  C_13
REMARK                            x       y       z     vdW  Elec       q    Type
REMARK                         _______ _______ _______ _____ _____    ______ ____
ROOT
ATOM      1  P   UNL     1       3.734   5.800  18.406  0.00  0.00    +0.000 P 
ATOM      2  O   UNL     1       4.823   5.647  19.491  0.00  0.00    +0.000 OA
ENDROOT
BRANCH   1   3
ATOM      3  C   UNL     1       2.637   7.305  18.683  0.00  0.00    +0.000 A 
ATOM      4  C   UNL     1       2.465   8.245  17.654  0.00  0.00    +0.000 A 
ATOM      5  C   UNL     1       1.701   9.393  17.882  0.00  0.00    +0.000 A 
ATOM      6  C   UNL     1       1.108   9.606  19.127  0.00  0.00    +0.000 A 
ATOM      7  C   UNL     1       1.277   8.674  20.152  0.00  0.00    +0.000 A 
ATOM      8  C   UNL     1       2.045   7.530  19.934  0.00  0.00    +0.000 A 
ENDBRANCH   1   3
BRANCH   1   9
ATOM      9  C   UNL     1       2.603   4.708  19.343  0.00  0.00    +0.000 A 
ATOM     10  C   UNL     1       2.784   4.426  20.709  0.00  0.00    +0.000 A 
ATOM     11  C   UNL     1       2.012   3.457  21.351  0.00  0.00    +0.000 A 
ATOM     12  C   UNL     1       1.046   2.756  20.635  0.00  0.00    +0.000 A 
ATOM     13  C   UNL     1       0.843   3.031  19.283  0.00  0.00    +0.000 A 
ATOM     14  C   UNL     1       1.615   4.002  18.638  0.00  0.00    +0.000 A 
ENDBRANCH   1   9
BRANCH   1  15
ATOM     15  O   UNL     1       4.804   6.833  17.522  0.00  0.00    +0.000 OA
BRANCH  15  16
ATOM     16  C   UNL     1       5.498   6.164  16.478  0.00  0.00    +0.000 C 
BRANCH  16  18
ATOM     17  C   UNL     1       7.461   7.380  17.517  0.00  0.00    +0.000 C 
ATOM     18  C   UNL     1       6.991   6.136  16.779  0.00  0.00    +0.000 C 
ENDBRANCH  16  18
ENDBRANCH  15  16
ENDBRANCH   1  15
TORSDOF 5
ENDMDL
MODEL 2
REMARK VINA RESULT:      -6.9      3.048      5.776
REMARK  Name = 
REMARK  6 active torsions:
REMARK  status: ('A' for Active; 'I' for Inactive)
REMARK    1  A    between atoms: C_1  and  C_2
REMARK    2  A    between atoms: C_2  and  C_3
REMARK    3  A    between atoms: C_3  and  O_4
REMARK    4  A    between atoms: O_4  and  P_5
REMARK    5  A    between atoms: P_5  and  C_7
REMARK    6  A    between atoms: P_5  and  C_13
REMARK                            x       y       z     vdW  Elec       q    Type
REMARK                         _______ _______ _______ _____ _____    ______ ____
ROOT
ATOM      1  P   UNL     1       6.209   4.685  15.681  0.00  0.00    +0.000 P 
ATOM      2  O   UNL     1       6.341   5.905  14.743  0.00  0.00    +0.000 OA
ENDROOT
BRANCH   1   3
ATOM      3  C   UNL     1       4.616   4.705  16.684  0.00  0.00    +0.000 A 
ATOM      4  C   UNL     1       3.869   3.527  16.835  0.00  0.00    +0.000 A 
ATOM      5  C   UNL     1       2.655   3.557  17.527  0.00  0.00    +0.000 A 
ATOM      6  C   UNL     1       2.185   4.754  18.068  0.00  0.00    +0.000 A 
ATOM      7  C   UNL     1       2.925   5.928  17.920  0.00  0.00    +0.000 A 
ATOM      8  C   UNL     1       4.134   5.907  17.224  0.00  0.00    +0.000 A 
ENDBRANCH   1   3
BRANCH   1   9
ATOM      9  C   UNL     1       7.138   5.557  16.995  0.00  0.00    +0.000 A 
ATOM     10  C   UNL     1       7.506   4.933  18.201  0.00  0.00    +0.000 A 
ATOM     11  C   UNL     1       8.057   5.669  19.251  0.00  0.00    +0.000 A 
ATOM     12  C   UNL     1       8.250   7.040  19.110  0.00  0.00    +0.000 A 
ATOM     13  C   UNL     1       7.904   7.674  17.917  0.00  0.00    +0.000 A 
ATOM     14  C   UNL     1       7.352   6.938  16.863  0.00  0.00    +0.000 A 
ENDBRANCH   1   9
BRANCH   1  15
ATOM     15  O   UNL     1       5.332   3.862  14.439  0.00  0.00    +0.000 OA
BRANCH  15  16
ATOM     16  C   UNL     1       6.083   3.675  13.248  0.00  0.00    +0.000 C 
BRANCH  16  18
ATOM     17  C   UNL     1       5.645   1.996  11.404  0.00  0.00    +0.000 C 
ATOM     18  C   UNL     1       5.162   3.252  12.111  0.00  0.00    +0.000 C 
ENDBRANCH  16  18
ENDBRANCH  15  16
ENDBRANCH   1  15
TORSDOF 5
ENDMDL
MODEL 3
REMARK VINA RESULT:      -6.9      2.284      4.558
REMARK  Name = 
REMARK  6 active torsions:
REMARK  status: ('A' for Active; 'I' for Inactive)
REMARK    1  A    between atoms: C_1  and  C_2
REMARK    2  A    between atoms: C_2  and  C_3
REMARK    3  A    between atoms: C_3  and  O_4
REMARK    4  A    between atoms: O_4  and  P_5
REMARK    5  A    between atoms: P_5  and  C_7
REMARK    6  A    between atoms: P_5  and  C_13
REMARK                            x       y       z     vdW  Elec       q    Type
REMARK                         _______ _______ _______ _____ _____    ______ ____
ROOT
ATOM      1  P   UNL     1       4.419   4.530  17.013  0.00  0.00    +0.000 P 
ATOM      2  O   UNL     1       4.277   3.143  17.679  0.00  0.00    +0.000 OA
ENDROOT
BRANCH   1   3
ATOM      3  C   UNL     1       5.923   5.482  17.625  0.00  0.00    +0.000 A 
ATOM      4  C   UNL     1       6.589   5.066  18.788  0.00  0.00    +0.000 A 
ATOM      5  C   UNL     1       7.667   5.810  19.277  0.00  0.00    +0.000 A 
ATOM      6  C   UNL     1       8.082   6.964  18.611  0.00  0.00    +0.000 A 
ATOM      7  C   UNL     1       7.422   7.381  17.454  0.00  0.00    +0.000 A 
ATOM      8  C   UNL     1       6.340   6.648  16.966  0.00  0.00    +0.000 A 
ENDBRANCH   1   3
BRANCH   1   9
ATOM      9  C   UNL     1       3.331   5.283  18.278  0.00  0.00    +0.000 A 
ATOM     10  C   UNL     1       3.036   6.658  18.297  0.00  0.00    +0.000 A 
ATOM     11  C   UNL     1       2.349   7.230  19.369  0.00  0.00    +0.000 A 
ATOM     12  C   UNL     1       1.946   6.433  20.437  0.00  0.00    +0.000 A 
ATOM     13  C   UNL     1       2.218   5.066  20.429  0.00  0.00    +0.000 A 
ATOM     14  C   UNL     1       2.906   4.490  19.355  0.00  0.00    +0.000 A 
ENDBRANCH   1   9
BRANCH   1  15
ATOM     15  O   UNL     1       5.446   3.817  15.818  0.00  0.00    +0.000 OA
BRANCH  15  16
ATOM     16  C   UNL     1       5.248   4.348  14.515  0.00  0.00    +0.000 C 
BRANCH  16  18
ATOM     17  C   UNL     1       5.981   3.340  12.311  0.00  0.00    +0.000 C 
ATOM     18  C   UNL     1       6.422   3.981  13.618  0.00  0.00    +0.000 C 
ENDBRANCH  16  18
ENDBRANCH  15  16
ENDBRANCH   1  15
TORSDOF 5
ENDMDL
MODEL 4
REMARK VINA RESULT:      -6.9      2.382      4.111
REMARK  Name = 
REMARK  6 active torsions:
REMARK  status: ('A' for Active; 'I' for Inactive)
REMARK    1  A    between atoms: C_1  and  C_2
REMARK    2  A    between atoms: C_2  and  C_3
REMARK    3  A    between atoms: C_3  and  O_4
REMARK    4  A    between atoms: O_4  and  P_5
REMARK    5  A    between atoms: P_5  and  C_7
REMARK    6  A    between atoms: P_5  and  C_13
REMARK                            x       y       z     vdW  Elec       q    Type
REMARK                         _______ _______ _______ _____ _____    ______ ____
ROOT
ATOM      1  P   UNL     1       4.254   4.656  17.084  0.00  0.00    +0.000 P 
ATOM      2  O   UNL     1       4.461   3.125  17.071  0.00  0.00    +0.000 OA
ENDROOT
BRANCH   1   3
ATOM      3  C   UNL     1       5.758   5.590  17.725  0.00  0.00    +0.000 A 
ATOM      4  C   UNL     1       6.190   6.754  17.070  0.00  0.00    +0.000 A 
ATOM      5  C   UNL     1       7.343   7.411  17.510  0.00  0.00    +0.000 A 
ATOM      6  C   UNL     1       8.064   6.913  18.596  0.00  0.00    +0.000 A 
ATOM      7  C   UNL     1       7.637   5.756  19.249  0.00  0.00    +0.000 A 
ATOM      8  C   UNL     1       6.492   5.091  18.811  0.00  0.00    +0.000 A 
ENDBRANCH   1   3
BRANCH   1   9
ATOM      9  C   UNL     1       3.501   4.571  18.750  0.00  0.00    +0.000 A 
ATOM     10  C   UNL     1       3.397   3.368  19.471  0.00  0.00    +0.000 A 
ATOM     11  C   UNL     1       2.665   3.304  20.658  0.00  0.00    +0.000 A 
ATOM     12  C   UNL     1       2.027   4.442  21.141  0.00  0.00    +0.000 A 
ATOM     13  C   UNL     1       2.130   5.647  20.446  0.00  0.00    +0.000 A 
ATOM     14  C   UNL     1       2.863   5.715  19.257  0.00  0.00    +0.000 A 
ENDBRANCH   1   9
BRANCH   1  15
ATOM     15  O   UNL     1       4.965   4.735  15.509  0.00  0.00    +0.000 OA
BRANCH  15  16
ATOM     16  C   UNL     1       6.030   3.813  15.325  0.00  0.00    +0.000 C 
BRANCH  16  18
ATOM     17  C   UNL     1       6.014   3.601  12.802  0.00  0.00    +0.000 C 
ATOM     18  C   UNL     1       6.761   4.114  14.024  0.00  0.00    +0.000 C 
ENDBRANCH  16  18
ENDBRANCH  15  16
ENDBRANCH   1  15
TORSDOF 5
ENDMDL
MODEL 5
REMARK VINA RESULT:      -6.9      3.055      5.878
REMARK  Name = 
REMARK  6 active torsions:
REMARK  status: ('A' for Active; 'I' for Inactive)
REMARK    1  A    between atoms: C_1  and  C_2
REMARK    2  A    between atoms: C_2  and  C_3
REMARK    3  A    between atoms: C_3  and  O_4
REMARK    4  A    between atoms: O_4  and  P_5
REMARK    5  A    between atoms: P_5  and  C_7
REMARK    6  A    between atoms: P_5  and  C_13
REMARK                            x       y       z     vdW  Elec       q    Type
REMARK                         _______ _______ _______ _____ _____    ______ ____
ROOT
ATOM      1  P   UNL     1       6.306   4.634  15.825  0.00  0.00    +0.000 P 
ATOM      2  O   UNL     1       6.346   5.785  14.796  0.00  0.00    +0.000 OA
ENDROOT
BRANCH   1   3
ATOM      3  C   UNL     1       4.648   4.503  16.708  0.00  0.00    +0.000 A 
ATOM      4  C   UNL     1       3.969   3.275  16.744  0.00  0.00    +0.000 A 
ATOM      5  C   UNL     1       2.710   3.194  17.346  0.00  0.00    +0.000 A 
ATOM      6  C   UNL     1       2.128   4.329  17.911  0.00  0.00    +0.000 A 
ATOM      7  C   UNL     1       2.800   5.552  17.876  0.00  0.00    +0.000 A 
ATOM      8  C   UNL     1       4.053   5.642  17.270  0.00  0.00    +0.000 A 
ENDBRANCH   1   3
BRANCH   1   9
ATOM      9  C   UNL     1       6.997   5.727  17.120  0.00  0.00    +0.000 A 
ATOM     10  C   UNL     1       7.236   7.096  16.904  0.00  0.00    +0.000 A 
ATOM     11  C   UNL     1       7.921   7.863  17.847  0.00  0.00    +0.000 A 
ATOM     12  C   UNL     1       8.377   7.271  19.021  0.00  0.00    +0.000 A 
ATOM     13  C   UNL     1       8.138   5.918  19.259  0.00  0.00    +0.000 A 
ATOM     14  C   UNL     1       7.451   5.147  18.316  0.00  0.00    +0.000 A 
ENDBRANCH   1   9
BRANCH   1  15
ATOM     15  O   UNL     1       5.653   3.601  14.600  0.00  0.00    +0.000 OA
BRANCH  15  16
ATOM     16  C   UNL     1       5.890   4.072  13.281  0.00  0.00    +0.000 C 
BRANCH  16  18
ATOM     17  C   UNL     1       4.347   3.268  11.442  0.00  0.00    +0.000 C 
ATOM     18  C   UNL     1       5.586   2.973  12.272  0.00  0.00    +0.000 C 
ENDBRANCH  16  18
ENDBRANCH  15  16
ENDBRANCH   1  15
TORSDOF 5
ENDMDL
MODEL 6
REMARK VINA RESULT:      -6.8      2.248      4.371
REMARK  Name = 
REMARK  6 active torsions:
REMARK  status: ('A' for Active; 'I' for Inactive)
REMARK    1  A    between atoms: C_1  and  C_2
REMARK    2  A    between atoms: C_2  and  C_3
REMARK    3  A    between atoms: C_3  and  O_4
REMARK    4  A    between atoms: O_4  and  P_5
REMARK    5  A    between atoms: P_5  and  C_7
REMARK    6  A    between atoms: P_5  and  C_13
REMARK                            x       y       z     vdW  Elec       q    Type
REMARK                         _______ _______ _______ _____ _____    ______ ____
ROOT
ATOM      1  P   UNL     1       4.348   4.618  17.042  0.00  0.00    +0.000 P 
ATOM      2  O   UNL     1       4.209   3.222  17.689  0.00  0.00    +0.000 OA
ENDROOT
BRANCH   1   3
ATOM      3  C   UNL     1       5.824   5.584  17.703  0.00  0.00    +0.000 A 
ATOM      4  C   UNL     1       6.263   6.736  17.033  0.00  0.00    +0.000 A 
ATOM      5  C   UNL     1       7.396   7.416  17.488  0.00  0.00    +0.000 A 
ATOM      6  C   UNL     1       8.090   6.953  18.606  0.00  0.00    +0.000 A 
ATOM      7  C   UNL     1       7.657   5.807  19.275  0.00  0.00    +0.000 A 
ATOM      8  C   UNL     1       6.532   5.119  18.821  0.00  0.00    +0.000 A 
ENDBRANCH   1   3
BRANCH   1   9
ATOM      9  C   UNL     1       3.220   5.342  18.288  0.00  0.00    +0.000 A 
ATOM     10  C   UNL     1       3.060   6.731  18.445  0.00  0.00    +0.000 A 
ATOM     11  C   UNL     1       2.329   7.253  19.514  0.00  0.00    +0.000 A 
ATOM     12  C   UNL     1       1.746   6.393  20.439  0.00  0.00    +0.000 A 
ATOM     13  C   UNL     1       1.882   5.013  20.292  0.00  0.00    +0.000 A 
ATOM     14  C   UNL     1       2.614   4.487  19.222  0.00  0.00    +0.000 A 
ENDBRANCH   1   9
BRANCH   1  15
ATOM     15  O   UNL     1       5.415   3.934  15.865  0.00  0.00    +0.000 OA
BRANCH  15  16
ATOM     16  C   UNL     1       5.292   4.527  14.581  0.00  0.00    +0.000 C 
BRANCH  16  18
ATOM     17  C   UNL     1       5.736   3.320  12.400  0.00  0.00    +0.000 C 
ATOM     18  C   UNL     1       6.345   3.956  13.640  0.00  0.00    +0.000 C 
ENDBRANCH  16  18
ENDBRANCH  15  16
ENDBRANCH   1  15
TORSDOF 5
ENDMDL
MODEL 7
REMARK VINA RESULT:      -6.8      0.105      1.146
REMARK  Name = 
REMARK  6 active torsions:
REMARK  status: ('A' for Active; 'I' for Inactive)
REMARK    1  A    between atoms: C_1  and  C_2
REMARK    2  A    between atoms: C_2  and  C_3
REMARK    3  A    between atoms: C_3  and  O_4
REMARK    4  A    between atoms: O_4  and  P_5
REMARK    5  A    between atoms: P_5  and  C_7
REMARK    6  A    between atoms: P_5  and  C_13
REMARK                            x       y       z     vdW  Elec       q    Type
REMARK                         _______ _______ _______ _____ _____    ______ ____
ROOT
ATOM      1  P   UNL     1       3.711   5.836  18.344  0.00  0.00    +0.000 P 
ATOM      2  O   UNL     1       4.801   5.603  19.412  0.00  0.00    +0.000 OA
ENDROOT
BRANCH   1   3
ATOM      3  C   UNL     1       2.673   7.371  18.682  0.00  0.00    +0.000 A 
ATOM      4  C   UNL     1       2.085   7.554  19.943  0.00  0.00    +0.000 A 
ATOM      5  C   UNL     1       1.265   8.662  20.174  0.00  0.00    +0.000 A 
ATOM      6  C   UNL     1       1.030   9.585  19.155  0.00  0.00    +0.000 A 
ATOM      7  C   UNL     1       1.613   9.406  17.899  0.00  0.00    +0.000 A 
ATOM      8  C   UNL     1       2.427   8.299  17.660  0.00  0.00    +0.000 A 
ENDBRANCH   1   3
BRANCH   1   9
ATOM      9  C   UNL     1       2.546   4.755  19.251  0.00  0.00    +0.000 A 
ATOM     10  C   UNL     1       2.654   4.521  20.634  0.00  0.00    +0.000 A 
ATOM     11  C   UNL     1       1.862   3.560  21.264  0.00  0.00    +0.000 A 
ATOM     12  C   UNL     1       0.949   2.820  20.520  0.00  0.00    +0.000 A 
ATOM     13  C   UNL     1       0.818   3.047  19.150  0.00  0.00    +0.000 A 
ATOM     14  C   UNL     1       1.610   4.010  18.517  0.00  0.00    +0.000 A 
ENDBRANCH   1   9
BRANCH   1  15
ATOM     15  O   UNL     1       4.812   6.858  17.486  0.00  0.00    +0.000 OA
BRANCH  15  16
ATOM     16  C   UNL     1       5.496   6.191  16.434  0.00  0.00    +0.000 C 
BRANCH  16  18
ATOM     17  C   UNL     1       7.467   7.321  17.553  0.00  0.00    +0.000 C 
ATOM     18  C   UNL     1       6.987   6.130  16.738  0.00  0.00    +0.000 C 
ENDBRANCH  16  18
ENDBRANCH  15  16
ENDBRANCH   1  15
TORSDOF 5
ENDMDL
MODEL 8
REMARK VINA RESULT:      -6.8      0.927      4.567
REMARK  Name = 
REMARK  6 active torsions:
REMARK  status: ('A' for Active; 'I' for Inactive)
REMARK    1  A    between atoms: C_1  and  C_2
REMARK    2  A    between atoms: C_2  and  C_3
REMARK    3  A    between atoms: C_3  and  O_4
REMARK    4  A    between atoms: O_4  and  P_5
REMARK    5  A    between atoms: P_5  and  C_7
REMARK    6  A    between atoms: P_5  and  C_13
REMARK                            x       y       z     vdW  Elec       q    Type
REMARK                         _______ _______ _______ _____ _____    ______ ____
ROOT
ATOM      1  P   UNL     1       3.752   6.176  18.850  0.00  0.00    +0.000 P 
ATOM      2  O   UNL     1       3.926   6.404  17.333  0.00  0.00    +0.000 OA
ENDROOT
BRANCH   1   3
ATOM      3  C   UNL     1       2.505   4.821  19.245  0.00  0.00    +0.000 A 
ATOM      4  C   UNL     1       2.279   4.445  20.578  0.00  0.00    +0.000 A 
ATOM      5  C   UNL     1       1.400   3.397  20.866  0.00  0.00    +0.000 A 
ATOM      6  C   UNL     1       0.747   2.725  19.832  0.00  0.00    +0.000 A 
ATOM      7  C   UNL     1       0.969   3.097  18.505  0.00  0.00    +0.000 A 
ATOM      8  C   UNL     1       1.852   4.136  18.210  0.00  0.00    +0.000 A 
ENDBRANCH   1   3
BRANCH   1   9
ATOM      9  C   UNL     1       2.473   7.483  18.932  0.00  0.00    +0.000 A 
ATOM     10  C   UNL     1       2.147   8.290  17.827  0.00  0.00    +0.000 A 
ATOM     11  C   UNL     1       1.296   9.388  17.966  0.00  0.00    +0.000 A 
ATOM     12  C   UNL     1       0.760   9.694  19.212  0.00  0.00    +0.000 A 
ATOM     13  C   UNL     1       1.061   8.898  20.317  0.00  0.00    +0.000 A 
ATOM     14  C   UNL     1       1.912   7.796  20.180  0.00  0.00    +0.000 A 
ENDBRANCH   1   9
BRANCH   1  15
ATOM     15  O   UNL     1       4.960   4.941  18.773  0.00  0.00    +0.000 OA
BRANCH  15  16
ATOM     16  C   UNL     1       6.221   5.354  19.280  0.00  0.00    +0.000 C 
BRANCH  16  18
ATOM     17  C   UNL     1       7.557   6.937  17.824  0.00  0.00    +0.000 C 
ATOM     18  C   UNL     1       7.224   5.488  18.141  0.00  0.00    +0.000 C 
ENDBRANCH  16  18
ENDBRANCH  15  16
ENDBRANCH   1  15
TORSDOF 5
ENDMDL
MODEL 9
REMARK VINA RESULT:      -6.8      1.945      4.761
REMARK  Name = 
REMARK  6 active torsions:
REMARK  status: ('A' for Active; 'I' for Inactive)
REMARK    1  A    between atoms: C_1  and  C_2
REMARK    2  A    between atoms: C_2  and  C_3
REMARK    3  A    between atoms: C_3  and  O_4
REMARK    4  A    between atoms: O_4  and  P_5
REMARK    5  A    between atoms: P_5  and  C_7
REMARK    6  A    between atoms: P_5  and  C_13
REMARK                            x       y       z     vdW  Elec       q    Type
REMARK                         _______ _______ _______ _____ _____    ______ ____
ROOT
ATOM      1  P   UNL     1       3.191   4.161  18.384  0.00  0.00    +0.000 P 
ATOM      2  O   UNL     1       3.112   3.779  16.889  0.00  0.00    +0.000 OA
ENDROOT
BRANCH   1   3
ATOM      3  C   UNL     1       2.617   5.924  18.716  0.00  0.00    +0.000 A 
ATOM      4  C   UNL     1       2.688   6.886  17.698  0.00  0.00    +0.000 A 
ATOM      5  C   UNL     1       2.320   8.209  17.964  0.00  0.00    +0.000 A 
ATOM      6  C   UNL     1       1.884   8.573  19.238  0.00  0.00    +0.000 A 
ATOM      7  C   UNL     1       1.813   7.618  20.254  0.00  0.00    +0.000 A 
ATOM      8  C   UNL     1       2.186   6.299  19.997  0.00  0.00    +0.000 A 
ENDBRANCH   1   3
BRANCH   1   9
ATOM      9  C   UNL     1       4.934   4.683  18.191  0.00  0.00    +0.000 A 
ATOM     10  C   UNL     1       5.682   4.405  17.032  0.00  0.00    +0.000 A 
ATOM     11  C   UNL     1       7.053   4.661  16.983  0.00  0.00    +0.000 A 
ATOM     12  C   UNL     1       7.696   5.199  18.093  0.00  0.00    +0.000 A 
ATOM     13  C   UNL     1       6.969   5.494  19.246  0.00  0.00    +0.000 A 
ATOM     14  C   UNL     1       5.595   5.240  19.297  0.00  0.00    +0.000 A 
ENDBRANCH   1   9
BRANCH   1  15
ATOM     15  O   UNL     1       1.543   3.668  18.566  0.00  0.00    +0.000 OA
BRANCH  15  16
ATOM     16  C   UNL     1       1.385   2.528  19.399  0.00  0.00    +0.000 C 
BRANCH  16  18
ATOM     17  C   UNL     1       2.236   2.728  21.775  0.00  0.00    +0.000 C 
ATOM     18  C   UNL     1       1.073   2.963  20.825  0.00  0.00    +0.000 C 
ENDBRANCH  16  18
ENDBRANCH  15  16
ENDBRANCH   1  15
TORSDOF 5
ENDMDL
