MODEL 1
REMARK VINA RESULT:      -7.1      0.000      0.000
REMARK  Name = 
REMARK  7 active torsions:
REMARK  status: ('A' for Active; 'I' for Inactive)
REMARK    1  A    between atoms: C_1  and  C_2
REMARK    2  A    between atoms: C_2  and  C_3
REMARK    3  A    between atoms: C_3  and  C_5
REMARK    4  A    between atoms: C_10  and  O_11
REMARK    5  A    between atoms: C_20  and  C_21
REMARK    6  A    between atoms: C_28  and  C_29
REMARK    7  A    between atoms: C_28  and  C_30
REMARK                            x       y       z     vdW  Elec       q    Type
REMARK                         _______ _______ _______ _____ _____    ______ ____
ROOT
ATOM      1  C   UNL     1      -2.030  10.708  18.721  0.00  0.00    +0.000 A 
ATOM      2  C   UNL     1      -0.869  10.212  19.320  0.00  0.00    +0.000 A 
ATOM      3  C   UNL     1      -0.115  11.028  20.156  0.00  0.00    +0.000 A 
ATOM      4  C   UNL     1      -0.516  12.340  20.402  0.00  0.00    +0.000 A 
ATOM      5  C   UNL     1      -1.719  12.858  19.867  0.00  0.00    +0.000 A 
ATOM      6  C   UNL     1      -2.463  12.019  19.011  0.00  0.00    +0.000 A 
ATOM      7  C   UNL     1      -2.130  14.300  20.125  0.00  0.00    +0.000 C 
ATOM      8  C   UNL     1      -3.161  14.611  21.207  0.00  0.00    +0.000 A 
ATOM      9  C   UNL     1      -3.015  15.850  21.874  0.00  0.00    +0.000 A 
ATOM     10  C   UNL     1      -3.484  16.057  23.166  0.00  0.00    +0.000 A 
ATOM     11  C   UNL     1      -3.925  14.974  23.889  0.00  0.00    +0.000 A 
ATOM     12  C   UNL     1      -4.117  13.790  23.211  0.00  0.00    +0.000 A 
ATOM     13  C   UNL     1      -4.901  12.731  23.836  0.00  0.00    +0.000 A 
ATOM     14  O   UNL     1      -4.539  12.015  24.741  0.00  0.00    +0.000 OA
ATOM     15  C   UNL     1      -6.236  12.794  23.232  0.00  0.00    +0.000 A 
ATOM     16  C   UNL     1      -7.293  13.187  24.199  0.00  0.00    +0.000 C 
ATOM     17  C   UNL     1      -6.176  12.830  21.885  0.00  0.00    +0.000 A 
ATOM     18  O   UNL     1      -4.945  12.911  21.178  0.00  0.00    +0.000 OA
ATOM     19  C   UNL     1      -3.987  13.688  21.829  0.00  0.00    +0.000 A 
ATOM     20  O   UNL     1      -2.281  16.891  21.394  0.00  0.00    +0.000 OA
ATOM     21  C   UNL     1      -1.129  16.526  20.653  0.00  0.00    +0.000 C 
ATOM     22  C   UNL     1      -0.834  15.033  20.539  0.00  0.00    +0.000 C 
ATOM     23  C   UNL     1      -0.114  14.284  21.716  0.00  0.00    +0.000 C 
ATOM     24  C   UNL     1       1.066  15.117  22.243  0.00  0.00    +0.000 C 
ATOM     25  C   UNL     1      -0.835  13.805  22.991  0.00  0.00    +0.000 C 
ATOM     26  O   UNL     1       0.402  13.068  21.134  0.00  0.00    +0.000 OA
ENDROOT
BRANCH   1  27
ATOM     27  C   UNL     1      -2.726   9.872  17.697  0.00  0.00    +0.000 C 
ATOM     28  O   UNL     1      -3.761   9.273  17.985  0.00  0.00    +0.000 OA
BRANCH  27  30
ATOM     29  C   UNL     1      -3.003  10.808  15.381  0.00  0.00    +0.000 C 
ATOM     30  C   UNL     1      -2.186   9.893  16.277  0.00  0.00    +0.000 C 
ENDBRANCH  27  30
ENDBRANCH   1  27
BRANCH   6  31
ATOM     31  O   UNL     1      -3.642  12.451  18.460  0.00  0.00    +0.000 OA
ATOM     32  H   UNL     1      -4.219  12.847  19.130  0.00  0.00    +0.000 HD
ENDBRANCH   6  31
TORSDOF 3
ENDMDL
MODEL 2
REMARK VINA RESULT:      -6.8      2.183      5.424
REMARK  Name = 
REMARK  7 active torsions:
REMARK  status: ('A' for Active; 'I' for Inactive)
REMARK    1  A    between atoms: C_1  and  C_2
REMARK    2  A    between atoms: C_2  and  C_3
REMARK    3  A    between atoms: C_3  and  C_5
REMARK    4  A    between atoms: C_10  and  O_11
REMARK    5  A    between atoms: C_20  and  C_21
REMARK    6  A    between atoms: C_28  and  C_29
REMARK    7  A    between atoms: C_28  and  C_30
REMARK                            x       y       z     vdW  Elec       q    Type
REMARK                         _______ _______ _______ _____ _____    ______ ____
ROOT
ATOM      1  C   UNL     1       0.150  10.244  19.505  0.00  0.00    +0.000 A 
ATOM      2  C   UNL     1      -0.825  10.431  18.521  0.00  0.00    +0.000 A 
ATOM      3  C   UNL     1      -1.918  11.254  18.773  0.00  0.00    +0.000 A 
ATOM      4  C   UNL     1      -2.041  11.897  20.003  0.00  0.00    +0.000 A 
ATOM      5  C   UNL     1      -1.042  11.786  20.999  0.00  0.00    +0.000 A 
ATOM      6  C   UNL     1       0.050  10.936  20.730  0.00  0.00    +0.000 A 
ATOM      7  C   UNL     1      -1.204  12.475  22.346  0.00  0.00    +0.000 C 
ATOM      8  C   UNL     1      -0.494  13.800  22.609  0.00  0.00    +0.000 A 
ATOM      9  C   UNL     1      -1.151  14.702  23.478  0.00  0.00    +0.000 A 
ATOM     10  C   UNL     1      -0.951  16.076  23.411  0.00  0.00    +0.000 A 
ATOM     11  C   UNL     1      -0.248  16.590  22.346  0.00  0.00    +0.000 A 
ATOM     12  C   UNL     1       0.433  15.701  21.543  0.00  0.00    +0.000 A 
ATOM     13  C   UNL     1       1.457  16.204  20.634  0.00  0.00    +0.000 A 
ATOM     14  O   UNL     1       1.262  16.802  19.602  0.00  0.00    +0.000 OA
ATOM     15  C   UNL     1       2.747  15.944  21.281  0.00  0.00    +0.000 A 
ATOM     16  C   UNL     1       3.467  17.187  21.660  0.00  0.00    +0.000 C 
ATOM     17  C   UNL     1       2.847  14.668  21.708  0.00  0.00    +0.000 A 
ATOM     18  O   UNL     1       1.765  13.749  21.624  0.00  0.00    +0.000 OA
ATOM     19  C   UNL     1       0.521  14.343  21.835  0.00  0.00    +0.000 A 
ATOM     20  O   UNL     1      -2.140  14.343  24.341  0.00  0.00    +0.000 OA
ATOM     21  C   UNL     1      -2.986  13.299  23.890  0.00  0.00    +0.000 C 
ATOM     22  C   UNL     1      -2.717  12.760  22.487  0.00  0.00    +0.000 C 
ATOM     23  C   UNL     1      -3.266  13.527  21.233  0.00  0.00    +0.000 C 
ATOM     24  C   UNL     1      -4.720  13.968  21.465  0.00  0.00    +0.000 C 
ATOM     25  C   UNL     1      -2.587  14.772  20.629  0.00  0.00    +0.000 C 
ATOM     26  O   UNL     1      -3.241  12.565  20.157  0.00  0.00    +0.000 OA
ENDROOT
BRANCH   1  27
ATOM     27  C   UNL     1       1.218   9.226  19.275  0.00  0.00    +0.000 C 
ATOM     28  O   UNL     1       1.506   8.419  20.157  0.00  0.00    +0.000 OA
BRANCH  27  30
ATOM     29  C   UNL     1       2.857   8.025  17.796  0.00  0.00    +0.000 C 
ATOM     30  C   UNL     1       1.836   9.145  17.889  0.00  0.00    +0.000 C 
ENDBRANCH  27  30
ENDBRANCH   1  27
BRANCH   6  31
ATOM     31  O   UNL     1       1.060  10.783  21.646  0.00  0.00    +0.000 OA
ATOM     32  H   UNL     1       1.923  10.723  21.210  0.00  0.00    +0.000 HD
ENDBRANCH   6  31
TORSDOF 3
ENDMDL
MODEL 3
REMARK VINA RESULT:      -6.8      2.321      3.648
REMARK  Name = 
REMARK  7 active torsions:
REMARK  status: ('A' for Active; 'I' for Inactive)
REMARK    1  A    between atoms: C_1  and  C_2
REMARK    2  A    between atoms: C_2  and  C_3
REMARK    3  A    between atoms: C_3  and  C_5
REMARK    4  A    between atoms: C_10  and  O_11
REMARK    5  A    between atoms: C_20  and  C_21
REMARK    6  A    between atoms: C_28  and  C_29
REMARK    7  A    between atoms: C_28  and  C_30
REMARK                            x       y       z     vdW  Elec       q    Type
REMARK                         _______ _______ _______ _____ _____    ______ ____
ROOT
ATOM      1  C   UNL     1       0.022  10.055  20.850  0.00  0.00    +0.000 A 
ATOM      2  C   UNL     1      -0.083   9.618  22.174  0.00  0.00    +0.000 A 
ATOM      3  C   UNL     1      -0.632  10.454  23.140  0.00  0.00    +0.000 A 
ATOM      4  C   UNL     1      -1.082  11.727  22.792  0.00  0.00    +0.000 A 
ATOM      5  C   UNL     1      -1.053  12.180  21.452  0.00  0.00    +0.000 A 
ATOM      6  C   UNL     1      -0.481  11.323  20.489  0.00  0.00    +0.000 A 
ATOM      7  C   UNL     1      -1.526  13.581  21.092  0.00  0.00    +0.000 C 
ATOM      8  C   UNL     1      -2.924  13.784  20.517  0.00  0.00    +0.000 A 
ATOM      9  C   UNL     1      -3.562  15.006  20.835  0.00  0.00    +0.000 A 
ATOM     10  C   UNL     1      -4.946  15.135  20.864  0.00  0.00    +0.000 A 
ATOM     11  C   UNL     1      -5.717  14.000  20.774  0.00  0.00    +0.000 A 
ATOM     12  C   UNL     1      -5.089  12.830  20.407  0.00  0.00    +0.000 A 
ATOM     13  C   UNL     1      -5.895  11.699  19.961  0.00  0.00    +0.000 A 
ATOM     14  O   UNL     1      -6.563  10.979  20.666  0.00  0.00    +0.000 OA
ATOM     15  C   UNL     1      -5.823  11.693  18.497  0.00  0.00    +0.000 A 
ATOM     16  C   UNL     1      -7.130  11.979  17.850  0.00  0.00    +0.000 C 
ATOM     17  C   UNL     1      -4.552  11.779  18.055  0.00  0.00    +0.000 A 
ATOM     18  O   UNL     1      -3.450  11.969  18.935  0.00  0.00    +0.000 OA
ATOM     19  C   UNL     1      -3.751  12.785  20.025  0.00  0.00    +0.000 A 
ATOM     20  O   UNL     1      -2.908  16.109  21.288  0.00  0.00    +0.000 OA
ATOM     21  C   UNL     1      -1.778  15.850  22.104  0.00  0.00    +0.000 C 
ATOM     22  C   UNL     1      -1.480  14.385  22.411  0.00  0.00    +0.000 C 
ATOM     23  C   UNL     1      -2.268  13.647  23.550  0.00  0.00    +0.000 C 
ATOM     24  C   UNL     1      -2.375  14.538  24.798  0.00  0.00    +0.000 C 
ATOM     25  C   UNL     1      -3.688  13.076  23.373  0.00  0.00    +0.000 C 
ATOM     26  O   UNL     1      -1.470  12.489  23.877  0.00  0.00    +0.000 OA
ENDROOT
BRANCH   1  27
ATOM     27  C   UNL     1       0.768   9.210  19.870  0.00  0.00    +0.000 C 
ATOM     28  O   UNL     1       0.755   9.492  18.673  0.00  0.00    +0.000 OA
BRANCH  27  30
ATOM     29  C   UNL     1       2.324   7.321  19.301  0.00  0.00    +0.000 C 
ATOM     30  C   UNL     1       1.631   8.085  20.415  0.00  0.00    +0.000 C 
ENDBRANCH  27  30
ENDBRANCH   1  27
BRANCH   6  31
ATOM     31  O   UNL     1      -0.423  11.692  19.169  0.00  0.00    +0.000 OA
ATOM     32  H   UNL     1      -1.235  11.449  18.701  0.00  0.00    +0.000 HD
ENDBRANCH   6  31
TORSDOF 3
ENDMDL
MODEL 4
REMARK VINA RESULT:      -6.8      1.871      4.845
REMARK  Name = 
REMARK  7 active torsions:
REMARK  status: ('A' for Active; 'I' for Inactive)
REMARK    1  A    between atoms: C_1  and  C_2
REMARK    2  A    between atoms: C_2  and  C_3
REMARK    3  A    between atoms: C_3  and  C_5
REMARK    4  A    between atoms: C_10  and  O_11
REMARK    5  A    between atoms: C_20  and  C_21
REMARK    6  A    between atoms: C_28  and  C_29
REMARK    7  A    between atoms: C_28  and  C_30
REMARK                            x       y       z     vdW  Elec       q    Type
REMARK                         _______ _______ _______ _____ _____    ______ ____
ROOT
ATOM      1  C   UNL     1      -3.144  11.524  18.045  0.00  0.00    +0.000 A 
ATOM      2  C   UNL     1      -4.519  11.675  18.247  0.00  0.00    +0.000 A 
ATOM      3  C   UNL     1      -4.989  12.254  19.421  0.00  0.00    +0.000 A 
ATOM      4  C   UNL     1      -4.092  12.688  20.396  0.00  0.00    +0.000 A 
ATOM      5  C   UNL     1      -2.693  12.612  20.200  0.00  0.00    +0.000 A 
ATOM      6  C   UNL     1      -2.236  12.010  19.009  0.00  0.00    +0.000 A 
ATOM      7  C   UNL     1      -1.728  13.069  21.285  0.00  0.00    +0.000 C 
ATOM      8  C   UNL     1      -1.079  14.446  21.189  0.00  0.00    +0.000 A 
ATOM      9  C   UNL     1      -0.794  15.091  22.416  0.00  0.00    +0.000 A 
ATOM     10  C   UNL     1      -0.718  16.475  22.527  0.00  0.00    +0.000 A 
ATOM     11  C   UNL     1      -1.123  17.245  21.462  0.00  0.00    +0.000 A 
ATOM     12  C   UNL     1      -1.341  16.609  20.260  0.00  0.00    +0.000 A 
ATOM     13  C   UNL     1      -1.425  17.402  19.039  0.00  0.00    +0.000 A 
ATOM     14  O   UNL     1      -2.357  18.096  18.704  0.00  0.00    +0.000 OA
ATOM     15  C   UNL     1      -0.123  17.281  18.377  0.00  0.00    +0.000 A 
ATOM     16  C   UNL     1       0.624  18.565  18.326  0.00  0.00    +0.000 C 
ATOM     17  C   UNL     1       0.270  15.995  18.273  0.00  0.00    +0.000 A 
ATOM     18  O   UNL     1      -0.465  14.923  18.851  0.00  0.00    +0.000 OA
ATOM     19  C   UNL     1      -1.062  15.259  20.066  0.00  0.00    +0.000 A 
ATOM     20  O   UNL     1      -0.724  14.450  23.614  0.00  0.00    +0.000 OA
ATOM     21  C   UNL     1      -1.604  13.349  23.763  0.00  0.00    +0.000 C 
ATOM     22  C   UNL     1      -2.546  13.065  22.596  0.00  0.00    +0.000 C 
ATOM     23  C   UNL     1      -3.869  13.893  22.437  0.00  0.00    +0.000 C 
ATOM     24  C   UNL     1      -4.580  14.041  23.792  0.00  0.00    +0.000 C 
ATOM     25  C   UNL     1      -3.923  15.309  21.829  0.00  0.00    +0.000 C 
ATOM     26  O   UNL     1      -4.707  13.110  21.559  0.00  0.00    +0.000 OA
ENDROOT
BRANCH   1  27
ATOM     27  C   UNL     1      -2.672  10.747  16.860  0.00  0.00    +0.000 C 
ATOM     28  O   UNL     1      -1.712   9.985  16.960  0.00  0.00    +0.000 OA
BRANCH  27  30
ATOM     29  C   UNL     1      -2.874  10.009  14.466  0.00  0.00    +0.000 C 
ATOM     30  C   UNL     1      -3.488  10.837  15.581  0.00  0.00    +0.000 C 
ENDBRANCH  27  30
ENDBRANCH   1  27
BRANCH   6  31
ATOM     31  O   UNL     1      -0.894  11.907  18.748  0.00  0.00    +0.000 OA
ATOM     32  H   UNL     1      -0.426  12.721  18.985  0.00  0.00    +0.000 HD
ENDBRANCH   6  31
TORSDOF 3
ENDMDL
MODEL 5
REMARK VINA RESULT:      -6.7      1.554      1.862
REMARK  Name = 
REMARK  7 active torsions:
REMARK  status: ('A' for Active; 'I' for Inactive)
REMARK    1  A    between atoms: C_1  and  C_2
REMARK    2  A    between atoms: C_2  and  C_3
REMARK    3  A    between atoms: C_3  and  C_5
REMARK    4  A    between atoms: C_10  and  O_11
REMARK    5  A    between atoms: C_20  and  C_21
REMARK    6  A    between atoms: C_28  and  C_29
REMARK    7  A    between atoms: C_28  and  C_30
REMARK                            x       y       z     vdW  Elec       q    Type
REMARK                         _______ _______ _______ _____ _____    ______ ____
ROOT
ATOM      1  C   UNL     1      -1.762  10.284  17.441  0.00  0.00    +0.000 A 
ATOM      2  C   UNL     1      -0.640   9.541  17.818  0.00  0.00    +0.000 A 
ATOM      3  C   UNL     1       0.384  10.146  18.538  0.00  0.00    +0.000 A 
ATOM      4  C   UNL     1       0.293  11.492  18.889  0.00  0.00    +0.000 A 
ATOM      5  C   UNL     1      -0.855  12.260  18.583  0.00  0.00    +0.000 A 
ATOM      6  C   UNL     1      -1.876  11.632  17.841  0.00  0.00    +0.000 A 
ATOM      7  C   UNL     1      -0.928  13.735  18.952  0.00  0.00    +0.000 C 
ATOM      8  C   UNL     1      -1.690  14.165  20.202  0.00  0.00    +0.000 A 
ATOM      9  C   UNL     1      -1.199  15.310  20.873  0.00  0.00    +0.000 A 
ATOM     10  C   UNL     1      -1.403  15.519  22.231  0.00  0.00    +0.000 A 
ATOM     11  C   UNL     1      -1.927  14.495  22.985  0.00  0.00    +0.000 A 
ATOM     12  C   UNL     1      -2.454  13.413  22.314  0.00  0.00    +0.000 A 
ATOM     13  C   UNL     1      -3.320  12.484  23.029  0.00  0.00    +0.000 A 
ATOM     14  O   UNL     1      -2.965  11.657  23.837  0.00  0.00    +0.000 OA
ATOM     15  C   UNL     1      -4.695  12.836  22.663  0.00  0.00    +0.000 A 
ATOM     16  C   UNL     1      -5.486  13.358  23.808  0.00  0.00    +0.000 C 
ATOM     17  C   UNL     1      -4.847  12.945  21.327  0.00  0.00    +0.000 A 
ATOM     18  O   UNL     1      -3.754  12.837  20.424  0.00  0.00    +0.000 OA
ATOM     19  C   UNL     1      -2.570  13.377  20.927  0.00  0.00    +0.000 A 
ATOM     20  O   UNL     1      -0.361  16.221  20.307  0.00  0.00    +0.000 OA
ATOM     21  C   UNL     1       0.562  15.694  19.370  0.00  0.00    +0.000 C 
ATOM     22  C   UNL     1       0.536  14.182  19.162  0.00  0.00    +0.000 C 
ATOM     23  C   UNL     1       1.275  13.238  20.175  0.00  0.00    +0.000 C 
ATOM     24  C   UNL     1       2.665  13.798  20.520  0.00  0.00    +0.000 C 
ATOM     25  C   UNL     1       0.689  12.824  21.539  0.00  0.00    +0.000 C 
ATOM     26  O   UNL     1       1.442  11.986  19.477  0.00  0.00    +0.000 OA
ENDROOT
BRANCH   1  27
ATOM     27  C   UNL     1      -2.764   9.661  16.525  0.00  0.00    +0.000 C 
ATOM     28  O   UNL     1      -3.812   9.201  16.973  0.00  0.00    +0.000 OA
BRANCH  27  30
ATOM     29  C   UNL     1      -3.744  10.139  14.261  0.00  0.00    +0.000 C 
ATOM     30  C   UNL     1      -2.500   9.731  15.030  0.00  0.00    +0.000 C 
ENDBRANCH  27  30
ENDBRANCH   1  27
BRANCH   6  31
ATOM     31  O   UNL     1      -3.021  12.312  17.511  0.00  0.00    +0.000 OA
ATOM     32  H   UNL     1      -3.012  13.211  17.873  0.00  0.00    +0.000 HD
ENDBRANCH   6  31
TORSDOF 3
ENDMDL
MODEL 6
REMARK VINA RESULT:      -6.6      8.837     11.713
REMARK  Name = 
REMARK  7 active torsions:
REMARK  status: ('A' for Active; 'I' for Inactive)
REMARK    1  A    between atoms: C_1  and  C_2
REMARK    2  A    between atoms: C_2  and  C_3
REMARK    3  A    between atoms: C_3  and  C_5
REMARK    4  A    between atoms: C_10  and  O_11
REMARK    5  A    between atoms: C_20  and  C_21
REMARK    6  A    between atoms: C_28  and  C_29
REMARK    7  A    between atoms: C_28  and  C_30
REMARK                            x       y       z     vdW  Elec       q    Type
REMARK                         _______ _______ _______ _____ _____    ______ ____
ROOT
ATOM      1  C   UNL     1       8.870  10.764  18.647  0.00  0.00    +0.000 A 
ATOM      2  C   UNL     1       9.602  10.598  19.827  0.00  0.00    +0.000 A 
ATOM      3  C   UNL     1      10.362  11.651  20.326  0.00  0.00    +0.000 A 
ATOM      4  C   UNL     1      10.393  12.873  19.655  0.00  0.00    +0.000 A 
ATOM      5  C   UNL     1       9.614  13.099  18.495  0.00  0.00    +0.000 A 
ATOM      6  C   UNL     1       8.861  12.016  17.998  0.00  0.00    +0.000 A 
ATOM      7  C   UNL     1       9.678  14.431  17.761  0.00  0.00    +0.000 C 
ATOM      8  C   UNL     1       8.586  15.473  17.988  0.00  0.00    +0.000 A 
ATOM      9  C   UNL     1       8.983  16.827  17.892  0.00  0.00    +0.000 A 
ATOM     10  C   UNL     1       8.313  17.846  18.558  0.00  0.00    +0.000 A 
ATOM     11  C   UNL     1       7.360  17.509  19.491  0.00  0.00    +0.000 A 
ATOM     12  C   UNL     1       6.943  16.196  19.532  0.00  0.00    +0.000 A 
ATOM     13  C   UNL     1       5.713  15.862  20.240  0.00  0.00    +0.000 A 
ATOM     14  O   UNL     1       5.570  15.819  21.439  0.00  0.00    +0.000 OA
ATOM     15  C   UNL     1       4.675  15.710  19.215  0.00  0.00    +0.000 A 
ATOM     16  C   UNL     1       3.616  16.748  19.303  0.00  0.00    +0.000 C 
ATOM     17  C   UNL     1       5.073  14.898  18.214  0.00  0.00    +0.000 A 
ATOM     18  O   UNL     1       6.390  14.366  18.141  0.00  0.00    +0.000 OA
ATOM     19  C   UNL     1       7.366  15.247  18.606  0.00  0.00    +0.000 A 
ATOM     20  O   UNL     1      10.126  17.243  17.282  0.00  0.00    +0.000 OA
ATOM     21  C   UNL     1      11.225  16.354  17.386  0.00  0.00    +0.000 C 
ATOM     22  C   UNL     1      11.003  15.088  18.209  0.00  0.00    +0.000 C 
ATOM     23  C   UNL     1      11.107  15.141  19.774  0.00  0.00    +0.000 C 
ATOM     24  C   UNL     1      12.333  15.960  20.206  0.00  0.00    +0.000 C 
ATOM     25  C   UNL     1       9.974  15.649  20.687  0.00  0.00    +0.000 C 
ATOM     26  O   UNL     1      11.296  13.771  20.190  0.00  0.00    +0.000 OA
ENDROOT
BRANCH   1  27
ATOM     27  C   UNL     1       8.203   9.572  18.042  0.00  0.00    +0.000 C 
ATOM     28  O   UNL     1       7.455   9.705  17.075  0.00  0.00    +0.000 OA
BRANCH  27  30
ATOM     29  C   UNL     1       7.677   7.115  18.014  0.00  0.00    +0.000 C 
ATOM     30  C   UNL     1       8.578   8.200  18.576  0.00  0.00    +0.000 C 
ENDBRANCH  27  30
ENDBRANCH   1  27
BRANCH   6  31
ATOM     31  O   UNL     1       8.079  12.162  16.881  0.00  0.00    +0.000 OA
ATOM     32  H   UNL     1       8.564  12.602  16.167  0.00  0.00    +0.000 HD
ENDBRANCH   6  31
TORSDOF 3
ENDMDL
MODEL 7
REMARK VINA RESULT:      -6.6      1.888      2.547
REMARK  Name = 
REMARK  7 active torsions:
REMARK  status: ('A' for Active; 'I' for Inactive)
REMARK    1  A    between atoms: C_1  and  C_2
REMARK    2  A    between atoms: C_2  and  C_3
REMARK    3  A    between atoms: C_3  and  C_5
REMARK    4  A    between atoms: C_10  and  O_11
REMARK    5  A    between atoms: C_20  and  C_21
REMARK    6  A    between atoms: C_28  and  C_29
REMARK    7  A    between atoms: C_28  and  C_30
REMARK                            x       y       z     vdW  Elec       q    Type
REMARK                         _______ _______ _______ _____ _____    ______ ____
ROOT
ATOM      1  C   UNL     1      -1.319  10.475  17.836  0.00  0.00    +0.000 A 
ATOM      2  C   UNL     1      -0.145   9.784  18.147  0.00  0.00    +0.000 A 
ATOM      3  C   UNL     1       0.967  10.477  18.613  0.00  0.00    +0.000 A 
ATOM      4  C   UNL     1       0.913  11.861  18.773  0.00  0.00    +0.000 A 
ATOM      5  C   UNL     1      -0.277  12.587  18.531  0.00  0.00    +0.000 A 
ATOM      6  C   UNL     1      -1.389  11.868  18.048  0.00  0.00    +0.000 A 
ATOM      7  C   UNL     1      -0.312  14.101  18.688  0.00  0.00    +0.000 C 
ATOM      8  C   UNL     1      -0.887  14.716  19.961  0.00  0.00    +0.000 A 
ATOM      9  C   UNL     1      -0.315  15.941  20.377  0.00  0.00    +0.000 A 
ATOM     10  C   UNL     1      -0.320  16.349  21.706  0.00  0.00    +0.000 A 
ATOM     11  C   UNL     1      -0.714  15.450  22.670  0.00  0.00    +0.000 A 
ATOM     12  C   UNL     1      -1.321  14.288  22.249  0.00  0.00    +0.000 A 
ATOM     13  C   UNL     1      -2.061  13.481  23.213  0.00  0.00    +0.000 A 
ATOM     14  O   UNL     1      -1.581  12.778  24.070  0.00  0.00    +0.000 OA
ATOM     15  C   UNL     1      -3.479  13.789  23.006  0.00  0.00    +0.000 A 
ATOM     16  C   UNL     1      -4.098  14.481  24.167  0.00  0.00    +0.000 C 
ATOM     17  C   UNL     1      -3.828  13.704  21.706  0.00  0.00    +0.000 A 
ATOM     18  O   UNL     1      -2.879  13.455  20.677  0.00  0.00    +0.000 OA
ATOM     19  C   UNL     1      -1.641  14.050  20.915  0.00  0.00    +0.000 A 
ATOM     20  O   UNL     1       0.419  16.753  19.568  0.00  0.00    +0.000 OA
ATOM     21  C   UNL     1       1.199  16.085  18.592  0.00  0.00    +0.000 C 
ATOM     22  C   UNL     1       1.161  14.560  18.612  0.00  0.00    +0.000 C 
ATOM     23  C   UNL     1       2.053  13.767  19.631  0.00  0.00    +0.000 C 
ATOM     24  C   UNL     1       3.471  14.357  19.681  0.00  0.00    +0.000 C 
ATOM     25  C   UNL     1       1.679  13.561  21.113  0.00  0.00    +0.000 C 
ATOM     26  O   UNL     1       2.130  12.424  19.106  0.00  0.00    +0.000 OA
ENDROOT
BRANCH   1  27
ATOM     27  C   UNL     1      -2.437   9.734  17.179  0.00  0.00    +0.000 C 
ATOM     28  O   UNL     1      -3.397   9.344  17.841  0.00  0.00    +0.000 OA
BRANCH  27  30
ATOM     29  C   UNL     1      -3.396  10.533  14.997  0.00  0.00    +0.000 C 
ATOM     30  C   UNL     1      -2.405   9.596  15.666  0.00  0.00    +0.000 C 
ENDBRANCH  27  30
ENDBRANCH   1  27
BRANCH   6  31
ATOM     31  O   UNL     1      -2.578  12.504  17.795  0.00  0.00    +0.000 OA
ATOM     32  H   UNL     1      -3.317  11.876  17.785  0.00  0.00    +0.000 HD
ENDBRANCH   6  31
TORSDOF 3
ENDMDL
MODEL 8
REMARK VINA RESULT:      -6.6      7.070     11.523
REMARK  Name = 
REMARK  7 active torsions:
REMARK  status: ('A' for Active; 'I' for Inactive)
REMARK    1  A    between atoms: C_1  and  C_2
REMARK    2  A    between atoms: C_2  and  C_3
REMARK    3  A    between atoms: C_3  and  C_5
REMARK    4  A    between atoms: C_10  and  O_11
REMARK    5  A    between atoms: C_20  and  C_21
REMARK    6  A    between atoms: C_28  and  C_29
REMARK    7  A    between atoms: C_28  and  C_30
REMARK                            x       y       z     vdW  Elec       q    Type
REMARK                         _______ _______ _______ _____ _____    ______ ____
ROOT
ATOM      1  C   UNL     1       1.637   8.834  19.253  0.00  0.00    +0.000 A 
ATOM      2  C   UNL     1       1.786   8.783  20.642  0.00  0.00    +0.000 A 
ATOM      3  C   UNL     1       1.847   7.554  21.289  0.00  0.00    +0.000 A 
ATOM      4  C   UNL     1       1.763   6.371  20.556  0.00  0.00    +0.000 A 
ATOM      5  C   UNL     1       1.678   6.381  19.143  0.00  0.00    +0.000 A 
ATOM      6  C   UNL     1       1.605   7.638  18.507  0.00  0.00    +0.000 A 
ATOM      7  C   UNL     1       1.564   5.082  18.360  0.00  0.00    +0.000 C 
ATOM      8  C   UNL     1       2.802   4.485  17.698  0.00  0.00    +0.000 A 
ATOM      9  C   UNL     1       2.847   3.074  17.608  0.00  0.00    +0.000 A 
ATOM     10  C   UNL     1       4.044   2.371  17.545  0.00  0.00    +0.000 A 
ATOM     11  C   UNL     1       5.219   3.048  17.774  0.00  0.00    +0.000 A 
ATOM     12  C   UNL     1       5.168   4.425  17.802  0.00  0.00    +0.000 A 
ATOM     13  C   UNL     1       6.406   5.186  17.689  0.00  0.00    +0.000 A 
ATOM     14  O   UNL     1       7.241   5.320  18.553  0.00  0.00    +0.000 OA
ATOM     15  C   UNL     1       6.484   5.645  16.299  0.00  0.00    +0.000 A 
ATOM     16  C   UNL     1       7.612   5.036  15.548  0.00  0.00    +0.000 C 
ATOM     17  C   UNL     1       5.338   6.234  15.900  0.00  0.00    +0.000 A 
ATOM     18  O   UNL     1       4.178   6.281  16.721  0.00  0.00    +0.000 OA
ATOM     19  C   UNL     1       4.010   5.137  17.501  0.00  0.00    +0.000 A 
ATOM     20  O   UNL     1       1.756   2.270  17.731  0.00  0.00    +0.000 OA
ATOM     21  C   UNL     1       0.761   2.732  18.628  0.00  0.00    +0.000 C 
ATOM     22  C   UNL     1       1.065   4.028  19.375  0.00  0.00    +0.000 C 
ATOM     23  C   UNL     1       1.975   4.002  20.653  0.00  0.00    +0.000 C 
ATOM     24  C   UNL     1       1.586   2.829  21.568  0.00  0.00    +0.000 C 
ATOM     25  C   UNL     1       3.514   3.945  20.605  0.00  0.00    +0.000 C 
ATOM     26  O   UNL     1       1.697   5.239  21.345  0.00  0.00    +0.000 OA
ENDROOT
BRANCH   1  27
ATOM     27  C   UNL     1       1.403  10.159  18.603  0.00  0.00    +0.000 C 
ATOM     28  O   UNL     1       2.189  10.581  17.756  0.00  0.00    +0.000 OA
BRANCH  27  30
ATOM     29  C   UNL     1      -1.077  10.271  18.217  0.00  0.00    +0.000 C 
ATOM     30  C   UNL     1       0.112  10.891  18.928  0.00  0.00    +0.000 C 
ENDBRANCH  27  30
ENDBRANCH   1  27
BRANCH   6  31
ATOM     31  O   UNL     1       1.526   7.726  17.140  0.00  0.00    +0.000 OA
ATOM     32  H   UNL     1       0.666   7.418  16.818  0.00  0.00    +0.000 HD
ENDBRANCH   6  31
TORSDOF 3
ENDMDL
MODEL 9
REMARK VINA RESULT:      -6.4      7.706     10.802
REMARK  Name = 
REMARK  7 active torsions:
REMARK  status: ('A' for Active; 'I' for Inactive)
REMARK    1  A    between atoms: C_1  and  C_2
REMARK    2  A    between atoms: C_2  and  C_3
REMARK    3  A    between atoms: C_3  and  C_5
REMARK    4  A    between atoms: C_10  and  O_11
REMARK    5  A    between atoms: C_20  and  C_21
REMARK    6  A    between atoms: C_28  and  C_29
REMARK    7  A    between atoms: C_28  and  C_30
REMARK                            x       y       z     vdW  Elec       q    Type
REMARK                         _______ _______ _______ _____ _____    ______ ____
ROOT
ATOM      1  C   UNL     1       9.319  11.948  19.712  0.00  0.00    +0.000 A 
ATOM      2  C   UNL     1       9.417  11.557  21.051  0.00  0.00    +0.000 A 
ATOM      3  C   UNL     1       9.365  12.513  22.059  0.00  0.00    +0.000 A 
ATOM      4  C   UNL     1       9.213  13.862  21.740  0.00  0.00    +0.000 A 
ATOM      5  C   UNL     1       9.045  14.290  20.401  0.00  0.00    +0.000 A 
ATOM      6  C   UNL     1       9.113  13.307  19.392  0.00  0.00    +0.000 A 
ATOM      7  C   UNL     1       8.904  15.768  20.067  0.00  0.00    +0.000 C 
ATOM      8  C   UNL     1       7.520  16.358  19.815  0.00  0.00    +0.000 A 
ATOM      9  C   UNL     1       7.337  17.710  20.188  0.00  0.00    +0.000 A 
ATOM     10  C   UNL     1       6.091  18.226  20.525  0.00  0.00    +0.000 A 
ATOM     11  C   UNL     1       5.039  17.354  20.689  0.00  0.00    +0.000 A 
ATOM     12  C   UNL     1       5.215  16.055  20.267  0.00  0.00    +0.000 A 
ATOM     13  C   UNL     1       4.048  15.198  20.093  0.00  0.00    +0.000 A 
ATOM     14  O   UNL     1       3.395  14.696  20.978  0.00  0.00    +0.000 OA
ATOM     15  C   UNL     1       3.763  15.174  18.655  0.00  0.00    +0.000 A 
ATOM     16  C   UNL     1       2.470  15.818  18.307  0.00  0.00    +0.000 C 
ATOM     17  C   UNL     1       4.867  14.898  17.930  0.00  0.00    +0.000 A 
ATOM     18  O   UNL     1       6.154  14.767  18.520  0.00  0.00    +0.000 OA
ATOM     19  C   UNL     1       6.358  15.634  19.593  0.00  0.00    +0.000 A 
ATOM     20  O   UNL     1       8.358  18.583  20.406  0.00  0.00    +0.000 OA
ATOM     21  C   UNL     1       9.533  18.014  20.957  0.00  0.00    +0.000 C 
ATOM     22  C   UNL     1       9.482  16.525  21.284  0.00  0.00    +0.000 C 
ATOM     23  C   UNL     1       8.816  16.038  22.620  0.00  0.00    +0.000 C 
ATOM     24  C   UNL     1       9.259  16.922  23.797  0.00  0.00    +0.000 C 
ATOM     25  C   UNL     1       7.294  15.892  22.811  0.00  0.00    +0.000 C 
ATOM     26  O   UNL     1       9.320  14.701  22.831  0.00  0.00    +0.000 OA
ENDROOT
BRANCH   1  27
ATOM     27  C   UNL     1       9.548  10.928  18.646  0.00  0.00    +0.000 C 
ATOM     28  O   UNL     1      10.234  11.202  17.663  0.00  0.00    +0.000 OA
BRANCH  27  30
ATOM     29  C   UNL     1       8.064   9.095  17.778  0.00  0.00    +0.000 C 
ATOM     30  C   UNL     1       9.017   9.524  18.880  0.00  0.00    +0.000 C 
ENDBRANCH  27  30
ENDBRANCH   1  27
BRANCH   6  31
ATOM     31  O   UNL     1       8.954  13.646  18.073  0.00  0.00    +0.000 OA
ATOM     32  H   UNL     1       8.775  12.865  17.529  0.00  0.00    +0.000 HD
ENDBRANCH   6  31
TORSDOF 3
ENDMDL
