MODEL 1
REMARK VINA RESULT:      -7.6      0.000      0.000
REMARK  Name = 
REMARK  8 active torsions:
REMARK  status: ('A' for Active; 'I' for Inactive)
REMARK    1  A    between atoms: C_1  and  O_2
REMARK    2  A    between atoms: O_2  and  C_3
REMARK    3  A    between atoms: C_12  and  C_13
REMARK    4  A    between atoms: C_13  and  N_14
REMARK    5  A    between atoms: N_14  and  C_15
REMARK    6  A    between atoms: N_14  and  C_16
REMARK    7  A    between atoms: C_16  and  C_17
REMARK    8  A    between atoms: C_17  and  C_18
REMARK                            x       y       z     vdW  Elec       q    Type
REMARK                         _______ _______ _______ _____ _____    ______ ____
ROOT
ATOM      1  C   UNL     1       2.783   5.190  19.470  0.00  0.00    +0.000 C 
ENDROOT
BRANCH   1  11
ATOM      2  C   UNL     1       6.307   5.220  15.739  0.00  0.00    +0.000 A 
ATOM      3  C   UNL     1       5.709   6.377  16.236  0.00  0.00    +0.000 A 
ATOM      4  C   UNL     1       4.507   6.308  16.958  0.00  0.00    +0.000 A 
ATOM      5  C   UNL     1       3.884   5.072  17.191  0.00  0.00    +0.000 A 
ATOM      6  C   UNL     1       4.517   3.899  16.725  0.00  0.00    +0.000 A 
ATOM      7  C   UNL     1       5.711   3.985  15.999  0.00  0.00    +0.000 A 
ATOM      8  C   UNL     1       3.909   2.525  16.882  0.00  0.00    +0.000 C 
ATOM      9  C   UNL     1       2.712   2.501  17.815  0.00  0.00    +0.000 C 
ATOM     10  C   UNL     1       1.836   3.709  17.508  0.00  0.00    +0.000 C 
ATOM     11  C   UNL     1       2.540   5.006  17.937  0.00  0.00    +0.000 C 
BRANCH   2  13
ATOM     12  C   UNL     1       7.453   4.852  13.697  0.00  0.00    +0.000 C 
ATOM     13  O   UNL     1       7.455   5.396  15.014  0.00  0.00    +0.000 OA
ENDBRANCH   2  13
ENDBRANCH   1  11
BRANCH   1  14
ATOM     14  N   UNL     1       1.677   4.989  20.443  0.00  0.00    +0.000 NA
ATOM     15  C   UNL     1       2.012   4.064  21.529  0.00  0.00    +0.000 C 
BRANCH  14  16
ATOM     16  C   UNL     1       1.279   6.283  21.057  0.00  0.00    +0.000 C 
BRANCH  16  17
ATOM     17  C   UNL     1       1.893   7.514  20.373  0.00  0.00    +0.000 C 
BRANCH  17  18
ATOM     18  C   UNL     1       1.099   8.768  20.652  0.00  0.00    +0.000 A 
ATOM     19  C   UNL     1       0.798   9.663  19.602  0.00  0.00    +0.000 A 
ATOM     20  C   UNL     1       0.084  10.838  19.848  0.00  0.00    +0.000 A 
ATOM     21  C   UNL     1      -0.316  11.088  21.143  0.00  0.00    +0.000 A 
ATOM     22  C   UNL     1      -0.038  10.214  22.168  0.00  0.00    +0.000 A 
ATOM     23  C   UNL     1       0.661   9.048  21.956  0.00  0.00    +0.000 A 
ATOM     24  O   UNL     1      -0.519  10.647  23.364  0.00  0.00    +0.000 OA
ATOM     25  C   UNL     1      -1.095  11.913  22.980  0.00  0.00    +0.000 C 
ATOM     26  O   UNL     1      -1.005  12.181  21.566  0.00  0.00    +0.000 OA
ENDBRANCH  17  18
ENDBRANCH  16  17
ENDBRANCH  14  16
ENDBRANCH   1  14
TORSDOF 6
ENDMDL
MODEL 2
REMARK VINA RESULT:      -7.5      1.593      2.535
REMARK  Name = 
REMARK  8 active torsions:
REMARK  status: ('A' for Active; 'I' for Inactive)
REMARK    1  A    between atoms: C_1  and  O_2
REMARK    2  A    between atoms: O_2  and  C_3
REMARK    3  A    between atoms: C_12  and  C_13
REMARK    4  A    between atoms: C_13  and  N_14
REMARK    5  A    between atoms: N_14  and  C_15
REMARK    6  A    between atoms: N_14  and  C_16
REMARK    7  A    between atoms: C_16  and  C_17
REMARK    8  A    between atoms: C_17  and  C_18
REMARK                            x       y       z     vdW  Elec       q    Type
REMARK                         _______ _______ _______ _____ _____    ______ ____
ROOT
ATOM      1  C   UNL     1       3.247   5.008  17.786  0.00  0.00    +0.000 C 
ENDROOT
BRANCH   1  11
ATOM      2  C   UNL     1       6.981   4.822  14.270  0.00  0.00    +0.000 A 
ATOM      3  C   UNL     1       5.753   4.182  14.116  0.00  0.00    +0.000 A 
ATOM      4  C   UNL     1       4.930   3.935  15.226  0.00  0.00    +0.000 A 
ATOM      5  C   UNL     1       5.329   4.329  16.513  0.00  0.00    +0.000 A 
ATOM      6  C   UNL     1       6.553   5.017  16.658  0.00  0.00    +0.000 A 
ATOM      7  C   UNL     1       7.367   5.248  15.542  0.00  0.00    +0.000 A 
ATOM      8  C   UNL     1       7.098   5.443  18.001  0.00  0.00    +0.000 C 
ATOM      9  C   UNL     1       6.090   5.307  19.128  0.00  0.00    +0.000 C 
ATOM     10  C   UNL     1       5.363   3.978  18.969  0.00  0.00    +0.000 C 
ATOM     11  C   UNL     1       4.449   4.010  17.734  0.00  0.00    +0.000 C 
BRANCH   2  13
ATOM     12  C   UNL     1       7.232   4.332  11.965  0.00  0.00    +0.000 C 
ATOM     13  O   UNL     1       7.728   4.979  13.133  0.00  0.00    +0.000 OA
ENDBRANCH   2  13
ENDBRANCH   1  11
BRANCH   1  14
ATOM     14  N   UNL     1       1.957   4.610  18.410  0.00  0.00    +0.000 NA
ATOM     15  C   UNL     1       1.801   3.160  18.557  0.00  0.00    +0.000 C 
BRANCH  14  16
ATOM     16  C   UNL     1       1.820   5.219  19.759  0.00  0.00    +0.000 C 
BRANCH  16  17
ATOM     17  C   UNL     1       2.709   6.450  19.983  0.00  0.00    +0.000 C 
BRANCH  17  18
ATOM     18  C   UNL     1       1.968   7.738  19.719  0.00  0.00    +0.000 A 
ATOM     19  C   UNL     1       2.006   8.327  18.436  0.00  0.00    +0.000 A 
ATOM     20  C   UNL     1       1.343   9.529  18.182  0.00  0.00    +0.000 A 
ATOM     21  C   UNL     1       0.651  10.115  19.222  0.00  0.00    +0.000 A 
ATOM     22  C   UNL     1       0.598   9.540  20.470  0.00  0.00    +0.000 A 
ATOM     23  C   UNL     1       1.239   8.354  20.749  0.00  0.00    +0.000 A 
ATOM     24  O   UNL     1      -0.132  10.276  21.349  0.00  0.00    +0.000 OA
ATOM     25  C   UNL     1      -0.498  11.399  20.521  0.00  0.00    +0.000 C 
ATOM     26  O   UNL     1      -0.037  11.284  19.159  0.00  0.00    +0.000 OA
ENDBRANCH  17  18
ENDBRANCH  16  17
ENDBRANCH  14  16
ENDBRANCH   1  14
TORSDOF 6
ENDMDL
MODEL 3
REMARK VINA RESULT:      -7.5      1.989      2.759
REMARK  Name = 
REMARK  8 active torsions:
REMARK  status: ('A' for Active; 'I' for Inactive)
REMARK    1  A    between atoms: C_1  and  O_2
REMARK    2  A    between atoms: O_2  and  C_3
REMARK    3  A    between atoms: C_12  and  C_13
REMARK    4  A    between atoms: C_13  and  N_14
REMARK    5  A    between atoms: N_14  and  C_15
REMARK    6  A    between atoms: N_14  and  C_16
REMARK    7  A    between atoms: C_16  and  C_17
REMARK    8  A    between atoms: C_17  and  C_18
REMARK                            x       y       z     vdW  Elec       q    Type
REMARK                         _______ _______ _______ _____ _____    ______ ____
ROOT
ATOM      1  C   UNL     1       2.364   6.318  19.405  0.00  0.00    +0.000 C 
ENDROOT
BRANCH   1  11
ATOM      2  C   UNL     1       6.212   5.153  16.214  0.00  0.00    +0.000 A 
ATOM      3  C   UNL     1       5.578   6.394  16.227  0.00  0.00    +0.000 A 
ATOM      4  C   UNL     1       4.315   6.547  16.820  0.00  0.00    +0.000 A 
ATOM      5  C   UNL     1       3.666   5.451  17.411  0.00  0.00    +0.000 A 
ATOM      6  C   UNL     1       4.332   4.206  17.435  0.00  0.00    +0.000 A 
ATOM      7  C   UNL     1       5.587   4.068  16.831  0.00  0.00    +0.000 A 
ATOM      8  C   UNL     1       3.704   2.955  18.003  0.00  0.00    +0.000 C 
ATOM      9  C   UNL     1       2.427   3.222  18.779  0.00  0.00    +0.000 C 
ATOM     10  C   UNL     1       1.590   4.228  17.999  0.00  0.00    +0.000 C 
ATOM     11  C   UNL     1       2.260   5.611  18.014  0.00  0.00    +0.000 C 
BRANCH   2  13
ATOM     12  C   UNL     1       7.375   5.004  14.154  0.00  0.00    +0.000 C 
ATOM     13  O   UNL     1       7.422   5.098  15.575  0.00  0.00    +0.000 OA
ENDBRANCH   2  13
ENDBRANCH   1  11
BRANCH   1  14
ATOM     14  N   UNL     1       1.590   7.555  19.686  0.00  0.00    +0.000 NA
ATOM     15  C   UNL     1       1.594   7.939  21.100  0.00  0.00    +0.000 C 
BRANCH  14  16
ATOM     16  C   UNL     1       2.131   8.699  18.905  0.00  0.00    +0.000 C 
BRANCH  16  17
ATOM     17  C   UNL     1       1.237   9.136  17.736  0.00  0.00    +0.000 C 
BRANCH  17  18
ATOM     18  C   UNL     1       0.083   9.993  18.198  0.00  0.00    +0.000 A 
ATOM     19  C   UNL     1       0.255  10.894  19.271  0.00  0.00    +0.000 A 
ATOM     20  C   UNL     1      -0.809  11.677  19.724  0.00  0.00    +0.000 A 
ATOM     21  C   UNL     1      -2.024  11.542  19.086  0.00  0.00    +0.000 A 
ATOM     22  C   UNL     1      -2.196  10.676  18.031  0.00  0.00    +0.000 A 
ATOM     23  C   UNL     1      -1.165   9.894  17.561  0.00  0.00    +0.000 A 
ATOM     24  O   UNL     1      -3.466  10.693  17.547  0.00  0.00    +0.000 OA
ATOM     25  C   UNL     1      -4.083  11.639  18.446  0.00  0.00    +0.000 C 
ATOM     26  O   UNL     1      -3.165  12.210  19.399  0.00  0.00    +0.000 OA
ENDBRANCH  17  18
ENDBRANCH  16  17
ENDBRANCH  14  16
ENDBRANCH   1  14
TORSDOF 6
ENDMDL
MODEL 4
REMARK VINA RESULT:      -7.5      0.787      1.420
REMARK  Name = 
REMARK  8 active torsions:
REMARK  status: ('A' for Active; 'I' for Inactive)
REMARK    1  A    between atoms: C_1  and  O_2
REMARK    2  A    between atoms: O_2  and  C_3
REMARK    3  A    between atoms: C_12  and  C_13
REMARK    4  A    between atoms: C_13  and  N_14
REMARK    5  A    between atoms: N_14  and  C_15
REMARK    6  A    between atoms: N_14  and  C_16
REMARK    7  A    between atoms: C_16  and  C_17
REMARK    8  A    between atoms: C_17  and  C_18
REMARK                            x       y       z     vdW  Elec       q    Type
REMARK                         _______ _______ _______ _____ _____    ______ ____
ROOT
ATOM      1  C   UNL     1       2.822   5.863  19.449  0.00  0.00    +0.000 C 
ENDROOT
BRANCH   1  11
ATOM      2  C   UNL     1       6.314   4.962  15.797  0.00  0.00    +0.000 A 
ATOM      3  C   UNL     1       5.896   6.242  16.157  0.00  0.00    +0.000 A 
ATOM      4  C   UNL     1       4.697   6.432  16.861  0.00  0.00    +0.000 A 
ATOM      5  C   UNL     1       3.894   5.336  17.215  0.00  0.00    +0.000 A 
ATOM      6  C   UNL     1       4.344   4.038  16.888  0.00  0.00    +0.000 A 
ATOM      7  C   UNL     1       5.538   3.865  16.178  0.00  0.00    +0.000 A 
ATOM      8  C   UNL     1       3.537   2.795  17.181  0.00  0.00    +0.000 C 
ATOM      9  C   UNL     1       2.349   3.052  18.090  0.00  0.00    +0.000 C 
ATOM     10  C   UNL     1       1.665   4.336  17.641  0.00  0.00    +0.000 C 
ATOM     11  C   UNL     1       2.555   5.552  17.940  0.00  0.00    +0.000 C 
BRANCH   2  13
ATOM     12  C   UNL     1       7.335   4.896  13.659  0.00  0.00    +0.000 C 
ATOM     13  O   UNL     1       7.476   4.885  15.077  0.00  0.00    +0.000 OA
ENDBRANCH   2  13
ENDBRANCH   1  11
BRANCH   1  14
ATOM     14  N   UNL     1       1.772   5.613  20.472  0.00  0.00    +0.000 NA
ATOM     15  C   UNL     1       2.100   4.522  21.394  0.00  0.00    +0.000 C 
BRANCH  14  16
ATOM     16  C   UNL     1       1.532   6.835  21.284  0.00  0.00    +0.000 C 
BRANCH  16  17
ATOM     17  C   UNL     1       1.502   8.134  20.465  0.00  0.00    +0.000 C 
BRANCH  17  18
ATOM     18  C   UNL     1       0.622   9.182  21.101  0.00  0.00    +0.000 A 
ATOM     19  C   UNL     1       0.341   9.127  22.484  0.00  0.00    +0.000 A 
ATOM     20  C   UNL     1      -0.490  10.076  23.083  0.00  0.00    +0.000 A 
ATOM     21  C   UNL     1      -1.019  11.065  22.281  0.00  0.00    +0.000 A 
ATOM     22  C   UNL     1      -0.739  11.133  20.937  0.00  0.00    +0.000 A 
ATOM     23  C   UNL     1       0.078  10.214  20.319  0.00  0.00    +0.000 A 
ATOM     24  O   UNL     1      -1.359  12.180  20.330  0.00  0.00    +0.000 OA
ATOM     25  C   UNL     1      -2.094  12.737  21.440  0.00  0.00    +0.000 C 
ATOM     26  O   UNL     1      -1.852  12.058  22.689  0.00  0.00    +0.000 OA
ENDBRANCH  17  18
ENDBRANCH  16  17
ENDBRANCH  14  16
ENDBRANCH   1  14
TORSDOF 6
ENDMDL
MODEL 5
REMARK VINA RESULT:      -7.5      1.875      3.171
REMARK  Name = 
REMARK  8 active torsions:
REMARK  status: ('A' for Active; 'I' for Inactive)
REMARK    1  A    between atoms: C_1  and  O_2
REMARK    2  A    between atoms: O_2  and  C_3
REMARK    3  A    between atoms: C_12  and  C_13
REMARK    4  A    between atoms: C_13  and  N_14
REMARK    5  A    between atoms: N_14  and  C_15
REMARK    6  A    between atoms: N_14  and  C_16
REMARK    7  A    between atoms: C_16  and  C_17
REMARK    8  A    between atoms: C_17  and  C_18
REMARK                            x       y       z     vdW  Elec       q    Type
REMARK                         _______ _______ _______ _____ _____    ______ ____
ROOT
ATOM      1  C   UNL     1       4.797   5.385  19.102  0.00  0.00    +0.000 C 
ENDROOT
BRANCH   1  11
ATOM      2  C   UNL     1       6.286   4.275  14.318  0.00  0.00    +0.000 A 
ATOM      3  C   UNL     1       5.590   3.381  15.129  0.00  0.00    +0.000 A 
ATOM      4  C   UNL     1       5.541   3.564  16.520  0.00  0.00    +0.000 A 
ATOM      5  C   UNL     1       6.195   4.652  17.120  0.00  0.00    +0.000 A 
ATOM      6  C   UNL     1       6.861   5.580  16.290  0.00  0.00    +0.000 A 
ATOM      7  C   UNL     1       6.908   5.378  14.905  0.00  0.00    +0.000 A 
ATOM      8  C   UNL     1       7.634   6.758  16.836  0.00  0.00    +0.000 C 
ATOM      9  C   UNL     1       7.396   6.997  18.316  0.00  0.00    +0.000 C 
ATOM     10  C   UNL     1       7.417   5.653  19.033  0.00  0.00    +0.000 C 
ATOM     11  C   UNL     1       6.183   4.821  18.649  0.00  0.00    +0.000 C 
BRANCH   2  13
ATOM     12  C   UNL     1       5.146   3.348  12.458  0.00  0.00    +0.000 C 
ATOM     13  O   UNL     1       6.309   3.986  12.980  0.00  0.00    +0.000 OA
ENDBRANCH   2  13
ENDBRANCH   1  11
BRANCH   1  14
ATOM     14  N   UNL     1       3.543   4.645  18.802  0.00  0.00    +0.000 NA
ATOM     15  C   UNL     1       2.936   4.019  19.979  0.00  0.00    +0.000 C 
BRANCH  14  16
ATOM     16  C   UNL     1       2.531   5.553  18.200  0.00  0.00    +0.000 C 
BRANCH  16  17
ATOM     17  C   UNL     1       3.061   6.961  17.891  0.00  0.00    +0.000 C 
BRANCH  17  18
ATOM     18  C   UNL     1       2.243   8.033  18.569  0.00  0.00    +0.000 A 
ATOM     19  C   UNL     1       1.840   9.179  17.848  0.00  0.00    +0.000 A 
ATOM     20  C   UNL     1       1.102  10.189  18.468  0.00  0.00    +0.000 A 
ATOM     21  C   UNL     1       0.779  10.027  19.798  0.00  0.00    +0.000 A 
ATOM     22  C   UNL     1       1.155   8.907  20.502  0.00  0.00    +0.000 A 
ATOM     23  C   UNL     1       1.881   7.894  19.918  0.00  0.00    +0.000 A 
ATOM     24  O   UNL     1       0.739   8.944  21.796  0.00  0.00    +0.000 OA
ATOM     25  C   UNL     1       0.094  10.233  21.835  0.00  0.00    +0.000 C 
ATOM     26  O   UNL     1       0.081  10.909  20.560  0.00  0.00    +0.000 OA
ENDBRANCH  17  18
ENDBRANCH  16  17
ENDBRANCH  14  16
ENDBRANCH   1  14
TORSDOF 6
ENDMDL
MODEL 6
REMARK VINA RESULT:      -7.5      2.587      3.522
REMARK  Name = 
REMARK  8 active torsions:
REMARK  status: ('A' for Active; 'I' for Inactive)
REMARK    1  A    between atoms: C_1  and  O_2
REMARK    2  A    between atoms: O_2  and  C_3
REMARK    3  A    between atoms: C_12  and  C_13
REMARK    4  A    between atoms: C_13  and  N_14
REMARK    5  A    between atoms: N_14  and  C_15
REMARK    6  A    between atoms: N_14  and  C_16
REMARK    7  A    between atoms: C_16  and  C_17
REMARK    8  A    between atoms: C_17  and  C_18
REMARK                            x       y       z     vdW  Elec       q    Type
REMARK                         _______ _______ _______ _____ _____    ______ ____
ROOT
ATOM      1  C   UNL     1       2.560   7.069  19.463  0.00  0.00    +0.000 C 
ENDROOT
BRANCH   1  11
ATOM      2  C   UNL     1       6.237   5.183  16.419  0.00  0.00    +0.000 A 
ATOM      3  C   UNL     1       5.540   6.357  16.140  0.00  0.00    +0.000 A 
ATOM      4  C   UNL     1       4.315   6.629  16.767  0.00  0.00    +0.000 A 
ATOM      5  C   UNL     1       3.767   5.721  17.689  0.00  0.00    +0.000 A 
ATOM      6  C   UNL     1       4.499   4.555  18.003  0.00  0.00    +0.000 A 
ATOM      7  C   UNL     1       5.715   4.294  17.361  0.00  0.00    +0.000 A 
ATOM      8  C   UNL     1       3.980   3.493  18.944  0.00  0.00    +0.000 C 
ATOM      9  C   UNL     1       2.746   3.926  19.715  0.00  0.00    +0.000 C 
ATOM     10  C   UNL     1       1.805   4.645  18.758  0.00  0.00    +0.000 C 
ATOM     11  C   UNL     1       2.399   5.998  18.335  0.00  0.00    +0.000 C 
BRANCH   2  13
ATOM     12  C   UNL     1       7.278   4.899  14.308  0.00  0.00    +0.000 C 
ATOM     13  O   UNL     1       7.402   4.991  15.725  0.00  0.00    +0.000 OA
ENDBRANCH   2  13
ENDBRANCH   1  11
BRANCH   1  14
ATOM     14  N   UNL     1       1.406   7.907  19.883  0.00  0.00    +0.000 NA
ATOM     15  C   UNL     1       1.429   8.265  21.304  0.00  0.00    +0.000 C 
BRANCH  14  16
ATOM     16  C   UNL     1       1.364   9.169  19.100  0.00  0.00    +0.000 C 
BRANCH  16  17
ATOM     17  C   UNL     1       0.603  10.310  19.791  0.00  0.00    +0.000 C 
BRANCH  17  18
ATOM     18  C   UNL     1      -0.648  10.692  19.038  0.00  0.00    +0.000 A 
ATOM     19  C   UNL     1      -1.556  11.618  19.595  0.00  0.00    +0.000 A 
ATOM     20  C   UNL     1      -2.728  11.964  18.920  0.00  0.00    +0.000 A 
ATOM     21  C   UNL     1      -2.963  11.376  17.696  0.00  0.00    +0.000 A 
ATOM     22  C   UNL     1      -2.076  10.484  17.140  0.00  0.00    +0.000 A 
ATOM     23  C   UNL     1      -0.912  10.125  17.780  0.00  0.00    +0.000 A 
ATOM     24  O   UNL     1      -2.495  10.020  15.932  0.00  0.00    +0.000 OA
ATOM     25  C   UNL     1      -3.766  10.693  15.812  0.00  0.00    +0.000 C 
ATOM     26  O   UNL     1      -4.051  11.585  16.909  0.00  0.00    +0.000 OA
ENDBRANCH  17  18
ENDBRANCH  16  17
ENDBRANCH  14  16
ENDBRANCH   1  14
TORSDOF 6
ENDMDL
MODEL 7
REMARK VINA RESULT:      -7.5      1.422      2.113
REMARK  Name = 
REMARK  8 active torsions:
REMARK  status: ('A' for Active; 'I' for Inactive)
REMARK    1  A    between atoms: C_1  and  O_2
REMARK    2  A    between atoms: O_2  and  C_3
REMARK    3  A    between atoms: C_12  and  C_13
REMARK    4  A    between atoms: C_13  and  N_14
REMARK    5  A    between atoms: N_14  and  C_15
REMARK    6  A    between atoms: N_14  and  C_16
REMARK    7  A    between atoms: C_16  and  C_17
REMARK    8  A    between atoms: C_17  and  C_18
REMARK                            x       y       z     vdW  Elec       q    Type
REMARK                         _______ _______ _______ _____ _____    ______ ____
ROOT
ATOM      1  C   UNL     1       3.005   4.844  17.887  0.00  0.00    +0.000 C 
ENDROOT
BRANCH   1  11
ATOM      2  C   UNL     1       6.920   4.985  14.571  0.00  0.00    +0.000 A 
ATOM      3  C   UNL     1       5.752   4.259  14.345  0.00  0.00    +0.000 A 
ATOM      4  C   UNL     1       4.893   3.936  15.407  0.00  0.00    +0.000 A 
ATOM      5  C   UNL     1       5.195   4.337  16.718  0.00  0.00    +0.000 A 
ATOM      6  C   UNL     1       6.356   5.111  16.935  0.00  0.00    +0.000 A 
ATOM      7  C   UNL     1       7.208   5.417  15.867  0.00  0.00    +0.000 A 
ATOM      8  C   UNL     1       6.798   5.554  18.310  0.00  0.00    +0.000 C 
ATOM      9  C   UNL     1       5.746   5.327  19.381  0.00  0.00    +0.000 C 
ATOM     10  C   UNL     1       5.128   3.952  19.168  0.00  0.00    +0.000 C 
ATOM     11  C   UNL     1       4.279   3.936  17.887  0.00  0.00    +0.000 C 
BRANCH   2  13
ATOM     12  C   UNL     1       7.314   4.566  12.271  0.00  0.00    +0.000 C 
ATOM     13  O   UNL     1       7.711   5.214  13.477  0.00  0.00    +0.000 OA
ENDBRANCH   2  13
ENDBRANCH   1  11
BRANCH   1  14
ATOM     14  N   UNL     1       1.938   4.651  18.904  0.00  0.00    +0.000 NA
ATOM     15  C   UNL     1       1.980   3.339  19.556  0.00  0.00    +0.000 C 
BRANCH  14  16
ATOM     16  C   UNL     1       2.034   5.686  19.966  0.00  0.00    +0.000 C 
BRANCH  16  17
ATOM     17  C   UNL     1       2.460   7.070  19.453  0.00  0.00    +0.000 C 
BRANCH  17  18
ATOM     18  C   UNL     1       1.596   8.172  20.019  0.00  0.00    +0.000 A 
ATOM     19  C   UNL     1       1.307   9.314  19.242  0.00  0.00    +0.000 A 
ATOM     20  C   UNL     1       0.528  10.352  19.759  0.00  0.00    +0.000 A 
ATOM     21  C   UNL     1       0.052  10.218  21.046  0.00  0.00    +0.000 A 
ATOM     22  C   UNL     1       0.318   9.102  21.804  0.00  0.00    +0.000 A 
ATOM     23  C   UNL     1       1.080   8.063  21.320  0.00  0.00    +0.000 A 
ATOM     24  O   UNL     1      -0.241   9.169  23.041  0.00  0.00    +0.000 OA
ATOM     25  C   UNL     1      -0.855  10.474  22.988  0.00  0.00    +0.000 C 
ATOM     26  O   UNL     1      -0.706  11.128  21.712  0.00  0.00    +0.000 OA
ENDBRANCH  17  18
ENDBRANCH  16  17
ENDBRANCH  14  16
ENDBRANCH   1  14
TORSDOF 6
ENDMDL
MODEL 8
REMARK VINA RESULT:      -7.4      2.588      3.444
REMARK  Name = 
REMARK  8 active torsions:
REMARK  status: ('A' for Active; 'I' for Inactive)
REMARK    1  A    between atoms: C_1  and  O_2
REMARK    2  A    between atoms: O_2  and  C_3
REMARK    3  A    between atoms: C_12  and  C_13
REMARK    4  A    between atoms: C_13  and  N_14
REMARK    5  A    between atoms: N_14  and  C_15
REMARK    6  A    between atoms: N_14  and  C_16
REMARK    7  A    between atoms: C_16  and  C_17
REMARK    8  A    between atoms: C_17  and  C_18
REMARK                            x       y       z     vdW  Elec       q    Type
REMARK                         _______ _______ _______ _____ _____    ______ ____
ROOT
ATOM      1  C   UNL     1       2.488   7.236  19.643  0.00  0.00    +0.000 C 
ENDROOT
BRANCH   1  11
ATOM      2  C   UNL     1       6.151   5.570  16.457  0.00  0.00    +0.000 A 
ATOM      3  C   UNL     1       5.303   6.635  16.158  0.00  0.00    +0.000 A 
ATOM      4  C   UNL     1       4.099   6.810  16.857  0.00  0.00    +0.000 A 
ATOM      5  C   UNL     1       3.725   5.914  17.871  0.00  0.00    +0.000 A 
ATOM      6  C   UNL     1       4.608   4.863  18.201  0.00  0.00    +0.000 A 
ATOM      7  C   UNL     1       5.801   4.696  17.488  0.00  0.00    +0.000 A 
ATOM      8  C   UNL     1       4.281   3.817  19.242  0.00  0.00    +0.000 C 
ATOM      9  C   UNL     1       3.060   4.160  20.075  0.00  0.00    +0.000 C 
ATOM     10  C   UNL     1       1.978   4.700  19.148  0.00  0.00    +0.000 C 
ATOM     11  C   UNL     1       2.379   6.078  18.599  0.00  0.00    +0.000 C 
BRANCH   2  13
ATOM     12  C   UNL     1       7.120   4.834  14.423  0.00  0.00    +0.000 C 
ATOM     13  O   UNL     1       7.281   5.463  15.692  0.00  0.00    +0.000 OA
ENDBRANCH   2  13
ENDBRANCH   1  11
BRANCH   1  14
ATOM     14  N   UNL     1       1.327   8.124  19.915  0.00  0.00    +0.000 NA
ATOM     15  C   UNL     1       1.269   8.606  21.298  0.00  0.00    +0.000 C 
BRANCH  14  16
ATOM     16  C   UNL     1       1.357   9.312  19.022  0.00  0.00    +0.000 C 
BRANCH  16  17
ATOM     17  C   UNL     1       0.470  10.473  19.497  0.00  0.00    +0.000 C 
BRANCH  17  18
ATOM     18  C   UNL     1      -0.824  10.547  18.724  0.00  0.00    +0.000 A 
ATOM     19  C   UNL     1      -0.973   9.824  17.520  0.00  0.00    +0.000 A 
ATOM     20  C   UNL     1      -2.156   9.900  16.783  0.00  0.00    +0.000 A 
ATOM     21  C   UNL     1      -3.168  10.698  17.271  0.00  0.00    +0.000 A 
ATOM     22  C   UNL     1      -3.036  11.395  18.450  0.00  0.00    +0.000 A 
ATOM     23  C   UNL     1      -1.883  11.337  19.200  0.00  0.00    +0.000 A 
ATOM     24  O   UNL     1      -4.146  12.120  18.751  0.00  0.00    +0.000 OA
ATOM     25  C   UNL     1      -4.975  11.832  17.606  0.00  0.00    +0.000 C 
ATOM     26  O   UNL     1      -4.377  10.899  16.683  0.00  0.00    +0.000 OA
ENDBRANCH  17  18
ENDBRANCH  16  17
ENDBRANCH  14  16
ENDBRANCH   1  14
TORSDOF 6
ENDMDL
MODEL 9
REMARK VINA RESULT:      -7.4      1.977      3.216
REMARK  Name = 
REMARK  8 active torsions:
REMARK  status: ('A' for Active; 'I' for Inactive)
REMARK    1  A    between atoms: C_1  and  O_2
REMARK    2  A    between atoms: O_2  and  C_3
REMARK    3  A    between atoms: C_12  and  C_13
REMARK    4  A    between atoms: C_13  and  N_14
REMARK    5  A    between atoms: N_14  and  C_15
REMARK    6  A    between atoms: N_14  and  C_16
REMARK    7  A    between atoms: C_16  and  C_17
REMARK    8  A    between atoms: C_17  and  C_18
REMARK                            x       y       z     vdW  Elec       q    Type
REMARK                         _______ _______ _______ _____ _____    ______ ____
ROOT
ATOM      1  C   UNL     1       2.994   4.129  17.778  0.00  0.00    +0.000 C 
ENDROOT
BRANCH   1  11
ATOM      2  C   UNL     1       6.983   5.083  14.692  0.00  0.00    +0.000 A 
ATOM      3  C   UNL     1       6.009   4.125  14.411  0.00  0.00    +0.000 A 
ATOM      4  C   UNL     1       5.176   3.632  15.426  0.00  0.00    +0.000 A 
ATOM      5  C   UNL     1       5.308   4.093  16.746  0.00  0.00    +0.000 A 
ATOM      6  C   UNL     1       6.264   5.095  17.018  0.00  0.00    +0.000 A 
ATOM      7  C   UNL     1       7.095   5.571  15.995  0.00  0.00    +0.000 A 
ATOM      8  C   UNL     1       6.519   5.626  18.409  0.00  0.00    +0.000 C 
ATOM      9  C   UNL     1       5.477   5.186  19.420  0.00  0.00    +0.000 C 
ATOM     10  C   UNL     1       5.177   3.710  19.194  0.00  0.00    +0.000 C 
ATOM     11  C   UNL     1       4.428   3.511  17.866  0.00  0.00    +0.000 C 
BRANCH   2  13
ATOM     12  C   UNL     1       7.573   4.768  12.418  0.00  0.00    +0.000 C 
ATOM     13  O   UNL     1       7.772   5.469  13.642  0.00  0.00    +0.000 OA
ENDBRANCH   2  13
ENDBRANCH   1  11
BRANCH   1  14
ATOM     14  N   UNL     1       1.843   3.472  18.453  0.00  0.00    +0.000 NA
ATOM     15  C   UNL     1       2.193   2.212  19.113  0.00  0.00    +0.000 C 
BRANCH  14  16
ATOM     16  C   UNL     1       1.256   4.373  19.479  0.00  0.00    +0.000 C 
BRANCH  16  17
ATOM     17  C   UNL     1       2.282   5.270  20.185  0.00  0.00    +0.000 C 
BRANCH  17  18
ATOM     18  C   UNL     1       1.963   6.736  20.013  0.00  0.00    +0.000 A 
ATOM     19  C   UNL     1       1.387   7.465  21.076  0.00  0.00    +0.000 A 
ATOM     20  C   UNL     1       1.066   8.815  20.925  0.00  0.00    +0.000 A 
ATOM     21  C   UNL     1       1.334   9.408  19.709  0.00  0.00    +0.000 A 
ATOM     22  C   UNL     1       1.908   8.708  18.674  0.00  0.00    +0.000 A 
ATOM     23  C   UNL     1       2.238   7.377  18.794  0.00  0.00    +0.000 A 
ATOM     24  O   UNL     1       2.087   9.475  17.566  0.00  0.00    +0.000 OA
ATOM     25  C   UNL     1       1.522  10.726  18.010  0.00  0.00    +0.000 C 
ATOM     26  O   UNL     1       1.078  10.702  19.382  0.00  0.00    +0.000 OA
ENDBRANCH  17  18
ENDBRANCH  16  17
ENDBRANCH  14  16
ENDBRANCH   1  14
TORSDOF 6
ENDMDL
