MODEL 1
REMARK VINA RESULT:      -8.8      0.000      0.000
REMARK  Name = 
REMARK  5 active torsions:
REMARK  status: ('A' for Active; 'I' for Inactive)
REMARK    1  A    between atoms: C_1  and  C_2
REMARK    2  A    between atoms: C_5  and  C_6
REMARK    3  A    between atoms: N_8  and  C_9
REMARK    4  A    between atoms: C_9  and  C_10
REMARK    5  A    between atoms: C_23  and  C_24
REMARK                            x       y       z     vdW  Elec       q    Type
REMARK                         _______ _______ _______ _____ _____    ______ ____
ROOT
ATOM      1  C   UNL     1      -0.509  12.498  21.713  0.00  0.00    +0.000 C 
ATOM      2  O   UNL     1       0.239  13.118  22.485  0.00  0.00    +0.000 OA
ATOM      3  N   UNL     1      -0.833  12.972  20.416  0.00  0.00    +0.000 N 
ATOM      4  C   UNL     1       0.211  13.826  19.886  0.00  0.00    +0.000 A 
ATOM      5  C   UNL     1       0.299  15.168  20.282  0.00  0.00    +0.000 A 
ATOM      6  C   UNL     1       1.173  16.033  19.617  0.00  0.00    +0.000 A 
ATOM      7  C   UNL     1       2.069  15.534  18.672  0.00  0.00    +0.000 A 
ATOM      8  C   UNL     1       2.112  14.166  18.411  0.00  0.00    +0.000 A 
ATOM      9  C   UNL     1       1.179  13.315  19.004  0.00  0.00    +0.000 A 
ATOM     10  S   UNL     1       1.274  11.556  18.708  0.00  0.00    +0.000 S 
ATOM     11  C   UNL     1      -0.484  11.272  18.652  0.00  0.00    +0.000 A 
ATOM     12  C   UNL     1      -0.966  10.354  17.717  0.00  0.00    +0.000 A 
ATOM     13  C   UNL     1      -2.320  10.303  17.422  0.00  0.00    +0.000 A 
ATOM     14  C   UNL     1      -3.219  11.182  18.045  0.00  0.00    +0.000 A 
ATOM     15  C   UNL     1      -2.740  12.036  19.081  0.00  0.00    +0.000 A 
ATOM     16  C   UNL     1      -1.363  12.060  19.415  0.00  0.00    +0.000 A 
ENDROOT
BRANCH  14  17
ATOM     17  C   UNL     1      -4.637  11.224  17.499  0.00  0.00    +0.000 C 
ATOM     18  F   UNL     1      -5.187  12.477  17.541  0.00  0.00    +0.000 F 
ATOM     19  F   UNL     1      -4.736  10.828  16.203  0.00  0.00    +0.000 F 
ATOM     20  F   UNL     1      -5.496  10.438  18.206  0.00  0.00    +0.000 F 
ENDBRANCH  14  17
BRANCH   1  21
ATOM     21  C   UNL     1      -1.080  11.183  22.190  0.00  0.00    +0.000 C 
BRANCH  21  24
ATOM     22  C   UNL     1       1.052   8.463  21.233  0.00  0.00    +0.000 A 
ATOM     23  C   UNL     1      -0.092   9.189  20.987  0.00  0.00    +0.000 A 
ATOM     24  N   UNL     1      -0.140  10.100  22.002  0.00  0.00    +0.000 N 
ATOM     25  N   UNL     1       0.926   9.970  22.815  0.00  0.00    +0.000 NA
ATOM     26  N   UNL     1       1.644   8.943  22.374  0.00  0.00    +0.000 NA
BRANCH  22  31
ATOM     27  C   UNL     1       3.057   4.212  17.863  0.00  0.00    +0.000 C 
ATOM     28  C   UNL     1       2.581   5.317  18.760  0.00  0.00    +0.000 A 
ATOM     29  C   UNL     1       1.986   5.028  19.998  0.00  0.00    +0.000 A 
ATOM     30  C   UNL     1       1.496   6.059  20.803  0.00  0.00    +0.000 A 
ATOM     31  C   UNL     1       1.601   7.397  20.411  0.00  0.00    +0.000 A 
ATOM     32  C   UNL     1       2.210   7.686  19.181  0.00  0.00    +0.000 A 
ATOM     33  C   UNL     1       2.699   6.654  18.362  0.00  0.00    +0.000 A 
ENDBRANCH  22  31
ENDBRANCH  21  24
ENDBRANCH   1  21
TORSDOF 4
ENDMDL
MODEL 2
REMARK VINA RESULT:      -8.7      5.290      9.420
REMARK  Name = 
REMARK  5 active torsions:
REMARK  status: ('A' for Active; 'I' for Inactive)
REMARK    1  A    between atoms: C_1  and  C_2
REMARK    2  A    between atoms: C_5  and  C_6
REMARK    3  A    between atoms: N_8  and  C_9
REMARK    4  A    between atoms: C_9  and  C_10
REMARK    5  A    between atoms: C_23  and  C_24
REMARK                            x       y       z     vdW  Elec       q    Type
REMARK                         _______ _______ _______ _____ _____    ______ ____
ROOT
ATOM      1  C   UNL     1       2.393   6.862  19.592  0.00  0.00    +0.000 C 
ATOM      2  O   UNL     1       1.532   7.074  20.461  0.00  0.00    +0.000 OA
ATOM      3  N   UNL     1       3.182   5.683  19.568  0.00  0.00    +0.000 N 
ATOM      4  C   UNL     1       2.497   4.572  20.199  0.00  0.00    +0.000 A 
ATOM      5  C   UNL     1       2.479   4.451  21.596  0.00  0.00    +0.000 A 
ATOM      6  C   UNL     1       1.998   3.279  22.186  0.00  0.00    +0.000 A 
ATOM      7  C   UNL     1       1.393   2.297  21.402  0.00  0.00    +0.000 A 
ATOM      8  C   UNL     1       1.241   2.499  20.032  0.00  0.00    +0.000 A 
ATOM      9  C   UNL     1       1.802   3.624  19.428  0.00  0.00    +0.000 A 
ATOM     10  S   UNL     1       1.558   3.905  17.681  0.00  0.00    +0.000 S 
ATOM     11  C   UNL     1       3.180   4.566  17.359  0.00  0.00    +0.000 A 
ATOM     12  C   UNL     1       3.801   4.214  16.161  0.00  0.00    +0.000 A 
ATOM     13  C   UNL     1       5.157   4.448  15.980  0.00  0.00    +0.000 A 
ATOM     14  C   UNL     1       5.923   5.024  17.005  0.00  0.00    +0.000 A 
ATOM     15  C   UNL     1       5.263   5.487  18.181  0.00  0.00    +0.000 A 
ATOM     16  C   UNL     1       3.869   5.288  18.350  0.00  0.00    +0.000 A 
ENDROOT
BRANCH  14  17
ATOM     17  C   UNL     1       7.432   5.030  16.822  0.00  0.00    +0.000 C 
ATOM     18  F   UNL     1       8.078   4.207  17.703  0.00  0.00    +0.000 F 
ATOM     19  F   UNL     1       7.834   4.629  15.588  0.00  0.00    +0.000 F 
ATOM     20  F   UNL     1       7.981   6.261  17.021  0.00  0.00    +0.000 F 
ENDBRANCH  14  17
BRANCH   1  21
ATOM     21  C   UNL     1       2.586   7.910  18.521  0.00  0.00    +0.000 C 
BRANCH  21  24
ATOM     22  C   UNL     1      -0.239  10.117  18.431  0.00  0.00    +0.000 A 
ATOM     23  C   UNL     1       0.399   9.019  17.897  0.00  0.00    +0.000 A 
ATOM     24  N   UNL     1       1.568   8.935  18.596  0.00  0.00    +0.000 N 
ATOM     25  N   UNL     1       1.642   9.904  19.529  0.00  0.00    +0.000 NA
ATOM     26  N   UNL     1       0.555  10.658  19.410  0.00  0.00    +0.000 NA
BRANCH  22  31
ATOM     27  C   UNL     1      -5.570  11.943  17.129  0.00  0.00    +0.000 C 
ATOM     28  C   UNL     1      -4.168  11.508  17.442  0.00  0.00    +0.000 A 
ATOM     29  C   UNL     1      -3.480  10.639  16.580  0.00  0.00    +0.000 A 
ATOM     30  C   UNL     1      -2.196  10.195  16.905  0.00  0.00    +0.000 A 
ATOM     31  C   UNL     1      -1.559  10.614  18.076  0.00  0.00    +0.000 A 
ATOM     32  C   UNL     1      -2.241  11.495  18.928  0.00  0.00    +0.000 A 
ATOM     33  C   UNL     1      -3.536  11.941  18.612  0.00  0.00    +0.000 A 
ENDBRANCH  22  31
ENDBRANCH  21  24
ENDBRANCH   1  21
TORSDOF 4
ENDMDL
MODEL 3
REMARK VINA RESULT:      -8.6      3.253      5.193
REMARK  Name = 
REMARK  5 active torsions:
REMARK  status: ('A' for Active; 'I' for Inactive)
REMARK    1  A    between atoms: C_1  and  C_2
REMARK    2  A    between atoms: C_5  and  C_6
REMARK    3  A    between atoms: N_8  and  C_9
REMARK    4  A    between atoms: C_9  and  C_10
REMARK    5  A    between atoms: C_23  and  C_24
REMARK                            x       y       z     vdW  Elec       q    Type
REMARK                         _______ _______ _______ _____ _____    ______ ____
ROOT
ATOM      1  C   UNL     1      -0.604  10.719  18.517  0.00  0.00    +0.000 C 
ATOM      2  O   UNL     1      -1.109   9.636  18.183  0.00  0.00    +0.000 OA
ATOM      3  N   UNL     1      -1.230  11.966  18.263  0.00  0.00    +0.000 N 
ATOM      4  C   UNL     1      -2.671  11.830  18.181  0.00  0.00    +0.000 A 
ATOM      5  C   UNL     1      -3.273  11.363  17.004  0.00  0.00    +0.000 A 
ATOM      6  C   UNL     1      -4.662  11.429  16.861  0.00  0.00    +0.000 A 
ATOM      7  C   UNL     1      -5.461  11.808  17.940  0.00  0.00    +0.000 A 
ATOM      8  C   UNL     1      -4.874  12.094  19.171  0.00  0.00    +0.000 A 
ATOM      9  C   UNL     1      -3.485  12.119  19.290  0.00  0.00    +0.000 A 
ATOM     10  S   UNL     1      -2.740  12.432  20.883  0.00  0.00    +0.000 S 
ATOM     11  C   UNL     1      -1.374  13.401  20.274  0.00  0.00    +0.000 A 
ATOM     12  C   UNL     1      -0.973  14.505  21.027  0.00  0.00    +0.000 A 
ATOM     13  C   UNL     1      -0.127  15.457  20.475  0.00  0.00    +0.000 A 
ATOM     14  C   UNL     1       0.320  15.331  19.151  0.00  0.00    +0.000 A 
ATOM     15  C   UNL     1       0.001  14.146  18.426  0.00  0.00    +0.000 A 
ATOM     16  C   UNL     1      -0.828  13.151  19.003  0.00  0.00    +0.000 A 
ENDROOT
BRANCH  14  17
ATOM     17  C   UNL     1       1.044  16.525  18.549  0.00  0.00    +0.000 C 
ATOM     18  F   UNL     1       1.444  17.435  19.489  0.00  0.00    +0.000 F 
ATOM     19  F   UNL     1       2.168  16.192  17.863  0.00  0.00    +0.000 F 
ATOM     20  F   UNL     1       0.263  17.231  17.684  0.00  0.00    +0.000 F 
ENDBRANCH  14  17
BRANCH   1  21
ATOM     21  C   UNL     1       0.728  10.685  19.231  0.00  0.00    +0.000 C 
BRANCH  21  24
ATOM     22  C   UNL     1       2.481   7.622  18.598  0.00  0.00    +0.000 A 
ATOM     23  C   UNL     1       2.030   8.828  18.111  0.00  0.00    +0.000 A 
ATOM     24  N   UNL     1       1.337   9.376  19.151  0.00  0.00    +0.000 N 
ATOM     25  N   UNL     1       1.378   8.573  20.232  0.00  0.00    +0.000 NA
ATOM     26  N   UNL     1       2.045   7.476  19.891  0.00  0.00    +0.000 NA
BRANCH  22  31
ATOM     27  C   UNL     1       5.728   3.834  15.673  0.00  0.00    +0.000 C 
ATOM     28  C   UNL     1       4.915   4.812  16.471  0.00  0.00    +0.000 A 
ATOM     29  C   UNL     1       3.839   4.373  17.257  0.00  0.00    +0.000 A 
ATOM     30  C   UNL     1       3.053   5.293  17.955  0.00  0.00    +0.000 A 
ATOM     31  C   UNL     1       3.326   6.664  17.905  0.00  0.00    +0.000 A 
ATOM     32  C   UNL     1       4.413   7.099  17.131  0.00  0.00    +0.000 A 
ATOM     33  C   UNL     1       5.203   6.180  16.421  0.00  0.00    +0.000 A 
ENDBRANCH  22  31
ENDBRANCH  21  24
ENDBRANCH   1  21
TORSDOF 4
ENDMDL
MODEL 4
REMARK VINA RESULT:      -8.6      0.577      1.226
REMARK  Name = 
REMARK  5 active torsions:
REMARK  status: ('A' for Active; 'I' for Inactive)
REMARK    1  A    between atoms: C_1  and  C_2
REMARK    2  A    between atoms: C_5  and  C_6
REMARK    3  A    between atoms: N_8  and  C_9
REMARK    4  A    between atoms: C_9  and  C_10
REMARK    5  A    between atoms: C_23  and  C_24
REMARK                            x       y       z     vdW  Elec       q    Type
REMARK                         _______ _______ _______ _____ _____    ______ ____
ROOT
ATOM      1  C   UNL     1      -0.921  12.362  22.267  0.00  0.00    +0.000 C 
ATOM      2  O   UNL     1      -0.339  12.960  23.184  0.00  0.00    +0.000 OA
ATOM      3  N   UNL     1      -1.178  12.957  21.005  0.00  0.00    +0.000 N 
ATOM      4  C   UNL     1      -0.207  13.990  20.698  0.00  0.00    +0.000 A 
ATOM      5  C   UNL     1      -0.335  15.270  21.255  0.00  0.00    +0.000 A 
ATOM      6  C   UNL     1       0.479  16.311  20.798  0.00  0.00    +0.000 A 
ATOM      7  C   UNL     1       1.520  16.048  19.907  0.00  0.00    +0.000 A 
ATOM      8  C   UNL     1       1.766  14.739  19.496  0.00  0.00    +0.000 A 
ATOM      9  C   UNL     1       0.900  13.715  19.877  0.00  0.00    +0.000 A 
ATOM     10  S   UNL     1       1.252  12.032  19.392  0.00  0.00    +0.000 S 
ATOM     11  C   UNL     1      -0.440  11.552  19.106  0.00  0.00    +0.000 A 
ATOM     12  C   UNL     1      -0.704  10.714  18.023  0.00  0.00    +0.000 A 
ATOM     13  C   UNL     1      -2.006  10.541  17.574  0.00  0.00    +0.000 A 
ATOM     14  C   UNL     1      -3.068  11.220  18.190  0.00  0.00    +0.000 A 
ATOM     15  C   UNL     1      -2.808  11.984  19.365  0.00  0.00    +0.000 A 
ATOM     16  C   UNL     1      -1.484  12.127  19.852  0.00  0.00    +0.000 A 
ENDROOT
BRANCH  14  17
ATOM     17  C   UNL     1      -4.420  11.165  17.497  0.00  0.00    +0.000 C 
ATOM     18  F   UNL     1      -5.362  10.486  18.222  0.00  0.00    +0.000 F 
ATOM     19  F   UNL     1      -4.960  12.388  17.255  0.00  0.00    +0.000 F 
ATOM     20  F   UNL     1      -4.369  10.525  16.296  0.00  0.00    +0.000 F 
ENDBRANCH  14  17
BRANCH   1  21
ATOM     21  C   UNL     1      -1.359  10.937  22.521  0.00  0.00    +0.000 C 
BRANCH  21  24
ATOM     22  C   UNL     1       0.983   8.499  21.327  0.00  0.00    +0.000 A 
ATOM     23  C   UNL     1      -0.292   9.015  21.270  0.00  0.00    +0.000 A 
ATOM     24  N   UNL     1      -0.302   9.998  22.216  0.00  0.00    +0.000 N 
ATOM     25  N   UNL     1       0.903  10.109  22.807  0.00  0.00    +0.000 NA
ATOM     26  N   UNL     1       1.689   9.167  22.295  0.00  0.00    +0.000 NA
BRANCH  22  31
ATOM     27  C   UNL     1       3.369   4.361  18.065  0.00  0.00    +0.000 C 
ATOM     28  C   UNL     1       2.709   5.431  18.885  0.00  0.00    +0.000 A 
ATOM     29  C   UNL     1       2.784   6.778  18.499  0.00  0.00    +0.000 A 
ATOM     30  C   UNL     1       2.213   7.773  19.296  0.00  0.00    +0.000 A 
ATOM     31  C   UNL     1       1.540   7.457  20.479  0.00  0.00    +0.000 A 
ATOM     32  C   UNL     1       1.451   6.108  20.856  0.00  0.00    +0.000 A 
ATOM     33  C   UNL     1       2.029   5.102  20.063  0.00  0.00    +0.000 A 
ENDBRANCH  22  31
ENDBRANCH  21  24
ENDBRANCH   1  21
TORSDOF 4
ENDMDL
MODEL 5
REMARK VINA RESULT:      -8.4      3.279      5.264
REMARK  Name = 
REMARK  5 active torsions:
REMARK  status: ('A' for Active; 'I' for Inactive)
REMARK    1  A    between atoms: C_1  and  C_2
REMARK    2  A    between atoms: C_5  and  C_6
REMARK    3  A    between atoms: N_8  and  C_9
REMARK    4  A    between atoms: C_9  and  C_10
REMARK    5  A    between atoms: C_23  and  C_24
REMARK                            x       y       z     vdW  Elec       q    Type
REMARK                         _______ _______ _______ _____ _____    ______ ____
ROOT
ATOM      1  C   UNL     1      -0.458  10.365  19.189  0.00  0.00    +0.000 C 
ATOM      2  O   UNL     1      -1.142   9.351  18.982  0.00  0.00    +0.000 OA
ATOM      3  N   UNL     1      -0.869  11.661  18.785  0.00  0.00    +0.000 N 
ATOM      4  C   UNL     1      -2.314  11.761  18.711  0.00  0.00    +0.000 A 
ATOM      5  C   UNL     1      -3.003  11.267  17.595  0.00  0.00    +0.000 A 
ATOM      6  C   UNL     1      -4.363  11.548  17.437  0.00  0.00    +0.000 A 
ATOM      7  C   UNL     1      -5.071  12.181  18.458  0.00  0.00    +0.000 A 
ATOM      8  C   UNL     1      -4.427  12.506  19.650  0.00  0.00    +0.000 A 
ATOM      9  C   UNL     1      -3.052  12.311  19.774  0.00  0.00    +0.000 A 
ATOM     10  S   UNL     1      -2.242  12.680  21.323  0.00  0.00    +0.000 S 
ATOM     11  C   UNL     1      -0.742  13.327  20.611  0.00  0.00    +0.000 A 
ATOM     12  C   UNL     1      -0.150  14.428  21.230  0.00  0.00    +0.000 A 
ATOM     13  C   UNL     1       0.835  15.152  20.574  0.00  0.00    +0.000 A 
ATOM     14  C   UNL     1       1.235  14.798  19.277  0.00  0.00    +0.000 A 
ATOM     15  C   UNL     1       0.712  13.607  18.696  0.00  0.00    +0.000 A 
ATOM     16  C   UNL     1      -0.264  12.840  19.382  0.00  0.00    +0.000 A 
ENDROOT
BRANCH  14  17
ATOM     17  C   UNL     1       2.140  15.773  18.542  0.00  0.00    +0.000 C 
ATOM     18  F   UNL     1       1.452  16.805  17.962  0.00  0.00    +0.000 F 
ATOM     19  F   UNL     1       3.073  16.360  19.337  0.00  0.00    +0.000 F 
ATOM     20  F   UNL     1       2.824  15.187  17.519  0.00  0.00    +0.000 F 
ENDBRANCH  14  17
BRANCH   1  21
ATOM     21  C   UNL     1       0.859  10.192  19.909  0.00  0.00    +0.000 C 
BRANCH  21  24
ATOM     22  C   UNL     1       2.565   7.257  18.755  0.00  0.00    +0.000 A 
ATOM     23  C   UNL     1       2.090   8.517  18.468  0.00  0.00    +0.000 A 
ATOM     24  N   UNL     1       1.459   8.910  19.612  0.00  0.00    +0.000 N 
ATOM     25  N   UNL     1       1.559   7.964  20.566  0.00  0.00    +0.000 NA
ATOM     26  N   UNL     1       2.203   6.929  20.037  0.00  0.00    +0.000 NA
BRANCH  22  31
ATOM     27  C   UNL     1       5.883   3.856  15.457  0.00  0.00    +0.000 C 
ATOM     28  C   UNL     1       4.991   4.743  16.276  0.00  0.00    +0.000 A 
ATOM     29  C   UNL     1       5.168   6.136  16.271  0.00  0.00    +0.000 A 
ATOM     30  C   UNL     1       4.369   6.951  17.076  0.00  0.00    +0.000 A 
ATOM     31  C   UNL     1       3.367   6.409  17.888  0.00  0.00    +0.000 A 
ATOM     32  C   UNL     1       3.180   5.019  17.878  0.00  0.00    +0.000 A 
ATOM     33  C   UNL     1       3.985   4.192  17.076  0.00  0.00    +0.000 A 
ENDBRANCH  22  31
ENDBRANCH  21  24
ENDBRANCH   1  21
TORSDOF 4
ENDMDL
MODEL 6
REMARK VINA RESULT:      -8.4      1.118      1.733
REMARK  Name = 
REMARK  5 active torsions:
REMARK  status: ('A' for Active; 'I' for Inactive)
REMARK    1  A    between atoms: C_1  and  C_2
REMARK    2  A    between atoms: C_5  and  C_6
REMARK    3  A    between atoms: N_8  and  C_9
REMARK    4  A    between atoms: C_9  and  C_10
REMARK    5  A    between atoms: C_23  and  C_24
REMARK                            x       y       z     vdW  Elec       q    Type
REMARK                         _______ _______ _______ _____ _____    ______ ____
ROOT
ATOM      1  C   UNL     1      -1.134  12.690  22.265  0.00  0.00    +0.000 C 
ATOM      2  O   UNL     1      -0.307  13.201  23.035  0.00  0.00    +0.000 OA
ATOM      3  N   UNL     1      -1.684  13.389  21.159  0.00  0.00    +0.000 N 
ATOM      4  C   UNL     1      -0.782  14.418  20.680  0.00  0.00    +0.000 A 
ATOM      5  C   UNL     1      -0.703  15.654  21.337  0.00  0.00    +0.000 A 
ATOM      6  C   UNL     1       0.010  16.706  20.755  0.00  0.00    +0.000 A 
ATOM      7  C   UNL     1       0.770  16.487  19.606  0.00  0.00    +0.000 A 
ATOM      8  C   UNL     1       0.842  15.209  19.055  0.00  0.00    +0.000 A 
ATOM      9  C   UNL     1       0.060  14.181  19.579  0.00  0.00    +0.000 A 
ATOM     10  S   UNL     1       0.197  12.532  18.904  0.00  0.00    +0.000 S 
ATOM     11  C   UNL     1      -1.530  12.119  19.041  0.00  0.00    +0.000 A 
ATOM     12  C   UNL     1      -2.105  11.375  18.011  0.00  0.00    +0.000 A 
ATOM     13  C   UNL     1      -3.485  11.271  17.909  0.00  0.00    +0.000 A 
ATOM     14  C   UNL     1      -4.318  11.926  18.828  0.00  0.00    +0.000 A 
ATOM     15  C   UNL     1      -3.727  12.589  19.943  0.00  0.00    +0.000 A 
ATOM     16  C   UNL     1      -2.317  12.659  20.073  0.00  0.00    +0.000 A 
ENDROOT
BRANCH  14  17
ATOM     17  C   UNL     1      -5.805  11.959  18.513  0.00  0.00    +0.000 C 
ATOM     18  F   UNL     1      -6.351  10.710  18.389  0.00  0.00    +0.000 F 
ATOM     19  F   UNL     1      -6.550  12.589  19.459  0.00  0.00    +0.000 F 
ATOM     20  F   UNL     1      -6.079  12.583  17.333  0.00  0.00    +0.000 F 
ENDBRANCH  14  17
BRANCH   1  21
ATOM     21  C   UNL     1      -1.554  11.262  22.526  0.00  0.00    +0.000 C 
BRANCH  21  24
ATOM     22  C   UNL     1       0.890   8.992  21.211  0.00  0.00    +0.000 A 
ATOM     23  C   UNL     1      -0.318   9.629  21.041  0.00  0.00    +0.000 A 
ATOM     24  N   UNL     1      -0.496  10.332  22.197  0.00  0.00    +0.000 N 
ATOM     25  N   UNL     1       0.552  10.168  23.026  0.00  0.00    +0.000 NA
ATOM     26  N   UNL     1       1.391   9.315  22.447  0.00  0.00    +0.000 NA
BRANCH  22  31
ATOM     27  C   UNL     1       3.798   5.712  17.438  0.00  0.00    +0.000 C 
ATOM     28  C   UNL     1       3.001   6.546  18.398  0.00  0.00    +0.000 A 
ATOM     29  C   UNL     1       2.613   7.853  18.060  0.00  0.00    +0.000 A 
ATOM     30  C   UNL     1       1.919   8.642  18.979  0.00  0.00    +0.000 A 
ATOM     31  C   UNL     1       1.577   8.152  20.243  0.00  0.00    +0.000 A 
ATOM     32  C   UNL     1       1.950   6.841  20.573  0.00  0.00    +0.000 A 
ATOM     33  C   UNL     1       2.655   6.043  19.657  0.00  0.00    +0.000 A 
ENDBRANCH  22  31
ENDBRANCH  21  24
ENDBRANCH   1  21
TORSDOF 4
ENDMDL
MODEL 7
REMARK VINA RESULT:      -8.3      5.204      9.457
REMARK  Name = 
REMARK  5 active torsions:
REMARK  status: ('A' for Active; 'I' for Inactive)
REMARK    1  A    between atoms: C_1  and  C_2
REMARK    2  A    between atoms: C_5  and  C_6
REMARK    3  A    between atoms: N_8  and  C_9
REMARK    4  A    between atoms: C_9  and  C_10
REMARK    5  A    between atoms: C_23  and  C_24
REMARK                            x       y       z     vdW  Elec       q    Type
REMARK                         _______ _______ _______ _____ _____    ______ ____
ROOT
ATOM      1  C   UNL     1       2.147   6.795  19.924  0.00  0.00    +0.000 C 
ATOM      2  O   UNL     1       1.199   6.849  20.723  0.00  0.00    +0.000 OA
ATOM      3  N   UNL     1       3.033   5.690  19.862  0.00  0.00    +0.000 N 
ATOM      4  C   UNL     1       2.393   4.470  20.315  0.00  0.00    +0.000 A 
ATOM      5  C   UNL     1       2.264   4.204  21.685  0.00  0.00    +0.000 A 
ATOM      6  C   UNL     1       1.836   2.943  22.112  0.00  0.00    +0.000 A 
ATOM      7  C   UNL     1       1.388   2.004  21.182  0.00  0.00    +0.000 A 
ATOM      8  C   UNL     1       1.340   2.335  19.830  0.00  0.00    +0.000 A 
ATOM      9  C   UNL     1       1.852   3.556  19.394  0.00  0.00    +0.000 A 
ATOM     10  S   UNL     1       1.739   3.997  17.666  0.00  0.00    +0.000 S 
ATOM     11  C   UNL     1       3.320   4.811  17.566  0.00  0.00    +0.000 A 
ATOM     12  C   UNL     1       4.071   4.633  16.404  0.00  0.00    +0.000 A 
ATOM     13  C   UNL     1       5.413   4.988  16.377  0.00  0.00    +0.000 A 
ATOM     14  C   UNL     1       6.034   5.512  17.521  0.00  0.00    +0.000 A 
ATOM     15  C   UNL     1       5.237   5.799  18.668  0.00  0.00    +0.000 A 
ATOM     16  C   UNL     1       3.856   5.477  18.682  0.00  0.00    +0.000 A 
ENDROOT
BRANCH  14  17
ATOM     17  C   UNL     1       7.547   5.653  17.484  0.00  0.00    +0.000 C 
ATOM     18  F   UNL     1       8.086   5.924  18.713  0.00  0.00    +0.000 F 
ATOM     19  F   UNL     1       8.188   4.539  17.043  0.00  0.00    +0.000 F 
ATOM     20  F   UNL     1       7.961   6.675  16.684  0.00  0.00    +0.000 F 
ENDBRANCH  14  17
BRANCH   1  21
ATOM     21  C   UNL     1       2.342   7.961  18.982  0.00  0.00    +0.000 C 
BRANCH  21  24
ATOM     22  C   UNL     1      -0.047  10.460  19.934  0.00  0.00    +0.000 A 
ATOM     23  C   UNL     1       0.818   9.464  20.330  0.00  0.00    +0.000 A 
ATOM     24  N   UNL     1       1.314   8.963  19.162  0.00  0.00    +0.000 N 
ATOM     25  N   UNL     1       0.812   9.625  18.102  0.00  0.00    +0.000 NA
ATOM     26  N   UNL     1      -0.055  10.520  18.564  0.00  0.00    +0.000 NA
BRANCH  22  31
ATOM     27  C   UNL     1      -3.192  13.869  23.390  0.00  0.00    +0.000 C 
ATOM     28  C   UNL     1      -2.341  13.019  22.492  0.00  0.00    +0.000 A 
ATOM     29  C   UNL     1      -2.458  13.112  21.096  0.00  0.00    +0.000 A 
ATOM     30  C   UNL     1      -1.702  12.280  20.267  0.00  0.00    +0.000 A 
ATOM     31  C   UNL     1      -0.801  11.353  20.799  0.00  0.00    +0.000 A 
ATOM     32  C   UNL     1      -0.672  11.272  22.194  0.00  0.00    +0.000 A 
ATOM     33  C   UNL     1      -1.435  12.101  23.034  0.00  0.00    +0.000 A 
ENDBRANCH  22  31
ENDBRANCH  21  24
ENDBRANCH   1  21
TORSDOF 4
ENDMDL
MODEL 8
REMARK VINA RESULT:      -8.3      3.286      5.216
REMARK  Name = 
REMARK  5 active torsions:
REMARK  status: ('A' for Active; 'I' for Inactive)
REMARK    1  A    between atoms: C_1  and  C_2
REMARK    2  A    between atoms: C_5  and  C_6
REMARK    3  A    between atoms: N_8  and  C_9
REMARK    4  A    between atoms: C_9  and  C_10
REMARK    5  A    between atoms: C_23  and  C_24
REMARK                            x       y       z     vdW  Elec       q    Type
REMARK                         _______ _______ _______ _____ _____    ______ ____
ROOT
ATOM      1  C   UNL     1      -0.710  10.753  18.830  0.00  0.00    +0.000 C 
ATOM      2  O   UNL     1      -1.300   9.695  18.564  0.00  0.00    +0.000 OA
ATOM      3  N   UNL     1      -1.277  12.029  18.586  0.00  0.00    +0.000 N 
ATOM      4  C   UNL     1      -2.727  11.980  18.610  0.00  0.00    +0.000 A 
ATOM      5  C   UNL     1      -3.439  11.522  17.493  0.00  0.00    +0.000 A 
ATOM      6  C   UNL     1      -4.829  11.669  17.448  0.00  0.00    +0.000 A 
ATOM      7  C   UNL     1      -5.523  12.123  18.569  0.00  0.00    +0.000 A 
ATOM      8  C   UNL     1      -4.832  12.402  19.747  0.00  0.00    +0.000 A 
ATOM      9  C   UNL     1      -3.439  12.344  19.766  0.00  0.00    +0.000 A 
ATOM     10  S   UNL     1      -2.562  12.650  21.292  0.00  0.00    +0.000 S 
ATOM     11  C   UNL     1      -1.190  13.519  20.560  0.00  0.00    +0.000 A 
ATOM     12  C   UNL     1      -0.670  14.614  21.250  0.00  0.00    +0.000 A 
ATOM     13  C   UNL     1       0.188  15.499  20.613  0.00  0.00    +0.000 A 
ATOM     14  C   UNL     1       0.529  15.314  19.265  0.00  0.00    +0.000 A 
ATOM     15  C   UNL     1       0.088  14.134  18.598  0.00  0.00    +0.000 A 
ATOM     16  C   UNL     1      -0.753  13.205  19.261  0.00  0.00    +0.000 A 
ENDROOT
BRANCH  14  17
ATOM     17  C   UNL     1       1.276  16.446  18.578  0.00  0.00    +0.000 C 
ATOM     18  F   UNL     1       2.369  16.014  17.876  0.00  0.00    +0.000 F 
ATOM     19  F   UNL     1       0.521  17.137  17.684  0.00  0.00    +0.000 F 
ATOM     20  F   UNL     1       1.763  17.365  19.458  0.00  0.00    +0.000 F 
ENDBRANCH  14  17
BRANCH   1  21
ATOM     21  C   UNL     1       0.667  10.655  19.448  0.00  0.00    +0.000 C 
BRANCH  21  24
ATOM     22  C   UNL     1       2.290   7.631  18.412  0.00  0.00    +0.000 A 
ATOM     23  C   UNL     1       1.586   8.300  19.389  0.00  0.00    +0.000 A 
ATOM     24  N   UNL     1       1.421   9.557  18.885  0.00  0.00    +0.000 N 
ATOM     25  N   UNL     1       1.963   9.659  17.656  0.00  0.00    +0.000 NA
ATOM     26  N   UNL     1       2.533   8.493  17.373  0.00  0.00    +0.000 NA
BRANCH  22  31
ATOM     27  C   UNL     1       3.742   2.037  18.638  0.00  0.00    +0.000 C 
ATOM     28  C   UNL     1       3.388   3.492  18.536  0.00  0.00    +0.000 A 
ATOM     29  C   UNL     1       4.253   4.476  19.041  0.00  0.00    +0.000 A 
ATOM     30  C   UNL     1       3.892   5.824  18.991  0.00  0.00    +0.000 A 
ATOM     31  C   UNL     1       2.680   6.230  18.424  0.00  0.00    +0.000 A 
ATOM     32  C   UNL     1       1.824   5.247  17.905  0.00  0.00    +0.000 A 
ATOM     33  C   UNL     1       2.177   3.888  17.958  0.00  0.00    +0.000 A 
ENDBRANCH  22  31
ENDBRANCH  21  24
ENDBRANCH   1  21
TORSDOF 4
ENDMDL
MODEL 9
REMARK VINA RESULT:      -8.3      1.471      1.906
REMARK  Name = 
REMARK  5 active torsions:
REMARK  status: ('A' for Active; 'I' for Inactive)
REMARK    1  A    between atoms: C_1  and  C_2
REMARK    2  A    between atoms: C_5  and  C_6
REMARK    3  A    between atoms: N_8  and  C_9
REMARK    4  A    between atoms: C_9  and  C_10
REMARK    5  A    between atoms: C_23  and  C_24
REMARK                            x       y       z     vdW  Elec       q    Type
REMARK                         _______ _______ _______ _____ _____    ______ ____
ROOT
ATOM      1  C   UNL     1      -1.410  12.891  22.165  0.00  0.00    +0.000 C 
ATOM      2  O   UNL     1      -0.465  13.412  22.777  0.00  0.00    +0.000 OA
ATOM      3  N   UNL     1      -2.097  13.549  21.114  0.00  0.00    +0.000 N 
ATOM      4  C   UNL     1      -1.249  14.520  20.450  0.00  0.00    +0.000 A 
ATOM      5  C   UNL     1      -1.041  15.785  21.017  0.00  0.00    +0.000 A 
ATOM      6  C   UNL     1      -0.394  16.780  20.278  0.00  0.00    +0.000 A 
ATOM      7  C   UNL     1       0.183  16.475  19.045  0.00  0.00    +0.000 A 
ATOM      8  C   UNL     1       0.139  15.168  18.564  0.00  0.00    +0.000 A 
ATOM      9  C   UNL     1      -0.585  14.196  19.254  0.00  0.00    +0.000 A 
ATOM     10  S   UNL     1      -0.592  12.511  18.661  0.00  0.00    +0.000 S 
ATOM     11  C   UNL     1      -2.291  12.166  19.071  0.00  0.00    +0.000 A 
ATOM     12  C   UNL     1      -3.031  11.388  18.180  0.00  0.00    +0.000 A 
ATOM     13  C   UNL     1      -4.413  11.327  18.286  0.00  0.00    +0.000 A 
ATOM     14  C   UNL     1      -5.084  12.058  19.278  0.00  0.00    +0.000 A 
ATOM     15  C   UNL     1      -4.318  12.758  20.255  0.00  0.00    +0.000 A 
ATOM     16  C   UNL     1      -2.903  12.786  20.175  0.00  0.00    +0.000 A 
ENDROOT
BRANCH  14  17
ATOM     17  C   UNL     1      -6.600  12.127  19.181  0.00  0.00    +0.000 C 
ATOM     18  F   UNL     1      -7.227  11.638  20.295  0.00  0.00    +0.000 F 
ATOM     19  F   UNL     1      -7.080  13.387  19.018  0.00  0.00    +0.000 F 
ATOM     20  F   UNL     1      -7.095  11.391  18.147  0.00  0.00    +0.000 F 
ENDBRANCH  14  17
BRANCH   1  21
ATOM     21  C   UNL     1      -1.825  11.494  22.566  0.00  0.00    +0.000 C 
BRANCH  21  24
ATOM     22  C   UNL     1       0.633   9.169  21.377  0.00  0.00    +0.000 A 
ATOM     23  C   UNL     1      -0.535   9.856  21.133  0.00  0.00    +0.000 A 
ATOM     24  N   UNL     1      -0.778  10.534  22.292  0.00  0.00    +0.000 N 
ATOM     25  N   UNL     1       0.195  10.306  23.195  0.00  0.00    +0.000 NA
ATOM     26  N   UNL     1       1.046   9.439  22.657  0.00  0.00    +0.000 NA
BRANCH  22  31
ATOM     27  C   UNL     1       3.357   5.776  17.567  0.00  0.00    +0.000 C 
ATOM     28  C   UNL     1       2.694   6.671  18.573  0.00  0.00    +0.000 A 
ATOM     29  C   UNL     1       2.374   6.194  19.854  0.00  0.00    +0.000 A 
ATOM     30  C   UNL     1       1.709   7.016  20.767  0.00  0.00    +0.000 A 
ATOM     31  C   UNL     1       1.362   8.331  20.440  0.00  0.00    +0.000 A 
ATOM     32  C   UNL     1       1.697   8.811  19.165  0.00  0.00    +0.000 A 
ATOM     33  C   UNL     1       2.360   7.988  18.239  0.00  0.00    +0.000 A 
ENDBRANCH  22  31
ENDBRANCH  21  24
ENDBRANCH   1  21
TORSDOF 4
ENDMDL
