MODEL 1
REMARK VINA RESULT:      -6.8      0.000      0.000
REMARK  Name = 
REMARK  5 active torsions:
REMARK  status: ('A' for Active; 'I' for Inactive)
REMARK    1  A    between atoms: C_1  and  N_2
REMARK    2  A    between atoms: C_4  and  S_5
REMARK    3  A    between atoms: S_5  and  N_8
REMARK    4  A    between atoms: C_14  and  C_15
REMARK    5  A    between atoms: C_15  and  O_17
REMARK                            x       y       z     vdW  Elec       q    Type
REMARK                         _______ _______ _______ _____ _____    ______ ____
ROOT
ATOM      1  C   UNL     1       6.927   5.572  19.204  0.00  0.00    +0.000 C 
ATOM      2  N   UNL     1       5.914   4.824  18.483  0.00  0.00    +0.000 N 
ATOM      3  C   UNL     1       5.056   3.928  19.072  0.00  0.00    +0.000 A 
ATOM      4  C   UNL     1       4.230   3.425  18.090  0.00  0.00    +0.000 A 
ATOM      5  C   UNL     1       4.579   4.074  16.877  0.00  0.00    +0.000 A 
ATOM      6  C   UNL     1       5.637   4.940  17.130  0.00  0.00    +0.000 A 
ENDROOT
BRANCH   4   7
ATOM      7  S   UNL     1       2.980   2.231  18.286  0.00  0.00    +0.000 S 
ATOM      8  O   UNL     1       2.209   2.341  17.068  0.00  0.00    +0.000 OA
ATOM      9  O   UNL     1       3.710   1.027  18.626  0.00  0.00    +0.000 OA
BRANCH   7  10
ATOM     10  N   UNL     1       2.008   2.654  19.597  0.00  0.00    +0.000 NA
ATOM     11  C   UNL     1       1.161   3.853  19.515  0.00  0.00    +0.000 C 
ATOM     12  C   UNL     1       1.728   4.794  20.561  0.00  0.00    +0.000 C 
ATOM     13  C   UNL     1       2.277   3.880  21.641  0.00  0.00    +0.000 C 
ATOM     14  C   UNL     1       2.579   2.552  20.954  0.00  0.00    +0.000 C 
ENDBRANCH   7  10
ENDBRANCH   4   7
BRANCH   6  15
ATOM     15  C   UNL     1       6.377   5.796  16.223  0.00  0.00    +0.000 C 
ATOM     16  O   UNL     1       7.408   5.491  15.644  0.00  0.00    +0.000 OA
BRANCH  15  17
ATOM     17  O   UNL     1       5.808   7.015  16.093  0.00  0.00    +0.000 OA
ATOM     18  H   UNL     1       5.323   7.302  16.885  0.00  0.00    +0.000 HD
ENDBRANCH  15  17
ENDBRANCH   6  15
TORSDOF 4
ENDMDL
MODEL 2
REMARK VINA RESULT:      -6.8      2.177      5.510
REMARK  Name = 
REMARK  5 active torsions:
REMARK  status: ('A' for Active; 'I' for Inactive)
REMARK    1  A    between atoms: C_1  and  N_2
REMARK    2  A    between atoms: C_4  and  S_5
REMARK    3  A    between atoms: S_5  and  N_8
REMARK    4  A    between atoms: C_14  and  C_15
REMARK    5  A    between atoms: C_15  and  O_17
REMARK                            x       y       z     vdW  Elec       q    Type
REMARK                         _______ _______ _______ _____ _____    ______ ____
ROOT
ATOM      1  C   UNL     1       2.250   5.844  19.838  0.00  0.00    +0.000 C 
ATOM      2  N   UNL     1       3.000   5.277  18.733  0.00  0.00    +0.000 N 
ATOM      3  C   UNL     1       3.938   5.968  18.005  0.00  0.00    +0.000 A 
ATOM      4  C   UNL     1       4.452   5.113  17.054  0.00  0.00    +0.000 A 
ATOM      5  C   UNL     1       3.827   3.853  17.246  0.00  0.00    +0.000 A 
ATOM      6  C   UNL     1       2.917   3.967  18.290  0.00  0.00    +0.000 A 
ENDROOT
BRANCH   4   7
ATOM      7  S   UNL     1       5.650   5.488  15.850  0.00  0.00    +0.000 S 
ATOM      8  O   UNL     1       5.703   4.292  15.040  0.00  0.00    +0.000 OA
ATOM      9  O   UNL     1       5.208   6.759  15.315  0.00  0.00    +0.000 OA
BRANCH   7  10
ATOM     10  N   UNL     1       7.142   5.714  16.602  0.00  0.00    +0.000 NA
ATOM     11  C   UNL     1       7.625   4.719  17.571  0.00  0.00    +0.000 C 
ATOM     12  C   UNL     1       7.662   5.460  18.894  0.00  0.00    +0.000 C 
ATOM     13  C   UNL     1       7.964   6.899  18.518  0.00  0.00    +0.000 C 
ATOM     14  C   UNL     1       7.487   7.067  17.079  0.00  0.00    +0.000 C 
ENDBRANCH   7  10
ENDBRANCH   4   7
BRANCH   6  15
ATOM     15  C   UNL     1       2.007   2.982  18.843  0.00  0.00    +0.000 C 
ATOM     16  O   UNL     1       2.235   2.270  19.809  0.00  0.00    +0.000 OA
BRANCH  15  17
ATOM     17  O   UNL     1       0.849   2.909  18.149  0.00  0.00    +0.000 OA
ATOM     18  H   UNL     1       0.082   3.249  18.641  0.00  0.00    +0.000 HD
ENDBRANCH  15  17
ENDBRANCH   6  15
TORSDOF 4
ENDMDL
MODEL 3
REMARK VINA RESULT:      -6.7      1.711      2.001
REMARK  Name = 
REMARK  5 active torsions:
REMARK  status: ('A' for Active; 'I' for Inactive)
REMARK    1  A    between atoms: C_1  and  N_2
REMARK    2  A    between atoms: C_4  and  S_5
REMARK    3  A    between atoms: S_5  and  N_8
REMARK    4  A    between atoms: C_14  and  C_15
REMARK    5  A    between atoms: C_15  and  O_17
REMARK                            x       y       z     vdW  Elec       q    Type
REMARK                         _______ _______ _______ _____ _____    ______ ____
ROOT
ATOM      1  C   UNL     1       5.923   7.040  16.916  0.00  0.00    +0.000 C 
ATOM      2  N   UNL     1       5.177   5.795  16.926  0.00  0.00    +0.000 N 
ATOM      3  C   UNL     1       3.965   5.630  17.552  0.00  0.00    +0.000 A 
ATOM      4  C   UNL     1       3.552   4.332  17.340  0.00  0.00    +0.000 A 
ATOM      5  C   UNL     1       4.533   3.710  16.523  0.00  0.00    +0.000 A 
ATOM      6  C   UNL     1       5.547   4.628  16.277  0.00  0.00    +0.000 A 
ENDROOT
BRANCH   4   7
ATOM      7  S   UNL     1       2.099   3.587  17.940  0.00  0.00    +0.000 S 
ATOM      8  O   UNL     1       1.046   4.264  17.219  0.00  0.00    +0.000 OA
ATOM      9  O   UNL     1       2.353   2.170  17.778  0.00  0.00    +0.000 OA
BRANCH   7  10
ATOM     10  N   UNL     1       1.945   3.917  19.586  0.00  0.00    +0.000 NA
ATOM     11  C   UNL     1       3.114   3.783  20.467  0.00  0.00    +0.000 C 
ATOM     12  C   UNL     1       2.760   2.642  21.402  0.00  0.00    +0.000 C 
ATOM     13  C   UNL     1       1.251   2.719  21.545  0.00  0.00    +0.000 C 
ATOM     14  C   UNL     1       0.745   3.422  20.290  0.00  0.00    +0.000 C 
ENDBRANCH   7  10
ENDBRANCH   4   7
BRANCH   6  15
ATOM     15  C   UNL     1       6.783   4.472  15.535  0.00  0.00    +0.000 C 
ATOM     16  O   UNL     1       7.904   4.465  16.020  0.00  0.00    +0.000 OA
BRANCH  15  17
ATOM     17  O   UNL     1       6.571   4.353  14.205  0.00  0.00    +0.000 OA
ATOM     18  H   UNL     1       6.698   3.448  13.873  0.00  0.00    +0.000 HD
ENDBRANCH  15  17
ENDBRANCH   6  15
TORSDOF 4
ENDMDL
MODEL 4
REMARK VINA RESULT:      -6.6      1.271      1.739
REMARK  Name = 
REMARK  5 active torsions:
REMARK  status: ('A' for Active; 'I' for Inactive)
REMARK    1  A    between atoms: C_1  and  N_2
REMARK    2  A    between atoms: C_4  and  S_5
REMARK    3  A    between atoms: S_5  and  N_8
REMARK    4  A    between atoms: C_14  and  C_15
REMARK    5  A    between atoms: C_15  and  O_17
REMARK                            x       y       z     vdW  Elec       q    Type
REMARK                         _______ _______ _______ _____ _____    ______ ____
ROOT
ATOM      1  C   UNL     1       6.852   5.584  19.554  0.00  0.00    +0.000 C 
ATOM      2  N   UNL     1       5.805   5.132  18.658  0.00  0.00    +0.000 N 
ATOM      3  C   UNL     1       4.502   4.923  19.040  0.00  0.00    +0.000 A 
ATOM      4  C   UNL     1       3.794   4.515  17.930  0.00  0.00    +0.000 A 
ATOM      5  C   UNL     1       4.697   4.518  16.835  0.00  0.00    +0.000 A 
ATOM      6  C   UNL     1       5.952   4.897  17.300  0.00  0.00    +0.000 A 
ENDROOT
BRANCH   4   7
ATOM      7  S   UNL     1       2.110   4.087  17.864  0.00  0.00    +0.000 S 
ATOM      8  O   UNL     1       1.437   5.364  17.788  0.00  0.00    +0.000 OA
ATOM      9  O   UNL     1       2.047   3.119  16.788  0.00  0.00    +0.000 OA
BRANCH   7  10
ATOM     10  N   UNL     1       1.675   3.318  19.300  0.00  0.00    +0.000 NA
ATOM     11  C   UNL     1       1.143   4.112  20.418  0.00  0.00    +0.000 C 
ATOM     12  C   UNL     1       2.187   3.980  21.511  0.00  0.00    +0.000 C 
ATOM     13  C   UNL     1       2.791   2.604  21.300  0.00  0.00    +0.000 C 
ATOM     14  C   UNL     1       2.567   2.267  19.830  0.00  0.00    +0.000 C 
ENDBRANCH   7  10
ENDBRANCH   4   7
BRANCH   6  15
ATOM     15  C   UNL     1       7.210   5.015  16.590  0.00  0.00    +0.000 C 
ATOM     16  O   UNL     1       7.471   5.858  15.745  0.00  0.00    +0.000 OA
BRANCH  15  17
ATOM     17  O   UNL     1       8.093   4.056  16.949  0.00  0.00    +0.000 OA
ATOM     18  H   UNL     1       7.705   3.163  16.971  0.00  0.00    +0.000 HD
ENDBRANCH  15  17
ENDBRANCH   6  15
TORSDOF 4
ENDMDL
MODEL 5
REMARK VINA RESULT:      -6.6      1.623      2.119
REMARK  Name = 
REMARK  5 active torsions:
REMARK  status: ('A' for Active; 'I' for Inactive)
REMARK    1  A    between atoms: C_1  and  N_2
REMARK    2  A    between atoms: C_4  and  S_5
REMARK    3  A    between atoms: S_5  and  N_8
REMARK    4  A    between atoms: C_14  and  C_15
REMARK    5  A    between atoms: C_15  and  O_17
REMARK                            x       y       z     vdW  Elec       q    Type
REMARK                         _______ _______ _______ _____ _____    ______ ____
ROOT
ATOM      1  C   UNL     1       6.311   7.264  17.396  0.00  0.00    +0.000 C 
ATOM      2  N   UNL     1       5.520   6.048  17.406  0.00  0.00    +0.000 N 
ATOM      3  C   UNL     1       4.193   5.996  17.756  0.00  0.00    +0.000 A 
ATOM      4  C   UNL     1       3.773   4.689  17.635  0.00  0.00    +0.000 A 
ATOM      5  C   UNL     1       4.879   3.938  17.157  0.00  0.00    +0.000 A 
ATOM      6  C   UNL     1       5.967   4.793  17.025  0.00  0.00    +0.000 A 
ENDROOT
BRANCH   4   7
ATOM      7  S   UNL     1       2.188   4.064  17.985  0.00  0.00    +0.000 S 
ATOM      8  O   UNL     1       1.302   4.986  17.311  0.00  0.00    +0.000 OA
ATOM      9  O   UNL     1       2.281   2.669  17.603  0.00  0.00    +0.000 OA
BRANCH   7  10
ATOM     10  N   UNL     1       1.912   4.145  19.646  0.00  0.00    +0.000 NA
ATOM     11  C   UNL     1       3.044   4.029  20.577  0.00  0.00    +0.000 C 
ATOM     12  C   UNL     1       2.788   2.738  21.331  0.00  0.00    +0.000 C 
ATOM     13  C   UNL     1       1.275   2.618  21.383  0.00  0.00    +0.000 C 
ATOM     14  C   UNL     1       0.750   3.423  20.199  0.00  0.00    +0.000 C 
ENDBRANCH   7  10
ENDBRANCH   4   7
BRANCH   6  15
ATOM     15  C   UNL     1       7.329   4.509  16.614  0.00  0.00    +0.000 C 
ATOM     16  O   UNL     1       7.768   4.638  15.482  0.00  0.00    +0.000 OA
BRANCH  15  17
ATOM     17  O   UNL     1       8.087   4.050  17.635  0.00  0.00    +0.000 OA
ATOM     18  H   UNL     1       7.734   3.241  18.045  0.00  0.00    +0.000 HD
ENDBRANCH  15  17
ENDBRANCH   6  15
TORSDOF 4
ENDMDL
MODEL 6
REMARK VINA RESULT:      -6.6      1.518      1.869
REMARK  Name = 
REMARK  5 active torsions:
REMARK  status: ('A' for Active; 'I' for Inactive)
REMARK    1  A    between atoms: C_1  and  N_2
REMARK    2  A    between atoms: C_4  and  S_5
REMARK    3  A    between atoms: S_5  and  N_8
REMARK    4  A    between atoms: C_14  and  C_15
REMARK    5  A    between atoms: C_15  and  O_17
REMARK                            x       y       z     vdW  Elec       q    Type
REMARK                         _______ _______ _______ _____ _____    ______ ____
ROOT
ATOM      1  C   UNL     1       4.784   6.955  17.169  0.00  0.00    +0.000 C 
ATOM      2  N   UNL     1       4.739   5.609  17.710  0.00  0.00    +0.000 N 
ATOM      3  C   UNL     1       3.680   4.750  17.548  0.00  0.00    +0.000 A 
ATOM      4  C   UNL     1       3.994   3.566  18.180  0.00  0.00    +0.000 A 
ATOM      5  C   UNL     1       5.306   3.708  18.705  0.00  0.00    +0.000 A 
ATOM      6  C   UNL     1       5.760   4.990  18.414  0.00  0.00    +0.000 A 
ENDROOT
BRANCH   4   7
ATOM      7  S   UNL     1       2.991   2.151  18.307  0.00  0.00    +0.000 S 
ATOM      8  O   UNL     1       2.132   2.237  17.148  0.00  0.00    +0.000 OA
ATOM      9  O   UNL     1       3.943   1.073  18.479  0.00  0.00    +0.000 OA
BRANCH   7  10
ATOM     10  N   UNL     1       2.050   2.260  19.702  0.00  0.00    +0.000 NA
ATOM     11  C   UNL     1       0.803   3.038  19.678  0.00  0.00    +0.000 C 
ATOM     12  C   UNL     1       1.054   4.192  20.630  0.00  0.00    +0.000 C 
ATOM     13  C   UNL     1       2.006   3.631  21.670  0.00  0.00    +0.000 C 
ATOM     14  C   UNL     1       2.734   2.475  20.992  0.00  0.00    +0.000 C 
ENDBRANCH   7  10
ENDBRANCH   4   7
BRANCH   6  15
ATOM     15  C   UNL     1       7.010   5.636  18.763  0.00  0.00    +0.000 C 
ATOM     16  O   UNL     1       7.746   6.223  17.985  0.00  0.00    +0.000 OA
BRANCH  15  17
ATOM     17  O   UNL     1       7.306   5.501  20.076  0.00  0.00    +0.000 OA
ATOM     18  H   UNL     1       7.222   6.331  20.577  0.00  0.00    +0.000 HD
ENDBRANCH  15  17
ENDBRANCH   6  15
TORSDOF 4
ENDMDL
MODEL 7
REMARK VINA RESULT:      -6.6      1.889      2.437
REMARK  Name = 
REMARK  5 active torsions:
REMARK  status: ('A' for Active; 'I' for Inactive)
REMARK    1  A    between atoms: C_1  and  N_2
REMARK    2  A    between atoms: C_4  and  S_5
REMARK    3  A    between atoms: S_5  and  N_8
REMARK    4  A    between atoms: C_14  and  C_15
REMARK    5  A    between atoms: C_15  and  O_17
REMARK                            x       y       z     vdW  Elec       q    Type
REMARK                         _______ _______ _______ _____ _____    ______ ____
ROOT
ATOM      1  C   UNL     1       6.654   4.149  15.533  0.00  0.00    +0.000 C 
ATOM      2  N   UNL     1       5.719   4.620  16.537  0.00  0.00    +0.000 N 
ATOM      3  C   UNL     1       4.457   4.107  16.713  0.00  0.00    +0.000 A 
ATOM      4  C   UNL     1       3.866   4.783  17.759  0.00  0.00    +0.000 A 
ATOM      5  C   UNL     1       4.825   5.706  18.253  0.00  0.00    +0.000 A 
ATOM      6  C   UNL     1       5.975   5.603  17.479  0.00  0.00    +0.000 A 
ENDROOT
BRANCH   4   7
ATOM      7  S   UNL     1       2.258   4.551  18.378  0.00  0.00    +0.000 S 
ATOM      8  O   UNL     1       2.052   5.700  19.230  0.00  0.00    +0.000 OA
ATOM      9  O   UNL     1       1.464   4.326  17.187  0.00  0.00    +0.000 OA
BRANCH   7  10
ATOM     10  N   UNL     1       2.221   3.151  19.317  0.00  0.00    +0.000 NA
ATOM     11  C   UNL     1       0.961   2.736  19.953  0.00  0.00    +0.000 C 
ATOM     12  C   UNL     1       1.226   2.858  21.442  0.00  0.00    +0.000 C 
ATOM     13  C   UNL     1       2.708   2.567  21.592  0.00  0.00    +0.000 C 
ATOM     14  C   UNL     1       3.341   2.901  20.245  0.00  0.00    +0.000 C 
ENDBRANCH   7  10
ENDBRANCH   4   7
BRANCH   6  15
ATOM     15  C   UNL     1       7.216   6.351  17.551  0.00  0.00    +0.000 C 
ATOM     16  O   UNL     1       7.630   7.120  16.698  0.00  0.00    +0.000 OA
BRANCH  15  17
ATOM     17  O   UNL     1       7.906   6.088  18.684  0.00  0.00    +0.000 OA
ATOM     18  H   UNL     1       8.112   6.885  19.203  0.00  0.00    +0.000 HD
ENDBRANCH  15  17
ENDBRANCH   6  15
TORSDOF 4
ENDMDL
MODEL 8
REMARK VINA RESULT:      -6.6      1.446      1.660
REMARK  Name = 
REMARK  5 active torsions:
REMARK  status: ('A' for Active; 'I' for Inactive)
REMARK    1  A    between atoms: C_1  and  N_2
REMARK    2  A    between atoms: C_4  and  S_5
REMARK    3  A    between atoms: S_5  and  N_8
REMARK    4  A    between atoms: C_14  and  C_15
REMARK    5  A    between atoms: C_15  and  O_17
REMARK                            x       y       z     vdW  Elec       q    Type
REMARK                         _______ _______ _______ _____ _____    ______ ____
ROOT
ATOM      1  C   UNL     1       5.862   7.007  17.653  0.00  0.00    +0.000 C 
ATOM      2  N   UNL     1       5.194   5.734  17.455  0.00  0.00    +0.000 N 
ATOM      3  C   UNL     1       3.891   5.486  17.810  0.00  0.00    +0.000 A 
ATOM      4  C   UNL     1       3.597   4.185  17.461  0.00  0.00    +0.000 A 
ATOM      5  C   UNL     1       4.753   3.648  16.838  0.00  0.00    +0.000 A 
ATOM      6  C   UNL     1       5.748   4.620  16.846  0.00  0.00    +0.000 A 
ENDROOT
BRANCH   4   7
ATOM      7  S   UNL     1       2.092   3.349  17.716  0.00  0.00    +0.000 S 
ATOM      8  O   UNL     1       1.106   4.246  17.159  0.00  0.00    +0.000 OA
ATOM      9  O   UNL     1       2.336   2.034  17.161  0.00  0.00    +0.000 OA
BRANCH   7  10
ATOM     10  N   UNL     1       1.820   3.188  19.373  0.00  0.00    +0.000 NA
ATOM     11  C   UNL     1       0.919   4.128  20.055  0.00  0.00    +0.000 C 
ATOM     12  C   UNL     1       1.815   4.891  21.012  0.00  0.00    +0.000 C 
ATOM     13  C   UNL     1       2.901   3.900  21.393  0.00  0.00    +0.000 C 
ATOM     14  C   UNL     1       2.973   2.896  20.246  0.00  0.00    +0.000 C 
ENDBRANCH   7  10
ENDBRANCH   4   7
BRANCH   6  15
ATOM     15  C   UNL     1       7.116   4.554  16.368  0.00  0.00    +0.000 C 
ATOM     16  O   UNL     1       7.482   4.802  15.230  0.00  0.00    +0.000 OA
BRANCH  15  17
ATOM     17  O   UNL     1       7.976   4.157  17.333  0.00  0.00    +0.000 OA
ATOM     18  H   UNL     1       8.389   3.295  17.151  0.00  0.00    +0.000 HD
ENDBRANCH  15  17
ENDBRANCH   6  15
TORSDOF 4
ENDMDL
MODEL 9
REMARK VINA RESULT:      -6.6      2.401      5.536
REMARK  Name = 
REMARK  5 active torsions:
REMARK  status: ('A' for Active; 'I' for Inactive)
REMARK    1  A    between atoms: C_1  and  N_2
REMARK    2  A    between atoms: C_4  and  S_5
REMARK    3  A    between atoms: S_5  and  N_8
REMARK    4  A    between atoms: C_14  and  C_15
REMARK    5  A    between atoms: C_15  and  O_17
REMARK                            x       y       z     vdW  Elec       q    Type
REMARK                         _______ _______ _______ _____ _____    ______ ____
ROOT
ATOM      1  C   UNL     1       3.118   1.894  18.709  0.00  0.00    +0.000 C 
ATOM      2  N   UNL     1       3.561   3.201  18.260  0.00  0.00    +0.000 N 
ATOM      3  C   UNL     1       4.469   3.400  17.248  0.00  0.00    +0.000 A 
ATOM      4  C   UNL     1       4.635   4.759  17.089  0.00  0.00    +0.000 A 
ATOM      5  C   UNL     1       3.764   5.397  18.011  0.00  0.00    +0.000 A 
ATOM      6  C   UNL     1       3.104   4.416  18.743  0.00  0.00    +0.000 A 
ENDROOT
BRANCH   4   7
ATOM      7  S   UNL     1       5.695   5.558  15.965  0.00  0.00    +0.000 S 
ATOM      8  O   UNL     1       5.852   4.593  14.900  0.00  0.00    +0.000 OA
ATOM      9  O   UNL     1       5.060   6.842  15.752  0.00  0.00    +0.000 OA
BRANCH   7  10
ATOM     10  N   UNL     1       7.190   5.817  16.701  0.00  0.00    +0.000 NA
ATOM     11  C   UNL     1       7.679   4.865  17.708  0.00  0.00    +0.000 C 
ATOM     12  C   UNL     1       7.721   5.661  18.999  0.00  0.00    +0.000 C 
ATOM     13  C   UNL     1       8.020   7.084  18.561  0.00  0.00    +0.000 C 
ATOM     14  C   UNL     1       7.536   7.190  17.119  0.00  0.00    +0.000 C 
ENDBRANCH   7  10
ENDBRANCH   4   7
BRANCH   6  15
ATOM     15  C   UNL     1       2.148   4.549  19.825  0.00  0.00    +0.000 C 
ATOM     16  O   UNL     1       0.972   4.220  19.777  0.00  0.00    +0.000 OA
BRANCH  15  17
ATOM     17  O   UNL     1       2.695   5.112  20.926  0.00  0.00    +0.000 OA
ATOM     18  H   UNL     1       2.895   4.470  21.629  0.00  0.00    +0.000 HD
ENDBRANCH  15  17
ENDBRANCH   6  15
TORSDOF 4
ENDMDL
