MODEL 1
REMARK VINA RESULT:      -6.7      0.000      0.000
REMARK  Name = 
REMARK  9 active torsions:
REMARK  status: ('A' for Active; 'I' for Inactive)
REMARK    1  A    between atoms: C_1  and  O_2
REMARK    2  A    between atoms: O_2  and  C_3
REMARK    3  A    between atoms: C_8  and  C_9
REMARK    4  A    between atoms: C_14  and  C_15
REMARK    5  A    between atoms: C_15  and  C_16
REMARK    6  A    between atoms: C_15  and  C_17
REMARK    7  A    between atoms: C_15  and  C_18
REMARK    8  A    between atoms: N_21  and  C_22
REMARK    9  A    between atoms: C_25  and  C_26
REMARK                            x       y       z     vdW  Elec       q    Type
REMARK                         _______ _______ _______ _____ _____    ______ ____
ROOT
ATOM      1  C   UNL     1       0.449  11.882  20.095  0.00  0.00    +0.000 C 
ATOM      2  C   UNL     1      -0.857  12.586  20.056  0.00  0.00    +0.000 A 
ATOM      3  C   UNL     1      -1.693  11.982  19.121  0.00  0.00    +0.000 A 
ATOM      4  N   UNL     1      -2.889  12.558  19.042  0.00  0.00    +0.000 NA
ATOM      5  N   UNL     1      -2.819  13.503  20.012  0.00  0.00    +0.000 N 
ATOM      6  C   UNL     1      -1.619  13.528  20.706  0.00  0.00    +0.000 A 
ATOM      7  C   UNL     1      -1.075  10.804  18.540  0.00  0.00    +0.000 C 
ATOM      8  O   UNL     1      -1.552  10.088  17.682  0.00  0.00    +0.000 OA
ATOM      9  N   UNL     1       0.145  10.681  19.265  0.00  0.00    +0.000 N 
ATOM     10  H   UNL     1      -3.650  14.059  20.179  0.00  0.00    +0.000 HD
ENDROOT
BRANCH   1  16
ATOM     11  C   UNL     1       2.405  13.504  20.129  0.00  0.00    +0.000 A 
ATOM     12  N   UNL     1       3.342  14.309  19.570  0.00  0.00    +0.000 NA
ATOM     13  C   UNL     1       3.310  14.462  18.232  0.00  0.00    +0.000 A 
ATOM     14  C   UNL     1       2.389  13.838  17.418  0.00  0.00    +0.000 A 
ATOM     15  C   UNL     1       1.463  12.989  18.013  0.00  0.00    +0.000 A 
ATOM     16  C   UNL     1       1.447  12.795  19.409  0.00  0.00    +0.000 A 
BRANCH  11  18
ATOM     17  C   UNL     1       3.151  14.468  22.102  0.00  0.00    +0.000 C 
ATOM     18  O   UNL     1       2.380  13.421  21.507  0.00  0.00    +0.000 OA
ENDBRANCH  11  18
ENDBRANCH   1  16
BRANCH   9  19
ATOM     19  C   UNL     1       0.979   9.534  19.268  0.00  0.00    +0.000 A 
ATOM     20  C   UNL     1       1.678   9.136  18.125  0.00  0.00    +0.000 A 
ATOM     21  C   UNL     1       2.459   7.973  18.123  0.00  0.00    +0.000 A 
ATOM     22  C   UNL     1       2.544   7.167  19.260  0.00  0.00    +0.000 A 
ATOM     23  C   UNL     1       1.849   7.558  20.406  0.00  0.00    +0.000 A 
ATOM     24  C   UNL     1       1.094   8.736  20.416  0.00  0.00    +0.000 A 
BRANCH  22  25
ATOM     25  C   UNL     1       3.356   5.966  19.247  0.00  0.00    +0.000 A 
ATOM     26  C   UNL     1       4.523   5.659  18.494  0.00  0.00    +0.000 A 
ATOM     27  C   UNL     1       4.905   4.392  18.866  0.00  0.00    +0.000 A 
ATOM     28  O   UNL     1       4.045   3.887  19.786  0.00  0.00    +0.000 OA
ATOM     29  C   UNL     1       3.106   4.842  20.010  0.00  0.00    +0.000 A 
ENDBRANCH  22  25
ENDBRANCH   9  19
BRANCH   6  30
ATOM     30  C   UNL     1      -1.365  14.387  21.928  0.00  0.00    +0.000 C 
ATOM     31  C   UNL     1      -2.653  15.068  22.426  0.00  0.00    +0.000 C 
ATOM     32  C   UNL     1      -0.806  13.515  23.071  0.00  0.00    +0.000 C 
ATOM     33  C   UNL     1      -0.347  15.492  21.609  0.00  0.00    +0.000 C 
ENDBRANCH   6  30
TORSDOF 5
ENDMDL
MODEL 2
REMARK VINA RESULT:      -6.7      2.545      6.549
REMARK  Name = 
REMARK  9 active torsions:
REMARK  status: ('A' for Active; 'I' for Inactive)
REMARK    1  A    between atoms: C_1  and  O_2
REMARK    2  A    between atoms: O_2  and  C_3
REMARK    3  A    between atoms: C_8  and  C_9
REMARK    4  A    between atoms: C_14  and  C_15
REMARK    5  A    between atoms: C_15  and  C_16
REMARK    6  A    between atoms: C_15  and  C_17
REMARK    7  A    between atoms: C_15  and  C_18
REMARK    8  A    between atoms: N_21  and  C_22
REMARK    9  A    between atoms: C_25  and  C_26
REMARK                            x       y       z     vdW  Elec       q    Type
REMARK                         _______ _______ _______ _____ _____    ______ ____
ROOT
ATOM      1  C   UNL     1      -0.292  12.029  19.155  0.00  0.00    +0.000 C 
ATOM      2  C   UNL     1      -1.752  12.236  19.320  0.00  0.00    +0.000 A 
ATOM      3  C   UNL     1      -1.986  13.292  20.196  0.00  0.00    +0.000 A 
ATOM      4  N   UNL     1      -3.279  13.539  20.381  0.00  0.00    +0.000 NA
ATOM      5  N   UNL     1      -3.866  12.659  19.535  0.00  0.00    +0.000 N 
ATOM      6  C   UNL     1      -2.978  11.874  18.814  0.00  0.00    +0.000 A 
ATOM      7  C   UNL     1      -0.745  13.923  20.608  0.00  0.00    +0.000 C 
ATOM      8  O   UNL     1      -0.631  14.851  21.384  0.00  0.00    +0.000 OA
ATOM      9  N   UNL     1       0.242  13.243  19.838  0.00  0.00    +0.000 N 
ATOM     10  H   UNL     1      -4.876  12.687  19.463  0.00  0.00    +0.000 HD
ENDROOT
BRANCH   1  16
ATOM     11  C   UNL     1       0.940   9.822  19.413  0.00  0.00    +0.000 A 
ATOM     12  N   UNL     1       1.308   8.690  20.062  0.00  0.00    +0.000 NA
ATOM     13  C   UNL     1       0.737   8.448  21.258  0.00  0.00    +0.000 A 
ATOM     14  C   UNL     1      -0.182   9.291  21.846  0.00  0.00    +0.000 A 
ATOM     15  C   UNL     1      -0.514  10.463  21.175  0.00  0.00    +0.000 A 
ATOM     16  C   UNL     1       0.050  10.765  19.919  0.00  0.00    +0.000 A 
BRANCH  11  18
ATOM     17  C   UNL     1       2.203   8.886  17.706  0.00  0.00    +0.000 C 
ATOM     18  O   UNL     1       1.455  10.023  18.148  0.00  0.00    +0.000 OA
ENDBRANCH  11  18
ENDBRANCH   1  16
BRANCH   9  19
ATOM     19  C   UNL     1       1.582  13.673  19.667  0.00  0.00    +0.000 A 
ATOM     20  C   UNL     1       2.437  13.848  20.759  0.00  0.00    +0.000 A 
ATOM     21  C   UNL     1       3.744  14.323  20.586  0.00  0.00    +0.000 A 
ATOM     22  C   UNL     1       4.222  14.654  19.316  0.00  0.00    +0.000 A 
ATOM     23  C   UNL     1       3.374  14.482  18.220  0.00  0.00    +0.000 A 
ATOM     24  C   UNL     1       2.079  13.979  18.392  0.00  0.00    +0.000 A 
BRANCH  22  25
ATOM     25  C   UNL     1       5.577  15.144  19.149  0.00  0.00    +0.000 A 
ATOM     26  C   UNL     1       6.395  15.891  20.040  0.00  0.00    +0.000 A 
ATOM     27  C   UNL     1       7.594  16.087  19.396  0.00  0.00    +0.000 A 
ATOM     28  O   UNL     1       7.568  15.525  18.161  0.00  0.00    +0.000 OA
ATOM     29  C   UNL     1       6.342  14.960  18.015  0.00  0.00    +0.000 A 
ENDBRANCH  22  25
ENDBRANCH   9  19
BRANCH   6  30
ATOM     30  C   UNL     1      -3.391  10.932  17.701  0.00  0.00    +0.000 C 
ATOM     31  C   UNL     1      -3.148   9.459  18.080  0.00  0.00    +0.000 C 
ATOM     32  C   UNL     1      -4.892  11.112  17.396  0.00  0.00    +0.000 C 
ATOM     33  C   UNL     1      -2.590  11.223  16.423  0.00  0.00    +0.000 C 
ENDBRANCH   6  30
TORSDOF 5
ENDMDL
MODEL 3
REMARK VINA RESULT:      -6.7      2.488      6.599
REMARK  Name = 
REMARK  9 active torsions:
REMARK  status: ('A' for Active; 'I' for Inactive)
REMARK    1  A    between atoms: C_1  and  O_2
REMARK    2  A    between atoms: O_2  and  C_3
REMARK    3  A    between atoms: C_8  and  C_9
REMARK    4  A    between atoms: C_14  and  C_15
REMARK    5  A    between atoms: C_15  and  C_16
REMARK    6  A    between atoms: C_15  and  C_17
REMARK    7  A    between atoms: C_15  and  C_18
REMARK    8  A    between atoms: N_21  and  C_22
REMARK    9  A    between atoms: C_25  and  C_26
REMARK                            x       y       z     vdW  Elec       q    Type
REMARK                         _______ _______ _______ _____ _____    ______ ____
ROOT
ATOM      1  C   UNL     1      -0.199  11.794  19.019  0.00  0.00    +0.000 C 
ATOM      2  C   UNL     1      -1.671  11.942  19.133  0.00  0.00    +0.000 A 
ATOM      3  C   UNL     1      -1.978  13.025  19.952  0.00  0.00    +0.000 A 
ATOM      4  N   UNL     1      -3.285  13.221  20.089  0.00  0.00    +0.000 NA
ATOM      5  N   UNL     1      -3.807  12.278  19.268  0.00  0.00    +0.000 N 
ATOM      6  C   UNL     1      -2.864  11.502  18.610  0.00  0.00    +0.000 A 
ATOM      7  C   UNL     1      -0.779  13.730  20.369  0.00  0.00    +0.000 C 
ATOM      8  O   UNL     1      -0.729  14.695  21.105  0.00  0.00    +0.000 OA
ATOM      9  N   UNL     1       0.260  13.061  19.660  0.00  0.00    +0.000 N 
ATOM     10  H   UNL     1      -4.815  12.257  19.166  0.00  0.00    +0.000 HD
ENDROOT
BRANCH   1  16
ATOM     11  C   UNL     1       1.062   9.618  19.382  0.00  0.00    +0.000 A 
ATOM     12  N   UNL     1       1.458   8.532  20.090  0.00  0.00    +0.000 NA
ATOM     13  C   UNL     1       0.919   8.359  21.313  0.00  0.00    +0.000 A 
ATOM     14  C   UNL     1       0.005   9.228  21.870  0.00  0.00    +0.000 A 
ATOM     15  C   UNL     1      -0.356  10.353  21.137  0.00  0.00    +0.000 A 
ATOM     16  C   UNL     1       0.174  10.583  19.851  0.00  0.00    +0.000 A 
BRANCH  11  18
ATOM     17  C   UNL     1       2.300   8.594  17.708  0.00  0.00    +0.000 C 
ATOM     18  O   UNL     1       1.544   9.746  18.095  0.00  0.00    +0.000 OA
ENDBRANCH  11  18
ENDBRANCH   1  16
BRANCH   9  19
ATOM     19  C   UNL     1       1.584  13.543  19.508  0.00  0.00    +0.000 A 
ATOM     20  C   UNL     1       2.409  13.773  20.613  0.00  0.00    +0.000 A 
ATOM     21  C   UNL     1       3.699  14.298  20.457  0.00  0.00    +0.000 A 
ATOM     22  C   UNL     1       4.188  14.626  19.190  0.00  0.00    +0.000 A 
ATOM     23  C   UNL     1       3.371  14.399  18.082  0.00  0.00    +0.000 A 
ATOM     24  C   UNL     1       2.094  13.846  18.238  0.00  0.00    +0.000 A 
BRANCH  22  25
ATOM     25  C   UNL     1       5.525  15.169  19.040  0.00  0.00    +0.000 A 
ATOM     26  C   UNL     1       6.511  14.909  18.050  0.00  0.00    +0.000 A 
ATOM     27  C   UNL     1       7.596  15.693  18.364  0.00  0.00    +0.000 A 
ATOM     28  O   UNL     1       7.353  16.409  19.491  0.00  0.00    +0.000 OA
ATOM     29  C   UNL     1       6.100  16.084  19.899  0.00  0.00    +0.000 A 
ENDBRANCH  22  25
ENDBRANCH   9  19
BRANCH   6  30
ATOM     30  C   UNL     1      -3.201  10.493  17.531  0.00  0.00    +0.000 C 
ATOM     31  C   UNL     1      -4.145  11.087  16.468  0.00  0.00    +0.000 C 
ATOM     32  C   UNL     1      -1.909  10.032  16.827  0.00  0.00    +0.000 C 
ATOM     33  C   UNL     1      -3.896   9.266  18.138  0.00  0.00    +0.000 C 
ENDBRANCH   6  30
TORSDOF 5
ENDMDL
MODEL 4
REMARK VINA RESULT:      -6.6      2.143      3.313
REMARK  Name = 
REMARK  9 active torsions:
REMARK  status: ('A' for Active; 'I' for Inactive)
REMARK    1  A    between atoms: C_1  and  O_2
REMARK    2  A    between atoms: O_2  and  C_3
REMARK    3  A    between atoms: C_8  and  C_9
REMARK    4  A    between atoms: C_14  and  C_15
REMARK    5  A    between atoms: C_15  and  C_16
REMARK    6  A    between atoms: C_15  and  C_17
REMARK    7  A    between atoms: C_15  and  C_18
REMARK    8  A    between atoms: N_21  and  C_22
REMARK    9  A    between atoms: C_25  and  C_26
REMARK                            x       y       z     vdW  Elec       q    Type
REMARK                         _______ _______ _______ _____ _____    ______ ____
ROOT
ATOM      1  C   UNL     1       0.321  10.915  20.155  0.00  0.00    +0.000 C 
ATOM      2  C   UNL     1      -0.339  11.391  21.396  0.00  0.00    +0.000 A 
ATOM      3  C   UNL     1      -0.675  10.307  22.201  0.00  0.00    +0.000 A 
ATOM      4  N   UNL     1      -1.263  10.664  23.338  0.00  0.00    +0.000 NA
ATOM      5  N   UNL     1      -1.224  12.017  23.272  0.00  0.00    +0.000 N 
ATOM      6  C   UNL     1      -0.616  12.520  22.131  0.00  0.00    +0.000 A 
ATOM      7  C   UNL     1      -0.201   9.058  21.632  0.00  0.00    +0.000 C 
ATOM      8  O   UNL     1      -0.365   7.946  22.095  0.00  0.00    +0.000 OA
ATOM      9  N   UNL     1       0.534   9.476  20.486  0.00  0.00    +0.000 N 
ATOM     10  H   UNL     1      -1.583  12.531  24.067  0.00  0.00    +0.000 HD
ENDROOT
BRANCH   1  16
ATOM     11  C   UNL     1      -0.648  12.176  18.173  0.00  0.00    +0.000 A 
ATOM     12  N   UNL     1      -1.504  12.367  17.140  0.00  0.00    +0.000 NA
ATOM     13  C   UNL     1      -2.486  11.460  16.971  0.00  0.00    +0.000 A 
ATOM     14  C   UNL     1      -2.649  10.358  17.785  0.00  0.00    +0.000 A 
ATOM     15  C   UNL     1      -1.735  10.166  18.814  0.00  0.00    +0.000 A 
ATOM     16  C   UNL     1      -0.691  11.086  19.039  0.00  0.00    +0.000 A 
BRANCH  11  18
ATOM     17  C   UNL     1       1.594  12.732  17.960  0.00  0.00    +0.000 C 
ATOM     18  O   UNL     1       0.300  13.154  18.401  0.00  0.00    +0.000 OA
ENDBRANCH  11  18
ENDBRANCH   1  16
BRANCH   9  19
ATOM     19  C   UNL     1       1.425   8.659  19.746  0.00  0.00    +0.000 A 
ATOM     20  C   UNL     1       1.827   9.002  18.451  0.00  0.00    +0.000 A 
ATOM     21  C   UNL     1       2.668   8.163  17.708  0.00  0.00    +0.000 A 
ATOM     22  C   UNL     1       3.112   6.948  18.235  0.00  0.00    +0.000 A 
ATOM     23  C   UNL     1       2.716   6.598  19.526  0.00  0.00    +0.000 A 
ATOM     24  C   UNL     1       1.900   7.452  20.279  0.00  0.00    +0.000 A 
BRANCH  22  25
ATOM     25  C   UNL     1       3.982   6.088  17.456  0.00  0.00    +0.000 A 
ATOM     26  C   UNL     1       4.991   6.421  16.511  0.00  0.00    +0.000 A 
ATOM     27  C   UNL     1       5.522   5.232  16.072  0.00  0.00    +0.000 A 
ATOM     28  O   UNL     1       4.900   4.185  16.670  0.00  0.00    +0.000 OA
ATOM     29  C   UNL     1       3.965   4.708  17.503  0.00  0.00    +0.000 A 
ENDBRANCH  22  25
ENDBRANCH   9  19
BRANCH   6  30
ATOM     30  C   UNL     1      -0.318  13.988  21.907  0.00  0.00    +0.000 C 
ATOM     31  C   UNL     1      -1.198  14.587  20.794  0.00  0.00    +0.000 C 
ATOM     32  C   UNL     1      -0.578  14.777  23.207  0.00  0.00    +0.000 C 
ATOM     33  C   UNL     1       1.149  14.184  21.497  0.00  0.00    +0.000 C 
ENDBRANCH   6  30
TORSDOF 5
ENDMDL
MODEL 5
REMARK VINA RESULT:      -6.6      0.442      1.059
REMARK  Name = 
REMARK  9 active torsions:
REMARK  status: ('A' for Active; 'I' for Inactive)
REMARK    1  A    between atoms: C_1  and  O_2
REMARK    2  A    between atoms: O_2  and  C_3
REMARK    3  A    between atoms: C_8  and  C_9
REMARK    4  A    between atoms: C_14  and  C_15
REMARK    5  A    between atoms: C_15  and  C_16
REMARK    6  A    between atoms: C_15  and  C_17
REMARK    7  A    between atoms: C_15  and  C_18
REMARK    8  A    between atoms: N_21  and  C_22
REMARK    9  A    between atoms: C_25  and  C_26
REMARK                            x       y       z     vdW  Elec       q    Type
REMARK                         _______ _______ _______ _____ _____    ______ ____
ROOT
ATOM      1  C   UNL     1       0.271  11.893  20.146  0.00  0.00    +0.000 C 
ATOM      2  C   UNL     1      -1.057  12.555  20.143  0.00  0.00    +0.000 A 
ATOM      3  C   UNL     1      -1.887  11.950  19.205  0.00  0.00    +0.000 A 
ATOM      4  N   UNL     1      -3.101  12.489  19.157  0.00  0.00    +0.000 NA
ATOM      5  N   UNL     1      -3.048  13.410  20.150  0.00  0.00    +0.000 N 
ATOM      6  C   UNL     1      -1.839  13.456  20.828  0.00  0.00    +0.000 A 
ATOM      7  C   UNL     1      -1.241  10.807  18.585  0.00  0.00    +0.000 C 
ATOM      8  O   UNL     1      -1.707  10.098  17.715  0.00  0.00    +0.000 OA
ATOM      9  N   UNL     1      -0.007  10.704  19.289  0.00  0.00    +0.000 N 
ATOM     10  H   UNL     1      -3.893  13.935  20.342  0.00  0.00    +0.000 HD
ENDROOT
BRANCH   1  16
ATOM     11  C   UNL     1       2.125  13.630  20.202  0.00  0.00    +0.000 A 
ATOM     12  N   UNL     1       3.026  14.482  19.654  0.00  0.00    +0.000 NA
ATOM     13  C   UNL     1       3.019  14.614  18.313  0.00  0.00    +0.000 A 
ATOM     14  C   UNL     1       2.157  13.924  17.487  0.00  0.00    +0.000 A 
ATOM     15  C   UNL     1       1.268  13.029  18.072  0.00  0.00    +0.000 A 
ATOM     16  C   UNL     1       1.230  12.855  19.470  0.00  0.00    +0.000 A 
BRANCH  11  18
ATOM     17  C   UNL     1       2.772  14.659  22.178  0.00  0.00    +0.000 C 
ATOM     18  O   UNL     1       2.071  13.565  21.580  0.00  0.00    +0.000 OA
ENDBRANCH  11  18
ENDBRANCH   1  16
BRANCH   9  19
ATOM     19  C   UNL     1       0.863   9.585  19.252  0.00  0.00    +0.000 A 
ATOM     20  C   UNL     1       1.519   9.210  18.076  0.00  0.00    +0.000 A 
ATOM     21  C   UNL     1       2.337   8.073  18.036  0.00  0.00    +0.000 A 
ATOM     22  C   UNL     1       2.501   7.270  19.166  0.00  0.00    +0.000 A 
ATOM     23  C   UNL     1       1.849   7.638  20.344  0.00  0.00    +0.000 A 
ATOM     24  C   UNL     1       1.057   8.791  20.391  0.00  0.00    +0.000 A 
BRANCH  22  25
ATOM     25  C   UNL     1       3.350   6.095  19.113  0.00  0.00    +0.000 A 
ATOM     26  C   UNL     1       3.337   4.920  19.914  0.00  0.00    +0.000 A 
ATOM     27  C   UNL     1       4.343   4.113  19.439  0.00  0.00    +0.000 A 
ATOM     28  O   UNL     1       4.988   4.715  18.408  0.00  0.00    +0.000 OA
ATOM     29  C   UNL     1       4.386   5.916  18.218  0.00  0.00    +0.000 A 
ENDBRANCH  22  25
ENDBRANCH   9  19
BRANCH   6  30
ATOM     30  C   UNL     1      -1.594  14.291  22.068  0.00  0.00    +0.000 C 
ATOM     31  C   UNL     1      -0.880  13.484  23.169  0.00  0.00    +0.000 C 
ATOM     32  C   UNL     1      -0.716  15.507  21.713  0.00  0.00    +0.000 C 
ATOM     33  C   UNL     1      -2.923  14.796  22.649  0.00  0.00    +0.000 C 
ENDBRANCH   6  30
TORSDOF 5
ENDMDL
MODEL 6
REMARK VINA RESULT:      -6.5      1.376      1.671
REMARK  Name = 
REMARK  9 active torsions:
REMARK  status: ('A' for Active; 'I' for Inactive)
REMARK    1  A    between atoms: C_1  and  O_2
REMARK    2  A    between atoms: O_2  and  C_3
REMARK    3  A    between atoms: C_8  and  C_9
REMARK    4  A    between atoms: C_14  and  C_15
REMARK    5  A    between atoms: C_15  and  C_16
REMARK    6  A    between atoms: C_15  and  C_17
REMARK    7  A    between atoms: C_15  and  C_18
REMARK    8  A    between atoms: N_21  and  C_22
REMARK    9  A    between atoms: C_25  and  C_26
REMARK                            x       y       z     vdW  Elec       q    Type
REMARK                         _______ _______ _______ _____ _____    ______ ____
ROOT
ATOM      1  C   UNL     1      -0.611  12.710  20.630  0.00  0.00    +0.000 C 
ATOM      2  C   UNL     1      -1.978  13.239  20.863  0.00  0.00    +0.000 A 
ATOM      3  C   UNL     1      -2.875  12.636  19.987  0.00  0.00    +0.000 A 
ATOM      4  N   UNL     1      -4.125  13.058  20.149  0.00  0.00    +0.000 NA
ATOM      5  N   UNL     1      -4.013  13.895  21.209  0.00  0.00    +0.000 N 
ATOM      6  C   UNL     1      -2.730  14.000  21.726  0.00  0.00    +0.000 A 
ATOM      7  C   UNL     1      -2.227  11.616  19.182  0.00  0.00    +0.000 C 
ATOM      8  O   UNL     1      -2.747  10.941  18.317  0.00  0.00    +0.000 OA
ATOM      9  N   UNL     1      -0.903  11.575  19.707  0.00  0.00    +0.000 N 
ATOM     10  H   UNL     1      -4.865  14.318  21.559  0.00  0.00    +0.000 HD
ENDROOT
BRANCH   1  16
ATOM     11  C   UNL     1       1.530  13.982  20.123  0.00  0.00    +0.000 A 
ATOM     12  N   UNL     1       2.278  14.926  19.502  0.00  0.00    +0.000 NA
ATOM     13  C   UNL     1       1.641  15.781  18.678  0.00  0.00    +0.000 A 
ATOM     14  C   UNL     1       0.285  15.731  18.435  0.00  0.00    +0.000 A 
ATOM     15  C   UNL     1      -0.454  14.730  19.055  0.00  0.00    +0.000 A 
ATOM     16  C   UNL     1       0.161  13.812  19.930  0.00  0.00    +0.000 A 
BRANCH  11  18
ATOM     17  C   UNL     1       3.409  13.736  21.460  0.00  0.00    +0.000 C 
ATOM     18  O   UNL     1       2.167  13.166  21.037  0.00  0.00    +0.000 OA
ENDBRANCH  11  18
ENDBRANCH   1  16
BRANCH   9  19
ATOM     19  C   UNL     1       0.044  10.552  19.451  0.00  0.00    +0.000 A 
ATOM     20  C   UNL     1       0.529  10.312  18.162  0.00  0.00    +0.000 A 
ATOM     21  C   UNL     1       1.426   9.266  17.909  0.00  0.00    +0.000 A 
ATOM     22  C   UNL     1       1.844   8.419  18.938  0.00  0.00    +0.000 A 
ATOM     23  C   UNL     1       1.365   8.652  20.228  0.00  0.00    +0.000 A 
ATOM     24  C   UNL     1       0.493   9.716  20.484  0.00  0.00    +0.000 A 
BRANCH  22  25
ATOM     25  C   UNL     1       2.773   7.339  18.665  0.00  0.00    +0.000 A 
ATOM     26  C   UNL     1       3.636   7.134  17.553  0.00  0.00    +0.000 A 
ATOM     27  C   UNL     1       4.312   5.962  17.795  0.00  0.00    +0.000 A 
ATOM     28  O   UNL     1       3.914   5.419  18.973  0.00  0.00    +0.000 OA
ATOM     29  C   UNL     1       2.980   6.254  19.494  0.00  0.00    +0.000 A 
ENDBRANCH  22  25
ENDBRANCH   9  19
BRANCH   6  30
ATOM     30  C   UNL     1      -2.388  14.749  22.998  0.00  0.00    +0.000 C 
ATOM     31  C   UNL     1      -3.616  14.914  23.912  0.00  0.00    +0.000 C 
ATOM     32  C   UNL     1      -1.303  13.981  23.779  0.00  0.00    +0.000 C 
ATOM     33  C   UNL     1      -1.859  16.153  22.671  0.00  0.00    +0.000 C 
ENDBRANCH   6  30
TORSDOF 5
ENDMDL
MODEL 7
REMARK VINA RESULT:      -6.5      0.369      1.227
REMARK  Name = 
REMARK  9 active torsions:
REMARK  status: ('A' for Active; 'I' for Inactive)
REMARK    1  A    between atoms: C_1  and  O_2
REMARK    2  A    between atoms: O_2  and  C_3
REMARK    3  A    between atoms: C_8  and  C_9
REMARK    4  A    between atoms: C_14  and  C_15
REMARK    5  A    between atoms: C_15  and  C_16
REMARK    6  A    between atoms: C_15  and  C_17
REMARK    7  A    between atoms: C_15  and  C_18
REMARK    8  A    between atoms: N_21  and  C_22
REMARK    9  A    between atoms: C_25  and  C_26
REMARK                            x       y       z     vdW  Elec       q    Type
REMARK                         _______ _______ _______ _____ _____    ______ ____
ROOT
ATOM      1  C   UNL     1       0.356  11.983  20.208  0.00  0.00    +0.000 C 
ATOM      2  C   UNL     1      -0.932  12.719  20.274  0.00  0.00    +0.000 A 
ATOM      3  C   UNL     1      -1.843  12.163  19.381  0.00  0.00    +0.000 A 
ATOM      4  N   UNL     1      -3.025  12.770  19.398  0.00  0.00    +0.000 NA
ATOM      5  N   UNL     1      -2.868  13.684  20.386  0.00  0.00    +0.000 N 
ATOM      6  C   UNL     1      -1.624  13.660  21.000  0.00  0.00    +0.000 A 
ATOM      7  C   UNL     1      -1.295  10.988  18.728  0.00  0.00    +0.000 C 
ATOM      8  O   UNL     1      -1.846  10.309  17.884  0.00  0.00    +0.000 OA
ATOM      9  N   UNL     1      -0.034  10.814  19.367  0.00  0.00    +0.000 N 
ATOM     10  H   UNL     1      -3.671  14.254  20.623  0.00  0.00    +0.000 HD
ENDROOT
BRANCH   1  16
ATOM     11  C   UNL     1       2.456  13.410  20.115  0.00  0.00    +0.000 A 
ATOM     12  N   UNL     1       3.378  14.199  19.511  0.00  0.00    +0.000 NA
ATOM     13  C   UNL     1       3.160  14.535  18.224  0.00  0.00    +0.000 A 
ATOM     14  C   UNL     1       2.064  14.109  17.504  0.00  0.00    +0.000 A 
ATOM     15  C   UNL     1       1.154  13.270  18.136  0.00  0.00    +0.000 A 
ATOM     16  C   UNL     1       1.330  12.891  19.482  0.00  0.00    +0.000 A 
BRANCH  11  18
ATOM     17  C   UNL     1       3.703  13.918  22.004  0.00  0.00    +0.000 C 
ATOM     18  O   UNL     1       2.632  13.142  21.458  0.00  0.00    +0.000 OA
ENDBRANCH  11  18
ENDBRANCH   1  16
BRANCH   9  19
ATOM     19  C   UNL     1       0.768   9.648  19.284  0.00  0.00    +0.000 A 
ATOM     20  C   UNL     1       1.009   8.846  20.403  0.00  0.00    +0.000 A 
ATOM     21  C   UNL     1       1.845   7.724  20.323  0.00  0.00    +0.000 A 
ATOM     22  C   UNL     1       2.478   7.388  19.125  0.00  0.00    +0.000 A 
ATOM     23  C   UNL     1       2.243   8.183  18.002  0.00  0.00    +0.000 A 
ATOM     24  C   UNL     1       1.384   9.286  18.076  0.00  0.00    +0.000 A 
BRANCH  22  25
ATOM     25  C   UNL     1       3.341   6.224  19.054  0.00  0.00    +0.000 A 
ATOM     26  C   UNL     1       4.420   5.939  18.172  0.00  0.00    +0.000 A 
ATOM     27  C   UNL     1       4.907   4.707  18.540  0.00  0.00    +0.000 A 
ATOM     28  O   UNL     1       4.194   4.204  19.578  0.00  0.00    +0.000 OA
ATOM     29  C   UNL     1       3.243   5.125  19.883  0.00  0.00    +0.000 A 
ENDBRANCH  22  25
ENDBRANCH   9  19
BRANCH   6  30
ATOM     30  C   UNL     1      -1.268  14.476  22.225  0.00  0.00    +0.000 C 
ATOM     31  C   UNL     1       0.031  15.278  22.020  0.00  0.00    +0.000 C 
ATOM     32  C   UNL     1      -2.405  15.470  22.538  0.00  0.00    +0.000 C 
ATOM     33  C   UNL     1      -1.064  13.562  23.442  0.00  0.00    +0.000 C 
ENDBRANCH   6  30
TORSDOF 5
ENDMDL
MODEL 8
REMARK VINA RESULT:      -6.5      2.561      6.560
REMARK  Name = 
REMARK  9 active torsions:
REMARK  status: ('A' for Active; 'I' for Inactive)
REMARK    1  A    between atoms: C_1  and  O_2
REMARK    2  A    between atoms: O_2  and  C_3
REMARK    3  A    between atoms: C_8  and  C_9
REMARK    4  A    between atoms: C_14  and  C_15
REMARK    5  A    between atoms: C_15  and  C_16
REMARK    6  A    between atoms: C_15  and  C_17
REMARK    7  A    between atoms: C_15  and  C_18
REMARK    8  A    between atoms: N_21  and  C_22
REMARK    9  A    between atoms: C_25  and  C_26
REMARK                            x       y       z     vdW  Elec       q    Type
REMARK                         _______ _______ _______ _____ _____    ______ ____
ROOT
ATOM      1  C   UNL     1      -0.305  11.926  19.171  0.00  0.00    +0.000 C 
ATOM      2  C   UNL     1      -1.787  11.993  19.213  0.00  0.00    +0.000 A 
ATOM      3  C   UNL     1      -2.192  13.020  20.059  0.00  0.00    +0.000 A 
ATOM      4  N   UNL     1      -3.513  13.144  20.134  0.00  0.00    +0.000 NA
ATOM      5  N   UNL     1      -3.942  12.212  19.249  0.00  0.00    +0.000 N 
ATOM      6  C   UNL     1      -2.926  11.515  18.610  0.00  0.00    +0.000 A 
ATOM      7  C   UNL     1      -1.056  13.767  20.568  0.00  0.00    +0.000 C 
ATOM      8  O   UNL     1      -1.095  14.700  21.345  0.00  0.00    +0.000 OA
ATOM      9  N   UNL     1       0.052  13.185  19.888  0.00  0.00    +0.000 N 
ATOM     10  H   UNL     1      -4.941  12.144  19.093  0.00  0.00    +0.000 HD
ENDROOT
BRANCH   1  16
ATOM     11  C   UNL     1       0.990   9.760  19.473  0.00  0.00    +0.000 A 
ATOM     12  N   UNL     1       1.405   8.663  20.152  0.00  0.00    +0.000 NA
ATOM     13  C   UNL     1       0.874   8.450  21.372  0.00  0.00    +0.000 A 
ATOM     14  C   UNL     1      -0.050   9.291  21.955  0.00  0.00    +0.000 A 
ATOM     15  C   UNL     1      -0.431  10.429  21.253  0.00  0.00    +0.000 A 
ATOM     16  C   UNL     1       0.090  10.699  19.971  0.00  0.00    +0.000 A 
BRANCH  11  18
ATOM     17  C   UNL     1       2.142   8.755  17.729  0.00  0.00    +0.000 C 
ATOM     18  O   UNL     1       1.465   9.928  18.188  0.00  0.00    +0.000 OA
ENDBRANCH  11  18
ENDBRANCH   1  16
BRANCH   9  19
ATOM     19  C   UNL     1       1.355  13.741  19.826  0.00  0.00    +0.000 A 
ATOM     20  C   UNL     1       1.833  14.353  18.664  0.00  0.00    +0.000 A 
ATOM     21  C   UNL     1       3.140  14.854  18.595  0.00  0.00    +0.000 A 
ATOM     22  C   UNL     1       4.009  14.736  19.683  0.00  0.00    +0.000 A 
ATOM     23  C   UNL     1       3.539  14.127  20.847  0.00  0.00    +0.000 A 
ATOM     24  C   UNL     1       2.224  13.654  20.924  0.00  0.00    +0.000 A 
BRANCH  22  25
ATOM     25  C   UNL     1       5.359  15.258  19.600  0.00  0.00    +0.000 A 
ATOM     26  C   UNL     1       5.991  16.000  18.564  0.00  0.00    +0.000 A 
ATOM     27  C   UNL     1       7.272  16.256  18.994  0.00  0.00    +0.000 A 
ATOM     28  O   UNL     1       7.480  15.710  20.218  0.00  0.00    +0.000 OA
ATOM     29  C   UNL     1       6.321  15.103  20.579  0.00  0.00    +0.000 A 
ENDBRANCH  22  25
ENDBRANCH   9  19
BRANCH   6  30
ATOM     30  C   UNL     1      -3.154  10.540  17.473  0.00  0.00    +0.000 C 
ATOM     31  C   UNL     1      -1.826  10.058  16.859  0.00  0.00    +0.000 C 
ATOM     32  C   UNL     1      -3.923   9.307  17.990  0.00  0.00    +0.000 C 
ATOM     33  C   UNL     1      -3.973  11.197  16.353  0.00  0.00    +0.000 C 
ENDBRANCH   6  30
TORSDOF 5
ENDMDL
MODEL 9
REMARK VINA RESULT:      -6.5      1.310      1.681
REMARK  Name = 
REMARK  9 active torsions:
REMARK  status: ('A' for Active; 'I' for Inactive)
REMARK    1  A    between atoms: C_1  and  O_2
REMARK    2  A    between atoms: O_2  and  C_3
REMARK    3  A    between atoms: C_8  and  C_9
REMARK    4  A    between atoms: C_14  and  C_15
REMARK    5  A    between atoms: C_15  and  C_16
REMARK    6  A    between atoms: C_15  and  C_17
REMARK    7  A    between atoms: C_15  and  C_18
REMARK    8  A    between atoms: N_21  and  C_22
REMARK    9  A    between atoms: C_25  and  C_26
REMARK                            x       y       z     vdW  Elec       q    Type
REMARK                         _______ _______ _______ _____ _____    ______ ____
ROOT
ATOM      1  C   UNL     1      -0.469  12.404  20.467  0.00  0.00    +0.000 C 
ATOM      2  C   UNL     1      -1.851  12.909  20.661  0.00  0.00    +0.000 A 
ATOM      3  C   UNL     1      -2.716  12.281  19.769  0.00  0.00    +0.000 A 
ATOM      4  N   UNL     1      -3.977  12.681  19.896  0.00  0.00    +0.000 NA
ATOM      5  N   UNL     1      -3.906  13.529  20.951  0.00  0.00    +0.000 N 
ATOM      6  C   UNL     1      -2.639  13.663  21.498  0.00  0.00    +0.000 A 
ATOM      7  C   UNL     1      -2.028  11.267  18.990  0.00  0.00    +0.000 C 
ATOM      8  O   UNL     1      -2.515  10.574  18.119  0.00  0.00    +0.000 OA
ATOM      9  N   UNL     1      -0.718  11.255  19.548  0.00  0.00    +0.000 N 
ATOM     10  H   UNL     1      -4.774  13.939  21.276  0.00  0.00    +0.000 HD
ENDROOT
BRANCH   1  16
ATOM     11  C   UNL     1       1.637  13.766  20.065  0.00  0.00    +0.000 A 
ATOM     12  N   UNL     1       2.384  14.722  19.459  0.00  0.00    +0.000 NA
ATOM     13  C   UNL     1       1.772  15.503  18.547  0.00  0.00    +0.000 A 
ATOM     14  C   UNL     1       0.443  15.369  18.203  0.00  0.00    +0.000 A 
ATOM     15  C   UNL     1      -0.290  14.357  18.813  0.00  0.00    +0.000 A 
ATOM     16  C   UNL     1       0.299  13.513  19.776  0.00  0.00    +0.000 A 
BRANCH  11  18
ATOM     17  C   UNL     1       3.441  13.658  21.519  0.00  0.00    +0.000 C 
ATOM     18  O   UNL     1       2.241  13.028  21.063  0.00  0.00    +0.000 OA
ENDBRANCH  11  18
ENDBRANCH   1  16
BRANCH   9  19
ATOM     19  C   UNL     1       0.255  10.248  19.325  0.00  0.00    +0.000 A 
ATOM     20  C   UNL     1       0.852  10.075  18.073  0.00  0.00    +0.000 A 
ATOM     21  C   UNL     1       1.775   9.044  17.848  0.00  0.00    +0.000 A 
ATOM     22  C   UNL     1       2.106   8.147  18.865  0.00  0.00    +0.000 A 
ATOM     23  C   UNL     1       1.514   8.312  20.118  0.00  0.00    +0.000 A 
ATOM     24  C   UNL     1       0.616   9.361  20.350  0.00  0.00    +0.000 A 
BRANCH  22  25
ATOM     25  C   UNL     1       3.062   7.084  18.621  0.00  0.00    +0.000 A 
ATOM     26  C   UNL     1       3.361   5.927  19.393  0.00  0.00    +0.000 A 
ATOM     27  C   UNL     1       4.336   5.242  18.708  0.00  0.00    +0.000 A 
ATOM     28  O   UNL     1       4.672   5.904  17.572  0.00  0.00    +0.000 OA
ATOM     29  C   UNL     1       3.902   7.021  17.527  0.00  0.00    +0.000 A 
ENDBRANCH  22  25
ENDBRANCH   9  19
BRANCH   6  30
ATOM     30  C   UNL     1      -2.343  14.430  22.771  0.00  0.00    +0.000 C 
ATOM     31  C   UNL     1      -1.576  15.735  22.486  0.00  0.00    +0.000 C 
ATOM     32  C   UNL     1      -3.663  14.790  23.482  0.00  0.00    +0.000 C 
ATOM     33  C   UNL     1      -1.485  13.584  23.723  0.00  0.00    +0.000 C 
ENDBRANCH   6  30
TORSDOF 5
ENDMDL
