MODEL 1
REMARK VINA RESULT:      -7.5      0.000      0.000
REMARK  Name = 
REMARK  4 active torsions:
REMARK  status: ('A' for Active; 'I' for Inactive)
REMARK    1  A    between atoms: C_1  and  C_2
REMARK    2  A    between atoms: C_4  and  C_5
REMARK    3  A    between atoms: N_7  and  C_8
REMARK    4  A    between atoms: C_14  and  O_15
REMARK                            x       y       z     vdW  Elec       q    Type
REMARK                         _______ _______ _______ _____ _____    ______ ____
ROOT
ATOM      1  C   UNL     1       5.854   4.395  17.130  0.00  0.00    +0.000 C 
ATOM      2  O   UNL     1       6.564   4.417  18.132  0.00  0.00    +0.000 OA
ATOM      3  N   UNL     1       4.494   4.154  17.119  0.00  0.00    +0.000 N 
ATOM      4  H   UNL     1       4.056   4.017  16.209  0.00  0.00    +0.000 HD
ENDROOT
BRANCH   3   5
ATOM      5  C   UNL     1       3.661   3.971  18.245  0.00  0.00    +0.000 A 
ATOM      6  C   UNL     1       3.057   5.029  18.929  0.00  0.00    +0.000 A 
ATOM      7  C   UNL     1       2.254   4.781  20.043  0.00  0.00    +0.000 A 
ATOM      8 CL   UNL     1       1.509   6.097  20.864  0.00  0.00    +0.000 Cl
ATOM      9  C   UNL     1       2.044   3.479  20.492  0.00  0.00    +0.000 A 
ATOM     10  C   UNL     1       2.627   2.410  19.810  0.00  0.00    +0.000 A 
ATOM     11  C   UNL     1       3.419   2.661  18.686  0.00  0.00    +0.000 A 
BRANCH  11  12
ATOM     12  O   UNL     1       3.990   1.619  18.002  0.00  0.00    +0.000 OA
ATOM     13  H   UNL     1       3.410   1.378  17.260  0.00  0.00    +0.000 HD
ENDBRANCH  11  12
ENDBRANCH   3   5
BRANCH   1  17
ATOM     14  C   UNL     1       7.086   4.187  12.216  0.00  0.00    +0.000 C 
ATOM     15  C   UNL     1       6.920   4.436  13.658  0.00  0.00    +0.000 A 
ATOM     16  C   UNL     1       6.083   3.932  14.617  0.00  0.00    +0.000 A 
ATOM     17  C   UNL     1       6.452   4.607  15.808  0.00  0.00    +0.000 A 
ATOM     18  N   UNL     1       7.449   5.477  15.577  0.00  0.00    +0.000 NA
ATOM     19  O   UNL     1       7.744   5.358  14.226  0.00  0.00    +0.000 OA
ENDBRANCH   1  17
TORSDOF 3
ENDMDL
MODEL 2
REMARK VINA RESULT:      -7.3      1.559      2.195
REMARK  Name = 
REMARK  4 active torsions:
REMARK  status: ('A' for Active; 'I' for Inactive)
REMARK    1  A    between atoms: C_1  and  C_2
REMARK    2  A    between atoms: C_4  and  C_5
REMARK    3  A    between atoms: N_7  and  C_8
REMARK    4  A    between atoms: C_14  and  O_15
REMARK                            x       y       z     vdW  Elec       q    Type
REMARK                         _______ _______ _______ _____ _____    ______ ____
ROOT
ATOM      1  C   UNL     1       5.740   4.728  17.423  0.00  0.00    +0.000 C 
ATOM      2  O   UNL     1       6.468   4.553  18.397  0.00  0.00    +0.000 OA
ATOM      3  N   UNL     1       4.367   4.868  17.466  0.00  0.00    +0.000 N 
ATOM      4  H   UNL     1       3.874   4.859  16.574  0.00  0.00    +0.000 HD
ENDROOT
BRANCH   3   5
ATOM      5  C   UNL     1       3.560   4.917  18.624  0.00  0.00    +0.000 A 
ATOM      6  C   UNL     1       3.339   3.811  19.449  0.00  0.00    +0.000 A 
ATOM      7  C   UNL     1       2.522   3.923  20.574  0.00  0.00    +0.000 A 
ATOM      8 CL   UNL     1       2.272   2.551  21.584  0.00  0.00    +0.000 Cl
ATOM      9  C   UNL     1       1.912   5.134  20.892  0.00  0.00    +0.000 A 
ATOM     10  C   UNL     1       2.136   6.253  20.088  0.00  0.00    +0.000 A 
ATOM     11  C   UNL     1       2.967   6.141  18.969  0.00  0.00    +0.000 A 
BRANCH  11  12
ATOM     12  O   UNL     1       3.202   7.234  18.177  0.00  0.00    +0.000 OA
ATOM     13  H   UNL     1       2.502   7.890  18.334  0.00  0.00    +0.000 HD
ENDBRANCH  11  12
ENDBRANCH   3   5
BRANCH   1  17
ATOM     14  C   UNL     1       6.840   3.980  12.531  0.00  0.00    +0.000 C 
ATOM     15  C   UNL     1       6.727   4.371  13.946  0.00  0.00    +0.000 A 
ATOM     16  C   UNL     1       5.876   4.023  14.961  0.00  0.00    +0.000 A 
ATOM     17  C   UNL     1       6.323   4.772  16.078  0.00  0.00    +0.000 A 
ATOM     18  N   UNL     1       7.377   5.538  15.752  0.00  0.00    +0.000 NA
ATOM     19  O   UNL     1       7.631   5.274  14.413  0.00  0.00    +0.000 OA
ENDBRANCH   1  17
TORSDOF 3
ENDMDL
MODEL 3
REMARK VINA RESULT:      -7.1      1.722      1.842
REMARK  Name = 
REMARK  4 active torsions:
REMARK  status: ('A' for Active; 'I' for Inactive)
REMARK    1  A    between atoms: C_1  and  C_2
REMARK    2  A    between atoms: C_4  and  C_5
REMARK    3  A    between atoms: N_7  and  C_8
REMARK    4  A    between atoms: C_14  and  O_15
REMARK                            x       y       z     vdW  Elec       q    Type
REMARK                         _______ _______ _______ _____ _____    ______ ____
ROOT
ATOM      1  C   UNL     1       5.356   4.819  16.555  0.00  0.00    +0.000 C 
ATOM      2  O   UNL     1       5.179   5.836  17.219  0.00  0.00    +0.000 OA
ATOM      3  N   UNL     1       4.868   3.565  16.866  0.00  0.00    +0.000 N 
ATOM      4  H   UNL     1       5.213   2.783  16.311  0.00  0.00    +0.000 HD
ENDROOT
BRANCH   3   5
ATOM      5  C   UNL     1       4.018   3.236  17.945  0.00  0.00    +0.000 A 
ATOM      6  C   UNL     1       2.685   2.853  17.780  0.00  0.00    +0.000 A 
ATOM      7  C   UNL     1       1.895   2.551  18.890  0.00  0.00    +0.000 A 
ATOM      8 CL   UNL     1       0.258   2.069  18.663  0.00  0.00    +0.000 Cl
ATOM      9  C   UNL     1       2.420   2.630  20.177  0.00  0.00    +0.000 A 
ATOM     10  C   UNL     1       3.754   2.995  20.360  0.00  0.00    +0.000 A 
ATOM     11  C   UNL     1       4.547   3.283  19.245  0.00  0.00    +0.000 A 
BRANCH  11  12
ATOM     12  O   UNL     1       5.861   3.634  19.409  0.00  0.00    +0.000 OA
ATOM     13  H   UNL     1       6.416   3.001  18.922  0.00  0.00    +0.000 HD
ENDBRANCH  11  12
ENDBRANCH   3   5
BRANCH   1  17
ATOM     14  C   UNL     1       7.276   4.176  11.906  0.00  0.00    +0.000 C 
ATOM     15  C   UNL     1       6.930   4.526  13.294  0.00  0.00    +0.000 A 
ATOM     16  C   UNL     1       5.897   4.189  14.128  0.00  0.00    +0.000 A 
ATOM     17  C   UNL     1       6.170   4.877  15.336  0.00  0.00    +0.000 A 
ATOM     18  N   UNL     1       7.298   5.599  15.233  0.00  0.00    +0.000 NA
ATOM     19  O   UNL     1       7.775   5.367  13.950  0.00  0.00    +0.000 OA
ENDBRANCH   1  17
TORSDOF 3
ENDMDL
MODEL 4
REMARK VINA RESULT:      -6.9      1.537      1.865
REMARK  Name = 
REMARK  4 active torsions:
REMARK  status: ('A' for Active; 'I' for Inactive)
REMARK    1  A    between atoms: C_1  and  C_2
REMARK    2  A    between atoms: C_4  and  C_5
REMARK    3  A    between atoms: N_7  and  C_8
REMARK    4  A    between atoms: C_14  and  O_15
REMARK                            x       y       z     vdW  Elec       q    Type
REMARK                         _______ _______ _______ _____ _____    ______ ____
ROOT
ATOM      1  C   UNL     1       5.584   5.773  17.236  0.00  0.00    +0.000 C 
ATOM      2  O   UNL     1       6.288   6.231  18.132  0.00  0.00    +0.000 OA
ATOM      3  N   UNL     1       4.227   5.531  17.329  0.00  0.00    +0.000 N 
ATOM      4  H   UNL     1       3.797   5.013  16.564  0.00  0.00    +0.000 HD
ENDROOT
BRANCH   3   5
ATOM      5  C   UNL     1       3.391   5.834  18.426  0.00  0.00    +0.000 A 
ATOM      6  C   UNL     1       2.838   7.099  18.639  0.00  0.00    +0.000 A 
ATOM      7  C   UNL     1       2.027   7.336  19.750  0.00  0.00    +0.000 A 
ATOM      8 CL   UNL     1       1.346   8.899  19.987  0.00  0.00    +0.000 Cl
ATOM      9  C   UNL     1       1.759   6.320  20.663  0.00  0.00    +0.000 A 
ATOM     10  C   UNL     1       2.290   5.046  20.456  0.00  0.00    +0.000 A 
ATOM     11  C   UNL     1       3.090   4.808  19.335  0.00  0.00    +0.000 A 
BRANCH  11  12
ATOM     12  O   UNL     1       3.610   3.559  19.115  0.00  0.00    +0.000 OA
ATOM     13  H   UNL     1       4.029   3.247  19.934  0.00  0.00    +0.000 HD
ENDBRANCH  11  12
ENDBRANCH   3   5
BRANCH   1  17
ATOM     14  C   UNL     1       6.592   3.790  12.680  0.00  0.00    +0.000 C 
ATOM     15  C   UNL     1       6.538   4.489  13.975  0.00  0.00    +0.000 A 
ATOM     16  C   UNL     1       5.614   4.546  14.983  0.00  0.00    +0.000 A 
ATOM     17  C   UNL     1       6.188   5.410  15.950  0.00  0.00    +0.000 A 
ATOM     18  N   UNL     1       7.386   5.858  15.541  0.00  0.00    +0.000 NA
ATOM     19  O   UNL     1       7.604   5.268  14.303  0.00  0.00    +0.000 OA
ENDBRANCH   1  17
TORSDOF 3
ENDMDL
MODEL 5
REMARK VINA RESULT:      -6.8      1.544      2.203
REMARK  Name = 
REMARK  4 active torsions:
REMARK  status: ('A' for Active; 'I' for Inactive)
REMARK    1  A    between atoms: C_1  and  C_2
REMARK    2  A    between atoms: C_4  and  C_5
REMARK    3  A    between atoms: N_7  and  C_8
REMARK    4  A    between atoms: C_14  and  O_15
REMARK                            x       y       z     vdW  Elec       q    Type
REMARK                         _______ _______ _______ _____ _____    ______ ____
ROOT
ATOM      1  C   UNL     1       5.568   4.642  16.747  0.00  0.00    +0.000 C 
ATOM      2  O   UNL     1       6.180   4.294  17.753  0.00  0.00    +0.000 OA
ATOM      3  N   UNL     1       4.216   4.920  16.689  0.00  0.00    +0.000 N 
ATOM      4  H   UNL     1       3.810   5.052  15.764  0.00  0.00    +0.000 HD
ENDROOT
BRANCH   3   5
ATOM      5  C   UNL     1       3.312   4.936  17.775  0.00  0.00    +0.000 A 
ATOM      6  C   UNL     1       2.502   3.848  18.111  0.00  0.00    +0.000 A 
ATOM      7  C   UNL     1       1.621   3.933  19.190  0.00  0.00    +0.000 A 
ATOM      8 CL   UNL     1       0.640   2.578  19.594  0.00  0.00    +0.000 Cl
ATOM      9  C   UNL     1       1.533   5.099  19.945  0.00  0.00    +0.000 A 
ATOM     10  C   UNL     1       2.348   6.189  19.634  0.00  0.00    +0.000 A 
ATOM     11  C   UNL     1       3.239   6.096  18.561  0.00  0.00    +0.000 A 
BRANCH  11  12
ATOM     12  O   UNL     1       4.051   7.155  18.250  0.00  0.00    +0.000 OA
ATOM     13  H   UNL     1       3.830   7.900  18.834  0.00  0.00    +0.000 HD
ENDBRANCH  11  12
ENDBRANCH   3   5
BRANCH   1  17
ATOM     14  C   UNL     1       7.090   4.218  11.929  0.00  0.00    +0.000 C 
ATOM     15  C   UNL     1       6.861   4.504  13.355  0.00  0.00    +0.000 A 
ATOM     16  C   UNL     1       5.904   4.123  14.257  0.00  0.00    +0.000 A 
ATOM     17  C   UNL     1       6.276   4.760  15.468  0.00  0.00    +0.000 A 
ATOM     18  N   UNL     1       7.388   5.494  15.302  0.00  0.00    +0.000 NA
ATOM     19  O   UNL     1       7.756   5.322  13.974  0.00  0.00    +0.000 OA
ENDBRANCH   1  17
TORSDOF 3
ENDMDL
MODEL 6
REMARK VINA RESULT:      -6.6      1.790      2.057
REMARK  Name = 
REMARK  4 active torsions:
REMARK  status: ('A' for Active; 'I' for Inactive)
REMARK    1  A    between atoms: C_1  and  C_2
REMARK    2  A    between atoms: C_4  and  C_5
REMARK    3  A    between atoms: N_7  and  C_8
REMARK    4  A    between atoms: C_14  and  O_15
REMARK                            x       y       z     vdW  Elec       q    Type
REMARK                         _______ _______ _______ _____ _____    ______ ____
ROOT
ATOM      1  C   UNL     1       4.958   5.440  16.558  0.00  0.00    +0.000 C 
ATOM      2  O   UNL     1       4.491   6.544  16.821  0.00  0.00    +0.000 OA
ATOM      3  N   UNL     1       4.648   4.263  17.213  0.00  0.00    +0.000 N 
ATOM      4  H   UNL     1       5.218   3.448  16.992  0.00  0.00    +0.000 HD
ENDROOT
BRANCH   3   5
ATOM      5  C   UNL     1       3.691   4.097  18.238  0.00  0.00    +0.000 A 
ATOM      6  C   UNL     1       2.531   3.333  18.085  0.00  0.00    +0.000 A 
ATOM      7  C   UNL     1       1.620   3.219  19.135  0.00  0.00    +0.000 A 
ATOM      8 CL   UNL     1       0.203   2.262  18.930  0.00  0.00    +0.000 Cl
ATOM      9  C   UNL     1       1.847   3.864  20.348  0.00  0.00    +0.000 A 
ATOM     10  C   UNL     1       3.009   4.617  20.523  0.00  0.00    +0.000 A 
ATOM     11  C   UNL     1       3.927   4.719  19.474  0.00  0.00    +0.000 A 
BRANCH  11  12
ATOM     12  O   UNL     1       5.076   5.448  19.636  0.00  0.00    +0.000 OA
ATOM     13  H   UNL     1       5.831   4.837  19.675  0.00  0.00    +0.000 HD
ENDBRANCH  11  12
ENDBRANCH   3   5
BRANCH   1  17
ATOM     14  C   UNL     1       7.436   4.305  12.283  0.00  0.00    +0.000 C 
ATOM     15  C   UNL     1       6.947   4.755  13.596  0.00  0.00    +0.000 A 
ATOM     16  C   UNL     1       5.748   4.647  14.250  0.00  0.00    +0.000 A 
ATOM     17  C   UNL     1       5.953   5.305  15.489  0.00  0.00    +0.000 A 
ATOM     18  N   UNL     1       7.201   5.793  15.572  0.00  0.00    +0.000 NA
ATOM     19  O   UNL     1       7.823   5.436  14.383  0.00  0.00    +0.000 OA
ENDBRANCH   1  17
TORSDOF 3
ENDMDL
MODEL 7
REMARK VINA RESULT:      -6.5      2.828      3.540
REMARK  Name = 
REMARK  4 active torsions:
REMARK  status: ('A' for Active; 'I' for Inactive)
REMARK    1  A    between atoms: C_1  and  C_2
REMARK    2  A    between atoms: C_4  and  C_5
REMARK    3  A    between atoms: N_7  and  C_8
REMARK    4  A    between atoms: C_14  and  O_15
REMARK                            x       y       z     vdW  Elec       q    Type
REMARK                         _______ _______ _______ _____ _____    ______ ____
ROOT
ATOM      1  C   UNL     1       6.466   5.288  18.230  0.00  0.00    +0.000 C 
ATOM      2  O   UNL     1       7.197   4.309  18.351  0.00  0.00    +0.000 OA
ATOM      3  N   UNL     1       5.087   5.272  18.311  0.00  0.00    +0.000 N 
ATOM      4  H   UNL     1       4.598   6.125  18.045  0.00  0.00    +0.000 HD
ENDROOT
BRANCH   3   5
ATOM      5  C   UNL     1       4.274   4.159  18.623  0.00  0.00    +0.000 A 
ATOM      6  C   UNL     1       3.510   4.074  19.789  0.00  0.00    +0.000 A 
ATOM      7  C   UNL     1       2.737   2.941  20.043  0.00  0.00    +0.000 A 
ATOM      8 CL   UNL     1       1.793   2.860  21.481  0.00  0.00    +0.000 Cl
ATOM      9  C   UNL     1       2.716   1.878  19.143  0.00  0.00    +0.000 A 
ATOM     10  C   UNL     1       3.460   1.955  17.965  0.00  0.00    +0.000 A 
ATOM     11  C   UNL     1       4.223   3.097  17.707  0.00  0.00    +0.000 A 
BRANCH  11  12
ATOM     12  O   UNL     1       4.951   3.189  16.550  0.00  0.00    +0.000 OA
ATOM     13  H   UNL     1       4.479   3.770  15.929  0.00  0.00    +0.000 HD
ENDBRANCH  11  12
ENDBRANCH   3   5
BRANCH   1  17
ATOM     14  C   UNL     1       9.082   9.628  18.397  0.00  0.00    +0.000 C 
ATOM     15  C   UNL     1       8.225   8.464  18.116  0.00  0.00    +0.000 A 
ATOM     16  C   UNL     1       7.994   7.279  18.762  0.00  0.00    +0.000 A 
ATOM     17  C   UNL     1       7.050   6.603  17.948  0.00  0.00    +0.000 A 
ATOM     18  N   UNL     1       6.739   7.336  16.865  0.00  0.00    +0.000 NA
ATOM     19  O   UNL     1       7.474   8.507  16.982  0.00  0.00    +0.000 OA
ENDBRANCH   1  17
TORSDOF 3
ENDMDL
MODEL 8
REMARK VINA RESULT:      -6.4      1.267      1.334
REMARK  Name = 
REMARK  4 active torsions:
REMARK  status: ('A' for Active; 'I' for Inactive)
REMARK    1  A    between atoms: C_1  and  C_2
REMARK    2  A    between atoms: C_4  and  C_5
REMARK    3  A    between atoms: N_7  and  C_8
REMARK    4  A    between atoms: C_14  and  O_15
REMARK                            x       y       z     vdW  Elec       q    Type
REMARK                         _______ _______ _______ _____ _____    ______ ____
ROOT
ATOM      1  C   UNL     1       4.665   4.198  16.764  0.00  0.00    +0.000 C 
ATOM      2  O   UNL     1       3.648   3.674  16.319  0.00  0.00    +0.000 OA
ATOM      3  N   UNL     1       4.850   4.602  18.072  0.00  0.00    +0.000 N 
ATOM      4  H   UNL     1       5.682   5.156  18.271  0.00  0.00    +0.000 HD
ENDROOT
BRANCH   3   5
ATOM      5  C   UNL     1       3.952   4.417  19.146  0.00  0.00    +0.000 A 
ATOM      6  C   UNL     1       3.035   5.391  19.552  0.00  0.00    +0.000 A 
ATOM      7  C   UNL     1       2.182   5.149  20.629  0.00  0.00    +0.000 A 
ATOM      8 CL   UNL     1       1.051   6.356  21.105  0.00  0.00    +0.000 Cl
ATOM      9  C   UNL     1       2.230   3.939  21.316  0.00  0.00    +0.000 A 
ATOM     10  C   UNL     1       3.128   2.950  20.913  0.00  0.00    +0.000 A 
ATOM     11  C   UNL     1       3.972   3.189  19.825  0.00  0.00    +0.000 A 
BRANCH  11  12
ATOM     12  O   UNL     1       4.853   2.223  19.413  0.00  0.00    +0.000 OA
ATOM     13  H   UNL     1       4.904   2.242  18.443  0.00  0.00    +0.000 HD
ENDBRANCH  11  12
ENDBRANCH   3   5
BRANCH   1  17
ATOM     14  C   UNL     1       7.665   4.978  12.752  0.00  0.00    +0.000 C 
ATOM     15  C   UNL     1       7.019   4.787  14.061  0.00  0.00    +0.000 A 
ATOM     16  C   UNL     1       5.731   4.543  14.456  0.00  0.00    +0.000 A 
ATOM     17  C   UNL     1       5.796   4.468  15.870  0.00  0.00    +0.000 A 
ATOM     18  N   UNL     1       7.052   4.667  16.304  0.00  0.00    +0.000 NA
ATOM     19  O   UNL     1       7.817   4.858  15.161  0.00  0.00    +0.000 OA
ENDBRANCH   1  17
TORSDOF 3
ENDMDL
MODEL 9
REMARK VINA RESULT:      -6.4      4.990      7.708
REMARK  Name = 
REMARK  4 active torsions:
REMARK  status: ('A' for Active; 'I' for Inactive)
REMARK    1  A    between atoms: C_1  and  C_2
REMARK    2  A    between atoms: C_4  and  C_5
REMARK    3  A    between atoms: N_7  and  C_8
REMARK    4  A    between atoms: C_14  and  O_15
REMARK                            x       y       z     vdW  Elec       q    Type
REMARK                         _______ _______ _______ _____ _____    ______ ____
ROOT
ATOM      1  C   UNL     1       1.694   7.774  20.416  0.00  0.00    +0.000 C 
ATOM      2  O   UNL     1       1.913   8.203  19.286  0.00  0.00    +0.000 OA
ATOM      3  N   UNL     1       1.924   6.479  20.839  0.00  0.00    +0.000 N 
ATOM      4  H   UNL     1       1.560   6.221  21.755  0.00  0.00    +0.000 HD
ENDROOT
BRANCH   3   5
ATOM      5  C   UNL     1       2.521   5.442  20.089  0.00  0.00    +0.000 A 
ATOM      6  C   UNL     1       3.812   5.526  19.559  0.00  0.00    +0.000 A 
ATOM      7  C   UNL     1       4.339   4.469  18.817  0.00  0.00    +0.000 A 
ATOM      8 CL   UNL     1       5.935   4.588  18.183  0.00  0.00    +0.000 Cl
ATOM      9  C   UNL     1       3.590   3.317  18.590  0.00  0.00    +0.000 A 
ATOM     10  C   UNL     1       2.306   3.210  19.126  0.00  0.00    +0.000 A 
ATOM     11  C   UNL     1       1.786   4.265  19.881  0.00  0.00    +0.000 A 
BRANCH  11  12
ATOM     12  O   UNL     1       0.530   4.169  20.421  0.00  0.00    +0.000 OA
ATOM     13  H   UNL     1       0.591   4.313  21.380  0.00  0.00    +0.000 HD
ENDBRANCH  11  12
ENDBRANCH   3   5
BRANCH   1  17
ATOM     14  C   UNL     1      -1.345  10.793  23.128  0.00  0.00    +0.000 C 
ATOM     15  C   UNL     1      -0.282   9.965  22.535  0.00  0.00    +0.000 A 
ATOM     16  C   UNL     1      -0.203   9.186  21.412  0.00  0.00    +0.000 A 
ATOM     17  C   UNL     1       1.113   8.659  21.431  0.00  0.00    +0.000 A 
ATOM     18  N   UNL     1       1.786   9.088  22.512  0.00  0.00    +0.000 NA
ATOM     19  O   UNL     1       0.906   9.916  23.196  0.00  0.00    +0.000 OA
ENDBRANCH   1  17
TORSDOF 3
ENDMDL
