MODEL 1
REMARK VINA RESULT:      -7.8      0.000      0.000
REMARK  Name = 
REMARK  6 active torsions:
REMARK  status: ('A' for Active; 'I' for Inactive)
REMARK    1  A    between atoms: C_1  and  O_2
REMARK    2  A    between atoms: O_2  and  C_3
REMARK    3  A    between atoms: N_5  and  N_6
REMARK    4  A    between atoms: N_10  and  N_11
REMARK    5  A    between atoms: C_12  and  O_14
REMARK    6  A    between atoms: O_14  and  C_15
REMARK                            x       y       z     vdW  Elec       q    Type
REMARK                         _______ _______ _______ _____ _____    ______ ____
ROOT
ATOM      1  N   UNL     1       4.832   5.781  17.069  0.00  0.00    +0.000 NA
ATOM      2  C   UNL     1       3.845   5.610  17.895  0.00  0.00    +0.000 C 
ATOM      3  C   UNL     1       3.429   6.733  18.840  0.00  0.00    +0.000 C 
ATOM      4  C   UNL     1       2.302   6.134  19.638  0.00  0.00    +0.000 C 
ATOM      5  N   UNL     1       1.589   6.641  20.589  0.00  0.00    +0.000 NA
ATOM      6  C   UNL     1       2.088   4.765  19.174  0.00  0.00    +0.000 A 
ATOM      7  C   UNL     1       1.161   3.860  19.669  0.00  0.00    +0.000 A 
ATOM      8  C   UNL     1       1.136   2.582  19.115  0.00  0.00    +0.000 A 
ATOM      9  C   UNL     1       2.044   2.231  18.105  0.00  0.00    +0.000 A 
ATOM     10  C   UNL     1       2.986   3.155  17.635  0.00  0.00    +0.000 A 
ATOM     11  C   UNL     1       2.985   4.439  18.160  0.00  0.00    +0.000 A 
ENDROOT
BRANCH   1  14
ATOM     12  C   UNL     1       6.261   4.706  15.461  0.00  0.00    +0.000 C 
ATOM     13  O   UNL     1       7.260   5.398  15.585  0.00  0.00    +0.000 OA
ATOM     14  N   UNL     1       5.077   4.815  16.148  0.00  0.00    +0.000 N 
ATOM     15  H   UNL     1       4.320   4.238  15.815  0.00  0.00    +0.000 HD
BRANCH  12  17
ATOM     16  C   UNL     1       6.350   3.944  13.239  0.00  0.00    +0.000 C 
ATOM     17  O   UNL     1       6.158   3.638  14.620  0.00  0.00    +0.000 OA
ENDBRANCH  12  17
ENDBRANCH   1  14
BRANCH   5  18
ATOM     18  N   UNL     1       1.823   7.915  20.999  0.00  0.00    +0.000 N 
ATOM     19  C   UNL     1       0.787   8.674  21.509  0.00  0.00    +0.000 C 
ATOM     20  O   UNL     1      -0.374   8.319  21.645  0.00  0.00    +0.000 OA
ATOM     21  H   UNL     1       2.741   8.333  20.951  0.00  0.00    +0.000 HD
BRANCH  19  22
ATOM     22  O   UNL     1       1.253   9.909  21.850  0.00  0.00    +0.000 OA
ATOM     23  C   UNL     1       0.823  10.949  20.966  0.00  0.00    +0.000 C 
ENDBRANCH  19  22
ENDBRANCH   5  18
TORSDOF 4
ENDMDL
MODEL 2
REMARK VINA RESULT:      -7.7      1.232      6.872
REMARK  Name = 
REMARK  6 active torsions:
REMARK  status: ('A' for Active; 'I' for Inactive)
REMARK    1  A    between atoms: C_1  and  O_2
REMARK    2  A    between atoms: O_2  and  C_3
REMARK    3  A    between atoms: N_5  and  N_6
REMARK    4  A    between atoms: N_10  and  N_11
REMARK    5  A    between atoms: C_12  and  O_14
REMARK    6  A    between atoms: O_14  and  C_15
REMARK                            x       y       z     vdW  Elec       q    Type
REMARK                         _______ _______ _______ _____ _____    ______ ____
ROOT
ATOM      1  N   UNL     1       2.554   7.467  19.458  0.00  0.00    +0.000 NA
ATOM      2  C   UNL     1       2.875   6.255  19.122  0.00  0.00    +0.000 C 
ATOM      3  C   UNL     1       3.902   6.007  18.023  0.00  0.00    +0.000 C 
ATOM      4  C   UNL     1       3.960   4.508  17.914  0.00  0.00    +0.000 C 
ATOM      5  N   UNL     1       4.658   3.752  17.132  0.00  0.00    +0.000 NA
ATOM      6  C   UNL     1       3.033   3.940  18.891  0.00  0.00    +0.000 A 
ATOM      7  C   UNL     1       2.768   2.594  19.094  0.00  0.00    +0.000 A 
ATOM      8  C   UNL     1       1.817   2.253  20.054  0.00  0.00    +0.000 A 
ATOM      9  C   UNL     1       1.142   3.255  20.767  0.00  0.00    +0.000 A 
ATOM     10  C   UNL     1       1.411   4.609  20.531  0.00  0.00    +0.000 A 
ATOM     11  C   UNL     1       2.385   4.947  19.602  0.00  0.00    +0.000 A 
ENDROOT
BRANCH   1  14
ATOM     12  C   UNL     1       1.030   8.794  20.762  0.00  0.00    +0.000 C 
ATOM     13  O   UNL     1       0.962   9.784  20.048  0.00  0.00    +0.000 OA
ATOM     14  N   UNL     1       1.748   7.647  20.536  0.00  0.00    +0.000 N 
ATOM     15  H   UNL     1       1.785   6.992  21.302  0.00  0.00    +0.000 HD
BRANCH  12  17
ATOM     16  C   UNL     1      -0.364   9.793  22.371  0.00  0.00    +0.000 C 
ATOM     17  O   UNL     1       0.343   8.633  21.928  0.00  0.00    +0.000 OA
ENDBRANCH  12  17
ENDBRANCH   1  14
BRANCH   5  18
ATOM     18  N   UNL     1       5.504   4.316  16.231  0.00  0.00    +0.000 N 
ATOM     19  C   UNL     1       6.818   4.560  16.580  0.00  0.00    +0.000 C 
ATOM     20  O   UNL     1       7.339   4.316  17.658  0.00  0.00    +0.000 OA
ATOM     21  H   UNL     1       5.206   4.561  15.297  0.00  0.00    +0.000 HD
BRANCH  19  22
ATOM     22  O   UNL     1       7.472   5.127  15.527  0.00  0.00    +0.000 OA
ATOM     23  C   UNL     1       6.884   4.827  14.257  0.00  0.00    +0.000 C 
ENDBRANCH  19  22
ENDBRANCH   5  18
TORSDOF 4
ENDMDL
MODEL 3
REMARK VINA RESULT:      -7.3      1.130      7.123
REMARK  Name = 
REMARK  6 active torsions:
REMARK  status: ('A' for Active; 'I' for Inactive)
REMARK    1  A    between atoms: C_1  and  O_2
REMARK    2  A    between atoms: O_2  and  C_3
REMARK    3  A    between atoms: N_5  and  N_6
REMARK    4  A    between atoms: N_10  and  N_11
REMARK    5  A    between atoms: C_12  and  O_14
REMARK    6  A    between atoms: O_14  and  C_15
REMARK                            x       y       z     vdW  Elec       q    Type
REMARK                         _______ _______ _______ _____ _____    ______ ____
ROOT
ATOM      1  N   UNL     1       2.876   7.321  19.315  0.00  0.00    +0.000 NA
ATOM      2  C   UNL     1       3.188   6.218  18.706  0.00  0.00    +0.000 C 
ATOM      3  C   UNL     1       4.369   6.179  17.743  0.00  0.00    +0.000 C 
ATOM      4  C   UNL     1       4.371   4.764  17.230  0.00  0.00    +0.000 C 
ATOM      5  N   UNL     1       5.151   4.184  16.378  0.00  0.00    +0.000 NA
ATOM      6  C   UNL     1       3.269   4.045  17.865  0.00  0.00    +0.000 A 
ATOM      7  C   UNL     1       2.908   2.724  17.645  0.00  0.00    +0.000 A 
ATOM      8  C   UNL     1       1.796   2.229  18.323  0.00  0.00    +0.000 A 
ATOM      9  C   UNL     1       1.063   3.061  19.181  0.00  0.00    +0.000 A 
ATOM     10  C   UNL     1       1.433   4.399  19.372  0.00  0.00    +0.000 A 
ATOM     11  C   UNL     1       2.562   4.881  18.726  0.00  0.00    +0.000 A 
ENDROOT
BRANCH   1  14
ATOM     12  C   UNL     1       1.162   8.369  20.638  0.00  0.00    +0.000 C 
ATOM     13  O   UNL     1       1.200   9.494  20.162  0.00  0.00    +0.000 OA
ATOM     14  N   UNL     1       1.913   7.280  20.271  0.00  0.00    +0.000 N 
ATOM     15  H   UNL     1       1.835   6.470  20.867  0.00  0.00    +0.000 HD
BRANCH  12  17
ATOM     16  C   UNL     1      -0.381   9.038  22.281  0.00  0.00    +0.000 C 
ATOM     17  O   UNL     1       0.305   7.973  21.621  0.00  0.00    +0.000 OA
ENDBRANCH  12  17
ENDBRANCH   1  14
BRANCH   5  18
ATOM     18  N   UNL     1       6.161   4.887  15.803  0.00  0.00    +0.000 N 
ATOM     19  C   UNL     1       6.608   4.541  14.542  0.00  0.00    +0.000 C 
ATOM     20  O   UNL     1       6.181   3.633  13.845  0.00  0.00    +0.000 OA
ATOM     21  H   UNL     1       6.599   5.670  16.266  0.00  0.00    +0.000 HD
BRANCH  19  22
ATOM     22  O   UNL     1       7.619   5.377  14.173  0.00  0.00    +0.000 OA
ATOM     23  C   UNL     1       7.930   5.320  12.776  0.00  0.00    +0.000 C 
ENDBRANCH  19  22
ENDBRANCH   5  18
TORSDOF 4
ENDMDL
MODEL 4
REMARK VINA RESULT:      -7.2      1.354      1.386
REMARK  Name = 
REMARK  6 active torsions:
REMARK  status: ('A' for Active; 'I' for Inactive)
REMARK    1  A    between atoms: C_1  and  O_2
REMARK    2  A    between atoms: O_2  and  C_3
REMARK    3  A    between atoms: N_5  and  N_6
REMARK    4  A    between atoms: N_10  and  N_11
REMARK    5  A    between atoms: C_12  and  O_14
REMARK    6  A    between atoms: O_14  and  C_15
REMARK                            x       y       z     vdW  Elec       q    Type
REMARK                         _______ _______ _______ _____ _____    ______ ____
ROOT
ATOM      1  N   UNL     1       4.536   6.605  16.945  0.00  0.00    +0.000 NA
ATOM      2  C   UNL     1       3.772   6.425  17.980  0.00  0.00    +0.000 C 
ATOM      3  C   UNL     1       2.984   7.592  18.565  0.00  0.00    +0.000 C 
ATOM      4  C   UNL     1       2.273   6.990  19.747  0.00  0.00    +0.000 C 
ATOM      5  N   UNL     1       1.478   7.532  20.610  0.00  0.00    +0.000 NA
ATOM      6  C   UNL     1       2.628   5.575  19.825  0.00  0.00    +0.000 A 
ATOM      7  C   UNL     1       2.207   4.668  20.786  0.00  0.00    +0.000 A 
ATOM      8  C   UNL     1       2.689   3.363  20.708  0.00  0.00    +0.000 A 
ATOM      9  C   UNL     1       3.590   3.001  19.696  0.00  0.00    +0.000 A 
ATOM     10  C   UNL     1       4.019   3.939  18.748  0.00  0.00    +0.000 A 
ATOM     11  C   UNL     1       3.509   5.228  18.803  0.00  0.00    +0.000 A 
ENDROOT
BRANCH   1  14
ATOM     12  C   UNL     1       6.448   5.416  16.100  0.00  0.00    +0.000 C 
ATOM     13  O   UNL     1       7.323   6.228  16.362  0.00  0.00    +0.000 OA
ATOM     14  N   UNL     1       5.106   5.516  16.367  0.00  0.00    +0.000 N 
ATOM     15  H   UNL     1       4.520   4.805  15.957  0.00  0.00    +0.000 HD
BRANCH  12  17
ATOM     16  C   UNL     1       6.067   4.042  14.230  0.00  0.00    +0.000 C 
ATOM     17  O   UNL     1       6.668   4.204  15.516  0.00  0.00    +0.000 OA
ENDBRANCH  12  17
ENDBRANCH   1  14
BRANCH   5  18
ATOM     18  N   UNL     1       1.176   8.853  20.511  0.00  0.00    +0.000 N 
ATOM     19  C   UNL     1       1.240   9.659  21.630  0.00  0.00    +0.000 C 
ATOM     20  O   UNL     1       1.553   9.309  22.759  0.00  0.00    +0.000 OA
ATOM     21  H   UNL     1       0.910   9.276  19.633  0.00  0.00    +0.000 HD
BRANCH  19  22
ATOM     22  O   UNL     1       0.897  10.934  21.294  0.00  0.00    +0.000 OA
ATOM     23  C   UNL     1       0.835  11.159  19.881  0.00  0.00    +0.000 C 
ENDBRANCH  19  22
ENDBRANCH   5  18
TORSDOF 4
ENDMDL
MODEL 5
REMARK VINA RESULT:      -7.1      1.888      6.985
REMARK  Name = 
REMARK  6 active torsions:
REMARK  status: ('A' for Active; 'I' for Inactive)
REMARK    1  A    between atoms: C_1  and  O_2
REMARK    2  A    between atoms: O_2  and  C_3
REMARK    3  A    between atoms: N_5  and  N_6
REMARK    4  A    between atoms: N_10  and  N_11
REMARK    5  A    between atoms: C_12  and  O_14
REMARK    6  A    between atoms: O_14  and  C_15
REMARK                            x       y       z     vdW  Elec       q    Type
REMARK                         _______ _______ _______ _____ _____    ______ ____
ROOT
ATOM      1  N   UNL     1       3.017   8.018  17.933  0.00  0.00    +0.000 NA
ATOM      2  C   UNL     1       3.683   6.907  18.008  0.00  0.00    +0.000 C 
ATOM      3  C   UNL     1       4.911   6.686  17.133  0.00  0.00    +0.000 C 
ATOM      4  C   UNL     1       5.360   5.294  17.485  0.00  0.00    +0.000 C 
ATOM      5  N   UNL     1       6.348   4.593  17.033  0.00  0.00    +0.000 NA
ATOM      6  C   UNL     1       4.452   4.761  18.498  0.00  0.00    +0.000 A 
ATOM      7  C   UNL     1       4.501   3.499  19.072  0.00  0.00    +0.000 A 
ATOM      8  C   UNL     1       3.516   3.164  19.999  0.00  0.00    +0.000 A 
ATOM      9  C   UNL     1       2.501   4.079  20.313  0.00  0.00    +0.000 A 
ATOM     10  C   UNL     1       2.458   5.341  19.706  0.00  0.00    +0.000 A 
ATOM     11  C   UNL     1       3.461   5.688  18.812  0.00  0.00    +0.000 A 
ENDROOT
BRANCH   1  14
ATOM     12  C   UNL     1       1.314   9.410  18.908  0.00  0.00    +0.000 C 
ATOM     13  O   UNL     1       1.428  10.397  18.195  0.00  0.00    +0.000 OA
ATOM     14  N   UNL     1       2.019   8.235  18.828  0.00  0.00    +0.000 N 
ATOM     15  H   UNL     1       1.879   7.585  19.586  0.00  0.00    +0.000 HD
BRANCH  12  17
ATOM     16  C   UNL     1       0.884   8.602  21.073  0.00  0.00    +0.000 C 
ATOM     17  O   UNL     1       0.403   9.283  19.914  0.00  0.00    +0.000 OA
ENDBRANCH  12  17
ENDBRANCH   1  14
BRANCH   5  18
ATOM     18  N   UNL     1       7.168   5.119  16.085  0.00  0.00    +0.000 N 
ATOM     19  C   UNL     1       6.974   4.800  14.755  0.00  0.00    +0.000 C 
ATOM     20  O   UNL     1       6.107   4.066  14.304  0.00  0.00    +0.000 OA
ATOM     21  H   UNL     1       7.921   5.749  16.320  0.00  0.00    +0.000 HD
BRANCH  19  22
ATOM     22  O   UNL     1       7.907   5.437  13.994  0.00  0.00    +0.000 OA
ATOM     23  C   UNL     1       7.784   5.171  12.592  0.00  0.00    +0.000 C 
ENDBRANCH  19  22
ENDBRANCH   5  18
TORSDOF 4
ENDMDL
MODEL 6
REMARK VINA RESULT:      -7.1      1.954      6.838
REMARK  Name = 
REMARK  6 active torsions:
REMARK  status: ('A' for Active; 'I' for Inactive)
REMARK    1  A    between atoms: C_1  and  O_2
REMARK    2  A    between atoms: O_2  and  C_3
REMARK    3  A    between atoms: N_5  and  N_6
REMARK    4  A    between atoms: N_10  and  N_11
REMARK    5  A    between atoms: C_12  and  O_14
REMARK    6  A    between atoms: O_14  and  C_15
REMARK                            x       y       z     vdW  Elec       q    Type
REMARK                         _______ _______ _______ _____ _____    ______ ____
ROOT
ATOM      1  N   UNL     1       2.549   8.367  17.800  0.00  0.00    +0.000 NA
ATOM      2  C   UNL     1       3.015   7.179  18.040  0.00  0.00    +0.000 C 
ATOM      3  C   UNL     1       4.061   6.563  17.118  0.00  0.00    +0.000 C 
ATOM      4  C   UNL     1       4.302   5.199  17.706  0.00  0.00    +0.000 C 
ATOM      5  N   UNL     1       5.085   4.247  17.317  0.00  0.00    +0.000 NA
ATOM      6  C   UNL     1       3.454   5.052  18.887  0.00  0.00    +0.000 A 
ATOM      7  C   UNL     1       3.356   3.933  19.700  0.00  0.00    +0.000 A 
ATOM      8  C   UNL     1       2.457   3.975  20.764  0.00  0.00    +0.000 A 
ATOM      9  C   UNL     1       1.667   5.114  20.977  0.00  0.00    +0.000 A 
ATOM     10  C   UNL     1       1.767   6.226  20.130  0.00  0.00    +0.000 A 
ATOM     11  C   UNL     1       2.690   6.198  19.094  0.00  0.00    +0.000 A 
ENDROOT
BRANCH   1  14
ATOM     12  C   UNL     1       1.538  10.292  18.828  0.00  0.00    +0.000 C 
ATOM     13  O   UNL     1       2.013  11.170  18.124  0.00  0.00    +0.000 OA
ATOM     14  N   UNL     1       1.730   8.937  18.721  0.00  0.00    +0.000 N 
ATOM     15  H   UNL     1       1.361   8.378  19.475  0.00  0.00    +0.000 HD
BRANCH  12  17
ATOM     16  C   UNL     1      -0.711  10.350  19.513  0.00  0.00    +0.000 C 
ATOM     17  O   UNL     1       0.667  10.510  19.854  0.00  0.00    +0.000 OA
ENDBRANCH  12  17
ENDBRANCH   1  14
BRANCH   5  18
ATOM     18  N   UNL     1       5.853   4.417  16.209  0.00  0.00    +0.000 N 
ATOM     19  C   UNL     1       7.209   4.641  16.341  0.00  0.00    +0.000 C 
ATOM     20  O   UNL     1       7.836   4.707  17.388  0.00  0.00    +0.000 OA
ATOM     21  H   UNL     1       5.464   4.379  15.278  0.00  0.00    +0.000 HD
BRANCH  19  22
ATOM     22  O   UNL     1       7.769   4.783  15.106  0.00  0.00    +0.000 OA
ATOM     23  C   UNL     1       6.833   4.645  14.032  0.00  0.00    +0.000 C 
ENDBRANCH  19  22
ENDBRANCH   5  18
TORSDOF 4
ENDMDL
MODEL 7
REMARK VINA RESULT:      -7.0      1.409      7.074
REMARK  Name = 
REMARK  6 active torsions:
REMARK  status: ('A' for Active; 'I' for Inactive)
REMARK    1  A    between atoms: C_1  and  O_2
REMARK    2  A    between atoms: O_2  and  C_3
REMARK    3  A    between atoms: N_5  and  N_6
REMARK    4  A    between atoms: N_10  and  N_11
REMARK    5  A    between atoms: C_12  and  O_14
REMARK    6  A    between atoms: O_14  and  C_15
REMARK                            x       y       z     vdW  Elec       q    Type
REMARK                         _______ _______ _______ _____ _____    ______ ____
ROOT
ATOM      1  N   UNL     1       2.094   8.222  19.012  0.00  0.00    +0.000 NA
ATOM      2  C   UNL     1       2.642   7.061  18.821  0.00  0.00    +0.000 C 
ATOM      3  C   UNL     1       3.551   6.827  17.619  0.00  0.00    +0.000 C 
ATOM      4  C   UNL     1       3.940   5.379  17.737  0.00  0.00    +0.000 C 
ATOM      5  N   UNL     1       4.690   4.649  16.977  0.00  0.00    +0.000 NA
ATOM      6  C   UNL     1       3.302   4.827  18.930  0.00  0.00    +0.000 A 
ATOM      7  C   UNL     1       3.384   3.518  19.382  0.00  0.00    +0.000 A 
ATOM      8  C   UNL     1       2.668   3.177  20.528  0.00  0.00    +0.000 A 
ATOM      9  C   UNL     1       1.875   4.134  21.177  0.00  0.00    +0.000 A 
ATOM     10  C   UNL     1       1.790   5.445  20.691  0.00  0.00    +0.000 A 
ATOM     11  C   UNL     1       2.534   5.795  19.573  0.00  0.00    +0.000 A 
ENDROOT
BRANCH   1  14
ATOM     12  C   UNL     1       0.359   9.306  20.276  0.00  0.00    +0.000 C 
ATOM     13  O   UNL     1      -0.146   9.979  19.390  0.00  0.00    +0.000 OA
ATOM     14  N   UNL     1       1.412   8.432  20.166  0.00  0.00    +0.000 N 
ATOM     15  H   UNL     1       1.774   8.067  21.034  0.00  0.00    +0.000 HD
BRANCH  12  17
ATOM     16  C   UNL     1       0.957   9.230  22.549  0.00  0.00    +0.000 C 
ATOM     17  O   UNL     1      -0.079   9.271  21.567  0.00  0.00    +0.000 OA
ENDBRANCH  12  17
ENDBRANCH   1  14
BRANCH   5  18
ATOM     18  N   UNL     1       5.261   5.194  15.872  0.00  0.00    +0.000 N 
ATOM     19  C   UNL     1       6.609   5.012  15.633  0.00  0.00    +0.000 C 
ATOM     20  O   UNL     1       7.391   4.384  16.331  0.00  0.00    +0.000 OA
ATOM     21  H   UNL     1       4.727   5.732  15.204  0.00  0.00    +0.000 HD
BRANCH  19  22
ATOM     22  O   UNL     1       6.956   5.645  14.477  0.00  0.00    +0.000 OA
ATOM     23  C   UNL     1       7.452   4.763  13.465  0.00  0.00    +0.000 C 
ENDBRANCH  19  22
ENDBRANCH   5  18
TORSDOF 4
ENDMDL
MODEL 8
REMARK VINA RESULT:      -6.9      3.030      6.816
REMARK  Name = 
REMARK  6 active torsions:
REMARK  status: ('A' for Active; 'I' for Inactive)
REMARK    1  A    between atoms: C_1  and  O_2
REMARK    2  A    between atoms: O_2  and  C_3
REMARK    3  A    between atoms: N_5  and  N_6
REMARK    4  A    between atoms: N_10  and  N_11
REMARK    5  A    between atoms: C_12  and  O_14
REMARK    6  A    between atoms: O_14  and  C_15
REMARK                            x       y       z     vdW  Elec       q    Type
REMARK                         _______ _______ _______ _____ _____    ______ ____
ROOT
ATOM      1  N   UNL     1       3.811   2.945  18.907  0.00  0.00    +0.000 NA
ATOM      2  C   UNL     1       3.847   4.110  18.335  0.00  0.00    +0.000 C 
ATOM      3  C   UNL     1       4.688   4.326  17.083  0.00  0.00    +0.000 C 
ATOM      4  C   UNL     1       4.495   5.784  16.765  0.00  0.00    +0.000 C 
ATOM      5  N   UNL     1       4.988   6.506  15.812  0.00  0.00    +0.000 NA
ATOM      6  C   UNL     1       3.598   6.357  17.766  0.00  0.00    +0.000 A 
ATOM      7  C   UNL     1       3.187   7.679  17.848  0.00  0.00    +0.000 A 
ATOM      8  C   UNL     1       2.354   8.040  18.905  0.00  0.00    +0.000 A 
ATOM      9  C   UNL     1       1.972   7.087  19.861  0.00  0.00    +0.000 A 
ATOM     10  C   UNL     1       2.416   5.762  19.770  0.00  0.00    +0.000 A 
ATOM     11  C   UNL     1       3.214   5.394  18.696  0.00  0.00    +0.000 A 
ENDROOT
BRANCH   1  14
ATOM     12  C   UNL     1       1.635   2.367  19.755  0.00  0.00    +0.000 C 
ATOM     13  O   UNL     1       1.074   2.098  18.704  0.00  0.00    +0.000 OA
ATOM     14  N   UNL     1       2.940   2.755  19.931  0.00  0.00    +0.000 N 
ATOM     15  H   UNL     1       3.187   3.062  20.860  0.00  0.00    +0.000 HD
BRANCH  12  17
ATOM     16  C   UNL     1       1.775   2.936  22.032  0.00  0.00    +0.000 C 
ATOM     17  O   UNL     1       1.056   2.282  20.986  0.00  0.00    +0.000 OA
ENDBRANCH  12  17
ENDBRANCH   1  14
BRANCH   5  18
ATOM     18  N   UNL     1       5.824   5.940  14.904  0.00  0.00    +0.000 N 
ATOM     19  C   UNL     1       7.160   5.770  15.211  0.00  0.00    +0.000 C 
ATOM     20  O   UNL     1       7.709   6.083  16.258  0.00  0.00    +0.000 OA
ATOM     21  H   UNL     1       5.500   5.627  13.999  0.00  0.00    +0.000 HD
BRANCH  19  22
ATOM     22  O   UNL     1       7.801   5.190  14.157  0.00  0.00    +0.000 OA
ATOM     23  C   UNL     1       6.934   4.433  13.305  0.00  0.00    +0.000 C 
ENDBRANCH  19  22
ENDBRANCH   5  18
TORSDOF 4
ENDMDL
MODEL 9
REMARK VINA RESULT:      -6.9      3.177      6.806
REMARK  Name = 
REMARK  6 active torsions:
REMARK  status: ('A' for Active; 'I' for Inactive)
REMARK    1  A    between atoms: C_1  and  O_2
REMARK    2  A    between atoms: O_2  and  C_3
REMARK    3  A    between atoms: N_5  and  N_6
REMARK    4  A    between atoms: N_10  and  N_11
REMARK    5  A    between atoms: C_12  and  O_14
REMARK    6  A    between atoms: O_14  and  C_15
REMARK                            x       y       z     vdW  Elec       q    Type
REMARK                         _______ _______ _______ _____ _____    ______ ____
ROOT
ATOM      1  N   UNL     1       3.844   2.936  19.065  0.00  0.00    +0.000 NA
ATOM      2  C   UNL     1       3.849   4.089  18.469  0.00  0.00    +0.000 C 
ATOM      3  C   UNL     1       4.669   4.295  17.200  0.00  0.00    +0.000 C 
ATOM      4  C   UNL     1       4.441   5.742  16.854  0.00  0.00    +0.000 C 
ATOM      5  N   UNL     1       4.907   6.453  15.880  0.00  0.00    +0.000 NA
ATOM      6  C   UNL     1       3.547   6.319  17.856  0.00  0.00    +0.000 A 
ATOM      7  C   UNL     1       3.110   7.634  17.916  0.00  0.00    +0.000 A 
ATOM      8  C   UNL     1       2.285   8.000  18.977  0.00  0.00    +0.000 A 
ATOM      9  C   UNL     1       1.935   7.060  19.957  0.00  0.00    +0.000 A 
ATOM     10  C   UNL     1       2.404   5.743  19.889  0.00  0.00    +0.000 A 
ATOM     11  C   UNL     1       3.195   5.368  18.811  0.00  0.00    +0.000 A 
ENDROOT
BRANCH   1  14
ATOM     12  C   UNL     1       3.358   2.165  21.291  0.00  0.00    +0.000 C 
ATOM     13  O   UNL     1       4.468   1.768  21.614  0.00  0.00    +0.000 OA
ATOM     14  N   UNL     1       2.991   2.751  20.105  0.00  0.00    +0.000 N 
ATOM     15  H   UNL     1       2.001   2.891  19.970  0.00  0.00    +0.000 HD
BRANCH  12  17
ATOM     16  C   UNL     1       1.124   2.836  21.590  0.00  0.00    +0.000 C 
ATOM     17  O   UNL     1       2.260   2.134  22.098  0.00  0.00    +0.000 OA
ENDBRANCH  12  17
ENDBRANCH   1  14
BRANCH   5  18
ATOM     18  N   UNL     1       5.742   5.885  14.972  0.00  0.00    +0.000 N 
ATOM     19  C   UNL     1       7.089   5.767  15.256  0.00  0.00    +0.000 C 
ATOM     20  O   UNL     1       7.648   6.129  16.281  0.00  0.00    +0.000 OA
ATOM     21  H   UNL     1       5.410   5.534  14.085  0.00  0.00    +0.000 HD
BRANCH  19  22
ATOM     22  O   UNL     1       7.726   5.173  14.208  0.00  0.00    +0.000 OA
ATOM     23  C   UNL     1       6.858   4.401  13.371  0.00  0.00    +0.000 C 
ENDBRANCH  19  22
ENDBRANCH   5  18
TORSDOF 4
ENDMDL
