MODEL 1
REMARK VINA RESULT:      -8.7      0.000      0.000
REMARK  Name = 
REMARK  8 active torsions:
REMARK  status: ('A' for Active; 'I' for Inactive)
REMARK    1  A    between atoms: C_1  and  C_2
REMARK    2  A    between atoms: C_2  and  C_3
REMARK    3  A    between atoms: C_3  and  C_4
REMARK    4  A    between atoms: C_4  and  S_5
REMARK    5  A    between atoms: S_5  and  N_8
REMARK    6  A    between atoms: C_11  and  O_12
REMARK    7  A    between atoms: O_12  and  C_13
REMARK    8  A    between atoms: C_16  and  N_17
REMARK                            x       y       z     vdW  Elec       q    Type
REMARK                         _______ _______ _______ _____ _____    ______ ____
ROOT
ATOM      1  C   UNL     1       2.199   7.756  18.891  0.00  0.00    +0.000 A 
ATOM      2  C   UNL     1       1.719   8.846  18.156  0.00  0.00    +0.000 A 
ATOM      3  C   UNL     1       0.956   9.848  18.780  0.00  0.00    +0.000 A 
ATOM      4  C   UNL     1       0.633   9.766  20.138  0.00  0.00    +0.000 A 
ATOM      5  C   UNL     1       1.121   8.677  20.868  0.00  0.00    +0.000 A 
ATOM      6  C   UNL     1       1.875   7.677  20.244  0.00  0.00    +0.000 A 
ENDROOT
BRANCH   4   7
ATOM      7  N   UNL     1      -0.153  10.725  20.820  0.00  0.00    +0.000 N 
ATOM      8  C   UNL     1       0.302  11.924  21.328  0.00  0.00    +0.000 C 
ATOM      9  O   UNL     1       1.447  12.350  21.222  0.00  0.00    +0.000 OA
ATOM     10  N   UNL     1      -0.664  12.683  21.972  0.00  0.00    +0.000 N 
ATOM     11  C   UNL     1      -0.318  14.018  22.478  0.00  0.00    +0.000 C 
ATOM     12  C   UNL     1      -1.507  14.406  23.298  0.00  0.00    +0.000 A 
ATOM     13  C   UNL     1      -1.773  15.586  23.967  0.00  0.00    +0.000 A 
ATOM     14  C   UNL     1      -2.973  15.634  24.672  0.00  0.00    +0.000 A 
ATOM     15  N   UNL     1      -3.866  14.610  24.747  0.00  0.00    +0.000 NA
ATOM     16  C   UNL     1      -3.561  13.471  24.086  0.00  0.00    +0.000 A 
ATOM     17  C   UNL     1      -2.405  13.338  23.357  0.00  0.00    +0.000 A 
ATOM     18  C   UNL     1      -1.894  12.176  22.580  0.00  0.00    +0.000 C 
ATOM     19  H   UNL     1      -1.147  10.659  20.680  0.00  0.00    +0.000 HD
ENDBRANCH   4   7
BRANCH   1  20
ATOM     20  O   UNL     1       2.986   6.855  18.217  0.00  0.00    +0.000 OA
BRANCH  20  24
ATOM     21  N   UNL     1       5.567   4.578  17.311  0.00  0.00    +0.000 NA
ATOM     22  C   UNL     1       5.690   5.708  18.283  0.00  0.00    +0.000 C 
ATOM     23  C   UNL     1       4.693   5.539  19.414  0.00  0.00    +0.000 C 
ATOM     24  C   UNL     1       3.266   5.598  18.867  0.00  0.00    +0.000 C 
ATOM     25  C   UNL     1       3.122   4.439  17.869  0.00  0.00    +0.000 C 
ATOM     26  C   UNL     1       4.172   4.489  16.755  0.00  0.00    +0.000 C 
BRANCH  21  27
ATOM     27  S   UNL     1       6.799   4.687  16.106  0.00  0.00    +0.000 S 
ATOM     28  O   UNL     1       8.038   4.230  16.703  0.00  0.00    +0.000 OA
ATOM     29  O   UNL     1       6.704   5.993  15.493  0.00  0.00    +0.000 OA
BRANCH  27  30
ATOM     30  C   UNL     1       6.319   3.441  14.898  0.00  0.00    +0.000 C 
BRANCH  30  31
ATOM     31  C   UNL     1       5.735   4.146  13.668  0.00  0.00    +0.000 C 
BRANCH  31  33
ATOM     32  C   UNL     1       4.604   3.324  11.581  0.00  0.00    +0.000 C 
ATOM     33  C   UNL     1       5.899   3.340  12.385  0.00  0.00    +0.000 C 
ENDBRANCH  31  33
ENDBRANCH  30  31
ENDBRANCH  27  30
ENDBRANCH  21  27
ENDBRANCH  20  24
ENDBRANCH   1  20
TORSDOF 7
ENDMDL
MODEL 2
REMARK VINA RESULT:      -8.6      1.687      3.051
REMARK  Name = 
REMARK  8 active torsions:
REMARK  status: ('A' for Active; 'I' for Inactive)
REMARK    1  A    between atoms: C_1  and  C_2
REMARK    2  A    between atoms: C_2  and  C_3
REMARK    3  A    between atoms: C_3  and  C_4
REMARK    4  A    between atoms: C_4  and  S_5
REMARK    5  A    between atoms: S_5  and  N_8
REMARK    6  A    between atoms: C_11  and  O_12
REMARK    7  A    between atoms: O_12  and  C_13
REMARK    8  A    between atoms: C_16  and  N_17
REMARK                            x       y       z     vdW  Elec       q    Type
REMARK                         _______ _______ _______ _____ _____    ______ ____
ROOT
ATOM      1  C   UNL     1       2.217   7.748  18.485  0.00  0.00    +0.000 A 
ATOM      2  C   UNL     1       2.013   7.526  19.851  0.00  0.00    +0.000 A 
ATOM      3  C   UNL     1       1.220   8.407  20.607  0.00  0.00    +0.000 A 
ATOM      4  C   UNL     1       0.644   9.538  20.023  0.00  0.00    +0.000 A 
ATOM      5  C   UNL     1       0.847   9.751  18.655  0.00  0.00    +0.000 A 
ATOM      6  C   UNL     1       1.642   8.877  17.905  0.00  0.00    +0.000 A 
ENDROOT
BRANCH   4   7
ATOM      7  N   UNL     1      -0.141  10.478  20.732  0.00  0.00    +0.000 N 
ATOM      8  C   UNL     1       0.312  11.667  21.264  0.00  0.00    +0.000 C 
ATOM      9  O   UNL     1       1.454  12.100  21.160  0.00  0.00    +0.000 OA
ATOM     10  N   UNL     1      -0.652  12.407  21.932  0.00  0.00    +0.000 N 
ATOM     11  C   UNL     1      -0.308  13.731  22.466  0.00  0.00    +0.000 C 
ATOM     12  C   UNL     1      -1.493  14.095  23.304  0.00  0.00    +0.000 A 
ATOM     13  C   UNL     1      -1.759  15.258  24.001  0.00  0.00    +0.000 A 
ATOM     14  C   UNL     1      -2.954  15.285  24.716  0.00  0.00    +0.000 A 
ATOM     15  N   UNL     1      -3.842  14.255  24.775  0.00  0.00    +0.000 NA
ATOM     16  C   UNL     1      -3.537  13.132  24.085  0.00  0.00    +0.000 A 
ATOM     17  C   UNL     1      -2.385  13.022  23.345  0.00  0.00    +0.000 A 
ATOM     18  C   UNL     1      -1.876  11.880  22.537  0.00  0.00    +0.000 C 
ATOM     19  H   UNL     1      -1.136  10.410  20.598  0.00  0.00    +0.000 HD
ENDBRANCH   4   7
BRANCH   1  20
ATOM     20  O   UNL     1       2.954   6.806  17.810  0.00  0.00    +0.000 OA
BRANCH  20  24
ATOM     21  N   UNL     1       5.820   4.736  18.224  0.00  0.00    +0.000 NA
ATOM     22  C   UNL     1       5.267   5.689  19.235  0.00  0.00    +0.000 C 
ATOM     23  C   UNL     1       3.833   5.324  19.573  0.00  0.00    +0.000 C 
ATOM     24  C   UNL     1       2.952   5.460  18.330  0.00  0.00    +0.000 C 
ATOM     25  C   UNL     1       3.505   4.483  17.281  0.00  0.00    +0.000 C 
ATOM     26  C   UNL     1       4.985   4.728  16.972  0.00  0.00    +0.000 C 
BRANCH  21  27
ATOM     27  S   UNL     1       7.494   5.056  17.950  0.00  0.00    +0.000 S 
ATOM     28  O   UNL     1       7.926   4.222  16.847  0.00  0.00    +0.000 OA
ATOM     29  O   UNL     1       8.168   5.009  19.229  0.00  0.00    +0.000 OA
BRANCH  27  30
ATOM     30  C   UNL     1       7.507   6.753  17.349  0.00  0.00    +0.000 C 
BRANCH  30  31
ATOM     31  C   UNL     1       8.251   7.630  18.362  0.00  0.00    +0.000 C 
BRANCH  31  33
ATOM     32  C   UNL     1       8.936   9.945  19.058  0.00  0.00    +0.000 C 
ATOM     33  C   UNL     1       8.270   9.104  17.975  0.00  0.00    +0.000 C 
ENDBRANCH  31  33
ENDBRANCH  30  31
ENDBRANCH  27  30
ENDBRANCH  21  27
ENDBRANCH  20  24
ENDBRANCH   1  20
TORSDOF 7
ENDMDL
MODEL 3
REMARK VINA RESULT:      -8.4      1.574      2.899
REMARK  Name = 
REMARK  8 active torsions:
REMARK  status: ('A' for Active; 'I' for Inactive)
REMARK    1  A    between atoms: C_1  and  C_2
REMARK    2  A    between atoms: C_2  and  C_3
REMARK    3  A    between atoms: C_3  and  C_4
REMARK    4  A    between atoms: C_4  and  S_5
REMARK    5  A    between atoms: S_5  and  N_8
REMARK    6  A    between atoms: C_11  and  O_12
REMARK    7  A    between atoms: O_12  and  C_13
REMARK    8  A    between atoms: C_16  and  N_17
REMARK                            x       y       z     vdW  Elec       q    Type
REMARK                         _______ _______ _______ _____ _____    ______ ____
ROOT
ATOM      1  C   UNL     1       2.200   7.779  18.633  0.00  0.00    +0.000 A 
ATOM      2  C   UNL     1       1.723   8.904  17.952  0.00  0.00    +0.000 A 
ATOM      3  C   UNL     1       0.978   9.886  18.629  0.00  0.00    +0.000 A 
ATOM      4  C   UNL     1       0.670   9.747  19.985  0.00  0.00    +0.000 A 
ATOM      5  C   UNL     1       1.155   8.623  20.661  0.00  0.00    +0.000 A 
ATOM      6  C   UNL     1       1.891   7.643  19.985  0.00  0.00    +0.000 A 
ENDROOT
BRANCH   4   7
ATOM      7  N   UNL     1      -0.098  10.684  20.718  0.00  0.00    +0.000 N 
ATOM      8  C   UNL     1       0.368  11.871  21.242  0.00  0.00    +0.000 C 
ATOM      9  O   UNL     1       1.506  12.306  21.110  0.00  0.00    +0.000 OA
ATOM     10  N   UNL     1      -0.581  12.607  21.937  0.00  0.00    +0.000 N 
ATOM     11  C   UNL     1      -0.225  13.930  22.467  0.00  0.00    +0.000 C 
ATOM     12  C   UNL     1      -1.388  14.289  23.336  0.00  0.00    +0.000 A 
ATOM     13  C   UNL     1      -1.638  15.449  24.045  0.00  0.00    +0.000 A 
ATOM     14  C   UNL     1      -2.814  15.472  24.790  0.00  0.00    +0.000 A 
ATOM     15  N   UNL     1      -3.699  14.441  24.867  0.00  0.00    +0.000 NA
ATOM     16  C   UNL     1      -3.410  13.321  24.167  0.00  0.00    +0.000 A 
ATOM     17  C   UNL     1      -2.278  13.215  23.396  0.00  0.00    +0.000 A 
ATOM     18  C   UNL     1      -1.787  12.076  22.572  0.00  0.00    +0.000 C 
ATOM     19  H   UNL     1      -1.096  10.615  20.609  0.00  0.00    +0.000 HD
ENDBRANCH   4   7
BRANCH   1  20
ATOM     20  O   UNL     1       2.970   6.901  17.911  0.00  0.00    +0.000 OA
BRANCH  20  24
ATOM     21  N   UNL     1       5.903   4.883  17.918  0.00  0.00    +0.000 NA
ATOM     22  C   UNL     1       5.458   5.795  19.016  0.00  0.00    +0.000 C 
ATOM     23  C   UNL     1       4.082   5.390  19.512  0.00  0.00    +0.000 C 
ATOM     24  C   UNL     1       3.055   5.542  18.388  0.00  0.00    +0.000 C 
ATOM     25  C   UNL     1       3.496   4.605  17.251  0.00  0.00    +0.000 C 
ATOM     26  C   UNL     1       4.924   4.891  16.775  0.00  0.00    +0.000 C 
BRANCH  21  27
ATOM     27  S   UNL     1       7.526   5.246  17.456  0.00  0.00    +0.000 S 
ATOM     28  O   UNL     1       7.481   5.867  16.147  0.00  0.00    +0.000 OA
ATOM     29  O   UNL     1       8.328   4.068  17.696  0.00  0.00    +0.000 OA
BRANCH  27  30
ATOM     30  C   UNL     1       8.018   6.530  18.618  0.00  0.00    +0.000 C 
BRANCH  30  31
ATOM     31  C   UNL     1       7.945   7.889  17.912  0.00  0.00    +0.000 C 
BRANCH  31  33
ATOM     32  C   UNL     1       8.950  10.190  17.831  0.00  0.00    +0.000 C 
ATOM     33  C   UNL     1       8.566   9.018  18.726  0.00  0.00    +0.000 C 
ENDBRANCH  31  33
ENDBRANCH  30  31
ENDBRANCH  27  30
ENDBRANCH  21  27
ENDBRANCH  20  24
ENDBRANCH   1  20
TORSDOF 7
ENDMDL
MODEL 4
REMARK VINA RESULT:      -8.2      0.448      1.030
REMARK  Name = 
REMARK  8 active torsions:
REMARK  status: ('A' for Active; 'I' for Inactive)
REMARK    1  A    between atoms: C_1  and  C_2
REMARK    2  A    between atoms: C_2  and  C_3
REMARK    3  A    between atoms: C_3  and  C_4
REMARK    4  A    between atoms: C_4  and  S_5
REMARK    5  A    between atoms: S_5  and  N_8
REMARK    6  A    between atoms: C_11  and  O_12
REMARK    7  A    between atoms: O_12  and  C_13
REMARK    8  A    between atoms: C_16  and  N_17
REMARK                            x       y       z     vdW  Elec       q    Type
REMARK                         _______ _______ _______ _____ _____    ______ ____
ROOT
ATOM      1  C   UNL     1       2.198   7.898  18.702  0.00  0.00    +0.000 A 
ATOM      2  C   UNL     1       1.941   7.722  20.066  0.00  0.00    +0.000 A 
ATOM      3  C   UNL     1       1.121   8.627  20.762  0.00  0.00    +0.000 A 
ATOM      4  C   UNL     1       0.568   9.738  20.118  0.00  0.00    +0.000 A 
ATOM      5  C   UNL     1       0.824   9.906  18.753  0.00  0.00    +0.000 A 
ATOM      6  C   UNL     1       1.646   9.007  18.063  0.00  0.00    +0.000 A 
ENDROOT
BRANCH   4   7
ATOM      7  N   UNL     1      -0.242  10.701  20.766  0.00  0.00    +0.000 N 
ATOM      8  C   UNL     1       0.204  11.868  21.349  0.00  0.00    +0.000 C 
ATOM      9  O   UNL     1       1.366  12.260  21.350  0.00  0.00    +0.000 OA
ATOM     10  N   UNL     1      -0.789  12.637  21.937  0.00  0.00    +0.000 N 
ATOM     11  C   UNL     1      -0.447  13.944  22.513  0.00  0.00    +0.000 C 
ATOM     12  C   UNL     1      -1.687  14.344  23.247  0.00  0.00    +0.000 A 
ATOM     13  C   UNL     1      -1.973  15.511  23.931  0.00  0.00    +0.000 A 
ATOM     14  C   UNL     1      -3.224  15.576  24.537  0.00  0.00    +0.000 A 
ATOM     15  N   UNL     1      -4.150  14.580  24.505  0.00  0.00    +0.000 NA
ATOM     16  C   UNL     1      -3.826  13.452  23.834  0.00  0.00    +0.000 A 
ATOM     17  C   UNL     1      -2.618  13.305  23.197  0.00  0.00    +0.000 A 
ATOM     18  C   UNL     1      -2.079  12.151  22.425  0.00  0.00    +0.000 C 
ATOM     19  H   UNL     1      -1.223  10.670  20.543  0.00  0.00    +0.000 HD
ENDBRANCH   4   7
BRANCH   1  20
ATOM     20  O   UNL     1       2.959   6.935  18.087  0.00  0.00    +0.000 OA
BRANCH  20  24
ATOM     21  N   UNL     1       5.587   4.627  17.429  0.00  0.00    +0.000 NA
ATOM     22  C   UNL     1       5.662   5.811  18.339  0.00  0.00    +0.000 C 
ATOM     23  C   UNL     1       4.616   5.701  19.433  0.00  0.00    +0.000 C 
ATOM     24  C   UNL     1       3.214   5.719  18.821  0.00  0.00    +0.000 C 
ATOM     25  C   UNL     1       3.120   4.503  17.886  0.00  0.00    +0.000 C 
ATOM     26  C   UNL     1       4.219   4.496  16.818  0.00  0.00    +0.000 C 
BRANCH  21  27
ATOM     27  S   UNL     1       6.871   4.674  16.276  0.00  0.00    +0.000 S 
ATOM     28  O   UNL     1       8.053   4.128  16.913  0.00  0.00    +0.000 OA
ATOM     29  O   UNL     1       6.884   5.992  15.683  0.00  0.00    +0.000 OA
BRANCH  27  30
ATOM     30  C   UNL     1       6.362   3.480  15.028  0.00  0.00    +0.000 C 
BRANCH  30  31
ATOM     31  C   UNL     1       5.946   4.237  13.762  0.00  0.00    +0.000 C 
BRANCH  31  33
ATOM     32  C   UNL     1       7.320   4.703  11.712  0.00  0.00    +0.000 C 
ATOM     33  C   UNL     1       6.545   3.647  12.491  0.00  0.00    +0.000 C 
ENDBRANCH  31  33
ENDBRANCH  30  31
ENDBRANCH  27  30
ENDBRANCH  21  27
ENDBRANCH  20  24
ENDBRANCH   1  20
TORSDOF 7
ENDMDL
MODEL 5
REMARK VINA RESULT:      -8.1      1.394      1.803
REMARK  Name = 
REMARK  8 active torsions:
REMARK  status: ('A' for Active; 'I' for Inactive)
REMARK    1  A    between atoms: C_1  and  C_2
REMARK    2  A    between atoms: C_2  and  C_3
REMARK    3  A    between atoms: C_3  and  C_4
REMARK    4  A    between atoms: C_4  and  S_5
REMARK    5  A    between atoms: S_5  and  N_8
REMARK    6  A    between atoms: C_11  and  O_12
REMARK    7  A    between atoms: O_12  and  C_13
REMARK    8  A    between atoms: C_16  and  N_17
REMARK                            x       y       z     vdW  Elec       q    Type
REMARK                         _______ _______ _______ _____ _____    ______ ____
ROOT
ATOM      1  C   UNL     1       2.326   6.295  19.080  0.00  0.00    +0.000 A 
ATOM      2  C   UNL     1       2.249   7.436  18.273  0.00  0.00    +0.000 A 
ATOM      3  C   UNL     1       1.818   8.662  18.808  0.00  0.00    +0.000 A 
ATOM      4  C   UNL     1       1.426   8.766  20.145  0.00  0.00    +0.000 A 
ATOM      5  C   UNL     1       1.510   7.624  20.949  0.00  0.00    +0.000 A 
ATOM      6  C   UNL     1       1.934   6.401  20.413  0.00  0.00    +0.000 A 
ENDROOT
BRANCH   4   7
ATOM      7  N   UNL     1       0.957   9.962  20.738  0.00  0.00    +0.000 N 
ATOM      8  C   UNL     1      -0.087  10.061  21.634  0.00  0.00    +0.000 C 
ATOM      9  O   UNL     1      -0.730   9.117  22.079  0.00  0.00    +0.000 OA
ATOM     10  N   UNL     1      -0.366  11.352  22.057  0.00  0.00    +0.000 N 
ATOM     11  C   UNL     1      -1.399  11.572  23.078  0.00  0.00    +0.000 C 
ATOM     12  C   UNL     1      -1.577  13.057  23.087  0.00  0.00    +0.000 A 
ATOM     13  C   UNL     1      -2.375  13.847  23.893  0.00  0.00    +0.000 A 
ATOM     14  C   UNL     1      -2.340  15.216  23.639  0.00  0.00    +0.000 A 
ATOM     15  N   UNL     1      -1.596  15.801  22.662  0.00  0.00    +0.000 NA
ATOM     16  C   UNL     1      -0.837  14.990  21.890  0.00  0.00    +0.000 A 
ATOM     17  C   UNL     1      -0.802  13.629  22.077  0.00  0.00    +0.000 A 
ATOM     18  C   UNL     1      -0.048  12.583  21.334  0.00  0.00    +0.000 C 
ATOM     19  H   UNL     1       1.595  10.740  20.723  0.00  0.00    +0.000 HD
ENDBRANCH   4   7
BRANCH   1  20
ATOM     20  O   UNL     1       2.815   5.155  18.493  0.00  0.00    +0.000 OA
BRANCH  20  24
ATOM     21  N   UNL     1       5.888   4.667  16.764  0.00  0.00    +0.000 NA
ATOM     22  C   UNL     1       5.490   5.890  17.527  0.00  0.00    +0.000 C 
ATOM     23  C   UNL     1       5.203   5.538  18.974  0.00  0.00    +0.000 C 
ATOM     24  C   UNL     1       4.013   4.579  19.053  0.00  0.00    +0.000 C 
ATOM     25  C   UNL     1       4.409   3.312  18.278  0.00  0.00    +0.000 C 
ATOM     26  C   UNL     1       4.817   3.612  16.832  0.00  0.00    +0.000 C 
BRANCH  21  27
ATOM     27  S   UNL     1       6.360   5.087  15.158  0.00  0.00    +0.000 S 
ATOM     28  O   UNL     1       7.785   5.354  15.175  0.00  0.00    +0.000 OA
ATOM     29  O   UNL     1       5.423   6.071  14.665  0.00  0.00    +0.000 OA
BRANCH  27  30
ATOM     30  C   UNL     1       6.135   3.557  14.237  0.00  0.00    +0.000 C 
BRANCH  30  31
ATOM     31  C   UNL     1       6.147   3.877  12.738  0.00  0.00    +0.000 C 
BRANCH  31  33
ATOM     32  C   UNL     1       4.225   3.230  11.255  0.00  0.00    +0.000 C 
ATOM     33  C   UNL     1       5.534   2.771  11.887  0.00  0.00    +0.000 C 
ENDBRANCH  31  33
ENDBRANCH  30  31
ENDBRANCH  27  30
ENDBRANCH  21  27
ENDBRANCH  20  24
ENDBRANCH   1  20
TORSDOF 7
ENDMDL
MODEL 6
REMARK VINA RESULT:      -8.1      1.842      3.033
REMARK  Name = 
REMARK  8 active torsions:
REMARK  status: ('A' for Active; 'I' for Inactive)
REMARK    1  A    between atoms: C_1  and  C_2
REMARK    2  A    between atoms: C_2  and  C_3
REMARK    3  A    between atoms: C_3  and  C_4
REMARK    4  A    between atoms: C_4  and  S_5
REMARK    5  A    between atoms: S_5  and  N_8
REMARK    6  A    between atoms: C_11  and  O_12
REMARK    7  A    between atoms: O_12  and  C_13
REMARK    8  A    between atoms: C_16  and  N_17
REMARK                            x       y       z     vdW  Elec       q    Type
REMARK                         _______ _______ _______ _____ _____    ______ ____
ROOT
ATOM      1  C   UNL     1       2.240   7.727  18.817  0.00  0.00    +0.000 A 
ATOM      2  C   UNL     1       1.841   8.921  18.207  0.00  0.00    +0.000 A 
ATOM      3  C   UNL     1       1.140   9.896  18.937  0.00  0.00    +0.000 A 
ATOM      4  C   UNL     1       0.797   9.685  20.276  0.00  0.00    +0.000 A 
ATOM      5  C   UNL     1       1.204   8.491  20.881  0.00  0.00    +0.000 A 
ATOM      6  C   UNL     1       1.897   7.518  20.151  0.00  0.00    +0.000 A 
ENDROOT
BRANCH   4   7
ATOM      7  N   UNL     1       0.069  10.612  21.058  0.00  0.00    +0.000 N 
ATOM      8  C   UNL     1      -1.064  11.289  20.658  0.00  0.00    +0.000 C 
ATOM      9  O   UNL     1      -1.629  11.149  19.579  0.00  0.00    +0.000 OA
ATOM     10  N   UNL     1      -1.583  12.159  21.605  0.00  0.00    +0.000 N 
ATOM     11  C   UNL     1      -2.837  12.870  21.325  0.00  0.00    +0.000 C 
ATOM     12  C   UNL     1      -2.936  13.866  22.437  0.00  0.00    +0.000 A 
ATOM     13  C   UNL     1      -3.941  14.769  22.728  0.00  0.00    +0.000 A 
ATOM     14  C   UNL     1      -3.728  15.589  23.833  0.00  0.00    +0.000 A 
ATOM     15  N   UNL     1      -2.613  15.561  24.612  0.00  0.00    +0.000 NA
ATOM     16  C   UNL     1      -1.650  14.669  24.285  0.00  0.00    +0.000 A 
ATOM     17  C   UNL     1      -1.781  13.813  23.218  0.00  0.00    +0.000 A 
ATOM     18  C   UNL     1      -0.840  12.783  22.700  0.00  0.00    +0.000 C 
ATOM     19  H   UNL     1       0.222  10.565  22.052  0.00  0.00    +0.000 HD
ENDBRANCH   4   7
BRANCH   1  20
ATOM     20  O   UNL     1       2.974   6.856  18.049  0.00  0.00    +0.000 OA
BRANCH  20  24
ATOM     21  N   UNL     1       5.844   4.758  17.884  0.00  0.00    +0.000 NA
ATOM     22  C   UNL     1       5.464   5.644  19.028  0.00  0.00    +0.000 C 
ATOM     23  C   UNL     1       4.095   5.261  19.558  0.00  0.00    +0.000 C 
ATOM     24  C   UNL     1       3.035   5.480  18.477  0.00  0.00    +0.000 C 
ATOM     25  C   UNL     1       3.409   4.571  17.295  0.00  0.00    +0.000 C 
ATOM     26  C   UNL     1       4.827   4.832  16.778  0.00  0.00    +0.000 C 
BRANCH  21  27
ATOM     27  S   UNL     1       7.460   5.090  17.378  0.00  0.00    +0.000 S 
ATOM     28  O   UNL     1       7.425   5.379  15.958  0.00  0.00    +0.000 OA
ATOM     29  O   UNL     1       8.313   4.049  17.906  0.00  0.00    +0.000 OA
BRANCH  27  30
ATOM     30  C   UNL     1       7.853   6.639  18.208  0.00  0.00    +0.000 C 
BRANCH  30  31
ATOM     31  C   UNL     1       7.747   7.783  17.193  0.00  0.00    +0.000 C 
BRANCH  31  33
ATOM     32  C   UNL     1       8.924   9.280  18.832  0.00  0.00    +0.000 C 
ATOM     33  C   UNL     1       7.770   9.161  17.844  0.00  0.00    +0.000 C 
ENDBRANCH  31  33
ENDBRANCH  30  31
ENDBRANCH  27  30
ENDBRANCH  21  27
ENDBRANCH  20  24
ENDBRANCH   1  20
TORSDOF 7
ENDMDL
MODEL 7
REMARK VINA RESULT:      -7.8      1.196      1.740
REMARK  Name = 
REMARK  8 active torsions:
REMARK  status: ('A' for Active; 'I' for Inactive)
REMARK    1  A    between atoms: C_1  and  C_2
REMARK    2  A    between atoms: C_2  and  C_3
REMARK    3  A    between atoms: C_3  and  C_4
REMARK    4  A    between atoms: C_4  and  S_5
REMARK    5  A    between atoms: S_5  and  N_8
REMARK    6  A    between atoms: C_11  and  O_12
REMARK    7  A    between atoms: O_12  and  C_13
REMARK    8  A    between atoms: C_16  and  N_17
REMARK                            x       y       z     vdW  Elec       q    Type
REMARK                         _______ _______ _______ _____ _____    ______ ____
ROOT
ATOM      1  C   UNL     1       2.189   7.339  18.551  0.00  0.00    +0.000 A 
ATOM      2  C   UNL     1       2.008   7.219  19.933  0.00  0.00    +0.000 A 
ATOM      3  C   UNL     1       1.550   8.310  20.691  0.00  0.00    +0.000 A 
ATOM      4  C   UNL     1       1.294   9.547  20.091  0.00  0.00    +0.000 A 
ATOM      5  C   UNL     1       1.472   9.659  18.708  0.00  0.00    +0.000 A 
ATOM      6  C   UNL     1       1.935   8.573  17.955  0.00  0.00    +0.000 A 
ENDROOT
BRANCH   4   7
ATOM      7  N   UNL     1       0.858  10.691  20.800  0.00  0.00    +0.000 N 
ATOM      8  C   UNL     1      -0.225  10.746  21.651  0.00  0.00    +0.000 C 
ATOM      9  O   UNL     1      -0.940   9.796  21.950  0.00  0.00    +0.000 OA
ATOM     10  N   UNL     1      -0.457  11.993  22.212  0.00  0.00    +0.000 N 
ATOM     11  C   UNL     1      -1.530  12.154  23.202  0.00  0.00    +0.000 C 
ATOM     12  C   UNL     1      -1.629  13.636  23.380  0.00  0.00    +0.000 A 
ATOM     13  C   UNL     1      -2.427  14.372  24.236  0.00  0.00    +0.000 A 
ATOM     14  C   UNL     1      -2.305  15.756  24.150  0.00  0.00    +0.000 A 
ATOM     15  N   UNL     1      -1.480  16.406  23.285  0.00  0.00    +0.000 NA
ATOM     16  C   UNL     1      -0.725  15.647  22.458  0.00  0.00    +0.000 A 
ATOM     17  C   UNL     1      -0.772  14.275  22.483  0.00  0.00    +0.000 A 
ATOM     18  C   UNL     1      -0.036  13.279  21.656  0.00  0.00    +0.000 C 
ATOM     19  H   UNL     1       1.536  11.427  20.907  0.00  0.00    +0.000 HD
ENDBRANCH   4   7
BRANCH   1  20
ATOM     20  O   UNL     1       2.581   6.207  17.878  0.00  0.00    +0.000 OA
BRANCH  20  24
ATOM     21  N   UNL     1       5.742   4.661  17.347  0.00  0.00    +0.000 NA
ATOM     22  C   UNL     1       5.477   5.849  18.215  0.00  0.00    +0.000 C 
ATOM     23  C   UNL     1       4.471   5.499  19.295  0.00  0.00    +0.000 C 
ATOM     24  C   UNL     1       3.130   5.126  18.659  0.00  0.00    +0.000 C 
ATOM     25  C   UNL     1       3.384   3.900  17.767  0.00  0.00    +0.000 C 
ATOM     26  C   UNL     1       4.473   4.153  16.718  0.00  0.00    +0.000 C 
BRANCH  21  27
ATOM     27  S   UNL     1       6.996   5.012  16.214  0.00  0.00    +0.000 S 
ATOM     28  O   UNL     1       8.075   4.073  16.448  0.00  0.00    +0.000 OA
ATOM     29  O   UNL     1       7.230   6.439  16.241  0.00  0.00    +0.000 OA
BRANCH  27  30
ATOM     30  C   UNL     1       6.267   4.573  14.627  0.00  0.00    +0.000 C 
BRANCH  30  31
ATOM     31  C   UNL     1       7.312   4.791  13.527  0.00  0.00    +0.000 C 
BRANCH  31  33
ATOM     32  C   UNL     1       5.686   3.260  12.375  0.00  0.00    +0.000 C 
ATOM     33  C   UNL     1       6.986   4.045  12.239  0.00  0.00    +0.000 C 
ENDBRANCH  31  33
ENDBRANCH  30  31
ENDBRANCH  27  30
ENDBRANCH  21  27
ENDBRANCH  20  24
ENDBRANCH   1  20
TORSDOF 7
ENDMDL
MODEL 8
REMARK VINA RESULT:      -7.8      1.797      2.225
REMARK  Name = 
REMARK  8 active torsions:
REMARK  status: ('A' for Active; 'I' for Inactive)
REMARK    1  A    between atoms: C_1  and  C_2
REMARK    2  A    between atoms: C_2  and  C_3
REMARK    3  A    between atoms: C_3  and  C_4
REMARK    4  A    between atoms: C_4  and  S_5
REMARK    5  A    between atoms: S_5  and  N_8
REMARK    6  A    between atoms: C_11  and  O_12
REMARK    7  A    between atoms: O_12  and  C_13
REMARK    8  A    between atoms: C_16  and  N_17
REMARK                            x       y       z     vdW  Elec       q    Type
REMARK                         _______ _______ _______ _____ _____    ______ ____
ROOT
ATOM      1  C   UNL     1       2.165   6.400  19.092  0.00  0.00    +0.000 A 
ATOM      2  C   UNL     1       1.735   6.494  20.421  0.00  0.00    +0.000 A 
ATOM      3  C   UNL     1       1.290   7.721  20.943  0.00  0.00    +0.000 A 
ATOM      4  C   UNL     1       1.296   8.879  20.161  0.00  0.00    +0.000 A 
ATOM      5  C   UNL     1       1.721   8.778  18.832  0.00  0.00    +0.000 A 
ATOM      6  C   UNL     1       2.170   7.557  18.315  0.00  0.00    +0.000 A 
ENDROOT
BRANCH   4   7
ATOM      7  N   UNL     1       0.887  10.150  20.633  0.00  0.00    +0.000 N 
ATOM      8  C   UNL     1      -0.273  10.805  20.278  0.00  0.00    +0.000 C 
ATOM      9  O   UNL     1      -1.140  10.359  19.534  0.00  0.00    +0.000 OA
ATOM     10  N   UNL     1      -0.436  12.051  20.865  0.00  0.00    +0.000 N 
ATOM     11  C   UNL     1      -1.674  12.806  20.631  0.00  0.00    +0.000 C 
ATOM     12  C   UNL     1      -1.381  14.156  21.206  0.00  0.00    +0.000 A 
ATOM     13  C   UNL     1      -2.200  15.262  21.327  0.00  0.00    +0.000 A 
ATOM     14  C   UNL     1      -1.621  16.395  21.893  0.00  0.00    +0.000 A 
ATOM     15  N   UNL     1      -0.329  16.475  22.309  0.00  0.00    +0.000 NA
ATOM     16  C   UNL     1       0.441  15.373  22.163  0.00  0.00    +0.000 A 
ATOM     17  C   UNL     1      -0.050  14.208  21.625  0.00  0.00    +0.000 A 
ATOM     18  C   UNL     1       0.634  12.910  21.375  0.00  0.00    +0.000 C 
ATOM     19  H   UNL     1       1.326  10.465  21.482  0.00  0.00    +0.000 HD
ENDBRANCH   4   7
BRANCH   1  20
ATOM     20  O   UNL     1       2.524   5.152  18.646  0.00  0.00    +0.000 OA
BRANCH  20  24
ATOM     21  N   UNL     1       5.708   4.808  17.093  0.00  0.00    +0.000 NA
ATOM     22  C   UNL     1       5.250   5.970  17.915  0.00  0.00    +0.000 C 
ATOM     23  C   UNL     1       4.872   5.510  19.311  0.00  0.00    +0.000 C 
ATOM     24  C   UNL     1       3.689   4.542  19.241  0.00  0.00    +0.000 C 
ATOM     25  C   UNL     1       4.147   3.338  18.403  0.00  0.00    +0.000 C 
ATOM     26  C   UNL     1       4.646   3.746  17.012  0.00  0.00    +0.000 C 
BRANCH  21  27
ATOM     27  S   UNL     1       6.281   5.348  15.557  0.00  0.00    +0.000 S 
ATOM     28  O   UNL     1       7.679   5.699  15.708  0.00  0.00    +0.000 OA
ATOM     29  O   UNL     1       5.325   6.301  15.038  0.00  0.00    +0.000 OA
BRANCH  27  30
ATOM     30  C   UNL     1       6.230   3.862  14.541  0.00  0.00    +0.000 C 
BRANCH  30  31
ATOM     31  C   UNL     1       5.356   4.135  13.312  0.00  0.00    +0.000 C 
BRANCH  31  33
ATOM     32  C   UNL     1       4.319   3.110  11.266  0.00  0.00    +0.000 C 
ATOM     33  C   UNL     1       5.498   3.070  12.231  0.00  0.00    +0.000 C 
ENDBRANCH  31  33
ENDBRANCH  30  31
ENDBRANCH  27  30
ENDBRANCH  21  27
ENDBRANCH  20  24
ENDBRANCH   1  20
TORSDOF 7
ENDMDL
MODEL 9
REMARK VINA RESULT:      -7.7      1.263      1.453
REMARK  Name = 
REMARK  8 active torsions:
REMARK  status: ('A' for Active; 'I' for Inactive)
REMARK    1  A    between atoms: C_1  and  C_2
REMARK    2  A    between atoms: C_2  and  C_3
REMARK    3  A    between atoms: C_3  and  C_4
REMARK    4  A    between atoms: C_4  and  S_5
REMARK    5  A    between atoms: S_5  and  N_8
REMARK    6  A    between atoms: C_11  and  O_12
REMARK    7  A    between atoms: O_12  and  C_13
REMARK    8  A    between atoms: C_16  and  N_17
REMARK                            x       y       z     vdW  Elec       q    Type
REMARK                         _______ _______ _______ _____ _____    ______ ____
ROOT
ATOM      1  C   UNL     1       2.209   6.580  19.063  0.00  0.00    +0.000 A 
ATOM      2  C   UNL     1       1.981   7.662  18.205  0.00  0.00    +0.000 A 
ATOM      3  C   UNL     1       1.450   8.866  18.699  0.00  0.00    +0.000 A 
ATOM      4  C   UNL     1       1.109   9.002  20.048  0.00  0.00    +0.000 A 
ATOM      5  C   UNL     1       1.345   7.919  20.902  0.00  0.00    +0.000 A 
ATOM      6  C   UNL     1       1.867   6.718  20.407  0.00  0.00    +0.000 A 
ENDROOT
BRANCH   4   7
ATOM      7  N   UNL     1       0.546  10.176  20.604  0.00  0.00    +0.000 N 
ATOM      8  C   UNL     1       0.949  11.467  20.335  0.00  0.00    +0.000 C 
ATOM      9  O   UNL     1       1.827  11.784  19.541  0.00  0.00    +0.000 OA
ATOM     10  N   UNL     1       0.248  12.446  21.023  0.00  0.00    +0.000 N 
ATOM     11  C   UNL     1       0.530  13.863  20.753  0.00  0.00    +0.000 C 
ATOM     12  C   UNL     1      -0.220  14.584  21.828  0.00  0.00    +0.000 A 
ATOM     13  C   UNL     1      -0.374  15.941  22.040  0.00  0.00    +0.000 A 
ATOM     14  C   UNL     1      -1.121  16.307  23.156  0.00  0.00    +0.000 A 
ATOM     15  N   UNL     1      -1.682  15.429  24.031  0.00  0.00    +0.000 NA
ATOM     16  C   UNL     1      -1.498  14.110  23.792  0.00  0.00    +0.000 A 
ATOM     17  C   UNL     1      -0.784  13.659  22.709  0.00  0.00    +0.000 A 
ATOM     18  C   UNL     1      -0.467  12.267  22.286  0.00  0.00    +0.000 C 
ATOM     19  H   UNL     1      -0.376  10.078  20.996  0.00  0.00    +0.000 HD
ENDBRANCH   4   7
BRANCH   1  20
ATOM     20  O   UNL     1       2.786   5.464  18.509  0.00  0.00    +0.000 OA
BRANCH  20  24
ATOM     21  N   UNL     1       5.875   4.920  16.825  0.00  0.00    +0.000 NA
ATOM     22  C   UNL     1       5.441   6.192  17.482  0.00  0.00    +0.000 C 
ATOM     23  C   UNL     1       5.162   5.955  18.954  0.00  0.00    +0.000 C 
ATOM     24  C   UNL     1       4.000   4.972  19.115  0.00  0.00    +0.000 C 
ATOM     25  C   UNL     1       4.433   3.657  18.449  0.00  0.00    +0.000 C 
ATOM     26  C   UNL     1       4.834   3.845  16.982  0.00  0.00    +0.000 C 
BRANCH  21  27
ATOM     27  S   UNL     1       6.337   5.217  15.189  0.00  0.00    +0.000 S 
ATOM     28  O   UNL     1       7.785   5.268  15.145  0.00  0.00    +0.000 OA
ATOM     29  O   UNL     1       5.537   6.315  14.695  0.00  0.00    +0.000 OA
BRANCH  27  30
ATOM     30  C   UNL     1       5.849   3.711  14.332  0.00  0.00    +0.000 C 
BRANCH  30  31
ATOM     31  C   UNL     1       6.240   3.835  12.855  0.00  0.00    +0.000 C 
BRANCH  31  33
ATOM     32  C   UNL     1       4.267   3.233  11.421  0.00  0.00    +0.000 C 
ATOM     33  C   UNL     1       5.605   2.762  11.978  0.00  0.00    +0.000 C 
ENDBRANCH  31  33
ENDBRANCH  30  31
ENDBRANCH  27  30
ENDBRANCH  21  27
ENDBRANCH  20  24
ENDBRANCH   1  20
TORSDOF 7
ENDMDL
