MODEL 1
REMARK VINA RESULT:      -7.7      0.000      0.000
REMARK  Name = 
REMARK  6 active torsions:
REMARK  status: ('A' for Active; 'I' for Inactive)
REMARK    1  A    between atoms: C_1  and  C_2
REMARK    2  A    between atoms: C_2  and  O_3
REMARK    3  A    between atoms: O_3  and  C_4
REMARK    4  A    between atoms: C_8  and  C_9
REMARK    5  A    between atoms: C_13  and  C_14
REMARK    6  A    between atoms: C_21  and  O_22
REMARK                            x       y       z     vdW  Elec       q    Type
REMARK                         _______ _______ _______ _____ _____    ______ ____
ROOT
ATOM      1  C   UNL     1       2.595   7.364  18.410  0.00  0.00    +0.000 A 
ATOM      2  N   UNL     1       3.556   7.679  17.557  0.00  0.00    +0.000 NA
ATOM      3  C   UNL     1       4.052   6.482  17.089  0.00  0.00    +0.000 A 
ATOM      4  C   UNL     1       5.072   6.228  16.160  0.00  0.00    +0.000 A 
ATOM      5  C   UNL     1       5.421   4.891  15.896  0.00  0.00    +0.000 A 
ATOM      6  C   UNL     1       4.774   3.835  16.556  0.00  0.00    +0.000 A 
ATOM      7  C   UNL     1       3.738   4.075  17.463  0.00  0.00    +0.000 A 
ATOM      8  C   UNL     1       3.408   5.410  17.694  0.00  0.00    +0.000 A 
ATOM      9  N   UNL     1       2.477   5.997  18.508  0.00  0.00    +0.000 N 
ATOM     10  H   UNL     1       1.854   5.508  19.133  0.00  0.00    +0.000 HD
ENDROOT
BRANCH   1  15
ATOM     11  C   UNL     1       0.869  10.505  19.619  0.00  0.00    +0.000 A 
ATOM     12  C   UNL     1       0.569  10.141  20.936  0.00  0.00    +0.000 A 
ATOM     13  C   UNL     1       0.904   8.877  21.415  0.00  0.00    +0.000 A 
ATOM     14  C   UNL     1       1.551   7.965  20.585  0.00  0.00    +0.000 A 
ATOM     15  C   UNL     1       1.832   8.290  19.247  0.00  0.00    +0.000 A 
ATOM     16  C   UNL     1       1.432   9.550  18.758  0.00  0.00    +0.000 A 
BRANCH  16  17
ATOM     17  O   UNL     1       1.621   9.878  17.436  0.00  0.00    +0.000 OA
ATOM     18  H   UNL     1       2.577   9.777  17.243  0.00  0.00    +0.000 HD
ENDBRANCH  16  17
BRANCH  11  19
ATOM     19  O   UNL     1       0.651  11.771  19.126  0.00  0.00    +0.000 OA
BRANCH  19  21
ATOM     20  C   UNL     1      -1.553  11.620  18.142  0.00  0.00    +0.000 C 
ATOM     21  C   UNL     1      -0.702  12.226  19.242  0.00  0.00    +0.000 C 
ENDBRANCH  19  21
ENDBRANCH  11  19
ENDBRANCH   1  15
BRANCH   5  22
ATOM     22  C   UNL     1       6.516   4.606  14.925  0.00  0.00    +0.000 C 
ATOM     23  N   UNL     1       7.620   5.282  14.887  0.00  0.00    +0.000 NA
ATOM     24  N   UNL     1       6.386   3.603  14.011  0.00  0.00    +0.000 N 
ATOM     25  H   UNL     1       7.663   5.981  15.632  0.00  0.00    +0.000 HD
ATOM     26  H   UNL     1       5.459   3.456  13.631  0.00  0.00    +0.000 HD
ATOM     27  H   UNL     1       7.102   3.670  13.292  0.00  0.00    +0.000 HD
ENDBRANCH   5  22
TORSDOF 5
ENDMDL
MODEL 2
REMARK VINA RESULT:      -7.7      0.861      1.251
REMARK  Name = 
REMARK  6 active torsions:
REMARK  status: ('A' for Active; 'I' for Inactive)
REMARK    1  A    between atoms: C_1  and  C_2
REMARK    2  A    between atoms: C_2  and  O_3
REMARK    3  A    between atoms: O_3  and  C_4
REMARK    4  A    between atoms: C_8  and  C_9
REMARK    5  A    between atoms: C_13  and  C_14
REMARK    6  A    between atoms: C_21  and  O_22
REMARK                            x       y       z     vdW  Elec       q    Type
REMARK                         _______ _______ _______ _____ _____    ______ ____
ROOT
ATOM      1  C   UNL     1       2.621   7.304  18.427  0.00  0.00    +0.000 A 
ATOM      2  N   UNL     1       3.563   7.619  17.553  0.00  0.00    +0.000 NA
ATOM      3  C   UNL     1       4.062   6.421  17.088  0.00  0.00    +0.000 A 
ATOM      4  C   UNL     1       5.066   6.167  16.143  0.00  0.00    +0.000 A 
ATOM      5  C   UNL     1       5.423   4.831  15.886  0.00  0.00    +0.000 A 
ATOM      6  C   UNL     1       4.798   3.775  16.568  0.00  0.00    +0.000 A 
ATOM      7  C   UNL     1       3.776   4.016  17.493  0.00  0.00    +0.000 A 
ATOM      8  C   UNL     1       3.439   5.350  17.716  0.00  0.00    +0.000 A 
ATOM      9  N   UNL     1       2.518   5.937  18.541  0.00  0.00    +0.000 N 
ATOM     10  H   UNL     1       1.911   5.449  19.182  0.00  0.00    +0.000 HD
ENDROOT
BRANCH   1  15
ATOM     11  C   UNL     1       0.893  10.443  19.638  0.00  0.00    +0.000 A 
ATOM     12  C   UNL     1       0.617  10.088  20.962  0.00  0.00    +0.000 A 
ATOM     13  C   UNL     1       0.969   8.830  21.447  0.00  0.00    +0.000 A 
ATOM     14  C   UNL     1       1.608   7.916  20.614  0.00  0.00    +0.000 A 
ATOM     15  C   UNL     1       1.865   8.232  19.269  0.00  0.00    +0.000 A 
ATOM     16  C   UNL     1       1.450   9.485  18.776  0.00  0.00    +0.000 A 
BRANCH  16  17
ATOM     17  O   UNL     1       1.615   9.803  17.448  0.00  0.00    +0.000 OA
ATOM     18  H   UNL     1       0.814   9.495  16.972  0.00  0.00    +0.000 HD
ENDBRANCH  16  17
BRANCH  11  19
ATOM     19  O   UNL     1       0.659  11.703  19.138  0.00  0.00    +0.000 OA
BRANCH  19  21
ATOM     20  C   UNL     1       2.473  13.099  18.358  0.00  0.00    +0.000 C 
ATOM     21  C   UNL     1       1.619  12.687  19.541  0.00  0.00    +0.000 C 
ENDBRANCH  19  21
ENDBRANCH  11  19
ENDBRANCH   1  15
BRANCH   5  22
ATOM     22  C   UNL     1       6.502   4.545  14.898  0.00  0.00    +0.000 C 
ATOM     23  N   UNL     1       6.423   3.595  14.021  0.00  0.00    +0.000 NA
ATOM     24  N   UNL     1       7.646   5.286  14.889  0.00  0.00    +0.000 N 
ATOM     25  H   UNL     1       5.520   3.119  14.058  0.00  0.00    +0.000 HD
ATOM     26  H   UNL     1       7.992   5.593  15.790  0.00  0.00    +0.000 HD
ATOM     27  H   UNL     1       8.362   4.845  14.320  0.00  0.00    +0.000 HD
ENDBRANCH   5  22
TORSDOF 5
ENDMDL
MODEL 3
REMARK VINA RESULT:      -7.4      1.733      2.365
REMARK  Name = 
REMARK  6 active torsions:
REMARK  status: ('A' for Active; 'I' for Inactive)
REMARK    1  A    between atoms: C_1  and  C_2
REMARK    2  A    between atoms: C_2  and  O_3
REMARK    3  A    between atoms: O_3  and  C_4
REMARK    4  A    between atoms: C_8  and  C_9
REMARK    5  A    between atoms: C_13  and  C_14
REMARK    6  A    between atoms: C_21  and  O_22
REMARK                            x       y       z     vdW  Elec       q    Type
REMARK                         _______ _______ _______ _____ _____    ______ ____
ROOT
ATOM      1  C   UNL     1       2.390   7.735  18.273  0.00  0.00    +0.000 A 
ATOM      2  N   UNL     1       3.603   7.997  17.815  0.00  0.00    +0.000 NA
ATOM      3  C   UNL     1       4.157   6.777  17.494  0.00  0.00    +0.000 A 
ATOM      4  C   UNL     1       5.417   6.469  16.960  0.00  0.00    +0.000 A 
ATOM      5  C   UNL     1       5.754   5.116  16.775  0.00  0.00    +0.000 A 
ATOM      6  C   UNL     1       4.857   4.095  17.127  0.00  0.00    +0.000 A 
ATOM      7  C   UNL     1       3.588   4.392  17.634  0.00  0.00    +0.000 A 
ATOM      8  C   UNL     1       3.280   5.742  17.796  0.00  0.00    +0.000 A 
ATOM      9  N   UNL     1       2.163   6.378  18.266  0.00  0.00    +0.000 N 
ATOM     10  H   UNL     1       1.335   5.923  18.618  0.00  0.00    +0.000 HD
ENDROOT
BRANCH   1  15
ATOM     11  C   UNL     1       0.015   9.430  20.681  0.00  0.00    +0.000 A 
ATOM     12  C   UNL     1      -0.543  10.403  19.846  0.00  0.00    +0.000 A 
ATOM     13  C   UNL     1      -0.133  10.520  18.520  0.00  0.00    +0.000 A 
ATOM     14  C   UNL     1       0.837   9.659  18.012  0.00  0.00    +0.000 A 
ATOM     15  C   UNL     1       1.442   8.696  18.837  0.00  0.00    +0.000 A 
ATOM     16  C   UNL     1       1.060   8.629  20.192  0.00  0.00    +0.000 A 
BRANCH  16  17
ATOM     17  O   UNL     1       1.682   7.752  21.050  0.00  0.00    +0.000 OA
ATOM     18  H   UNL     1       1.931   8.257  21.854  0.00  0.00    +0.000 HD
ENDBRANCH  16  17
BRANCH  11  19
ATOM     19  O   UNL     1      -0.424   9.206  21.965  0.00  0.00    +0.000 OA
BRANCH  19  21
ATOM     20  C   UNL     1      -1.449  11.013  23.201  0.00  0.00    +0.000 C 
ATOM     21  C   UNL     1      -0.162  10.279  22.876  0.00  0.00    +0.000 C 
ENDBRANCH  19  21
ENDBRANCH  11  19
ENDBRANCH   1  15
BRANCH   5  22
ATOM     22  C   UNL     1       7.097   4.772  16.226  0.00  0.00    +0.000 C 
ATOM     23  N   UNL     1       8.003   4.150  16.912  0.00  0.00    +0.000 NA
ATOM     24  N   UNL     1       7.433   5.119  14.951  0.00  0.00    +0.000 N 
ATOM     25  H   UNL     1       7.659   3.882  17.837  0.00  0.00    +0.000 HD
ATOM     26  H   UNL     1       7.072   6.003  14.613  0.00  0.00    +0.000 HD
ATOM     27  H   UNL     1       8.432   5.016  14.797  0.00  0.00    +0.000 HD
ENDBRANCH   5  22
TORSDOF 5
ENDMDL
MODEL 4
REMARK VINA RESULT:      -7.3      2.631      3.575
REMARK  Name = 
REMARK  6 active torsions:
REMARK  status: ('A' for Active; 'I' for Inactive)
REMARK    1  A    between atoms: C_1  and  C_2
REMARK    2  A    between atoms: C_2  and  O_3
REMARK    3  A    between atoms: O_3  and  C_4
REMARK    4  A    between atoms: C_8  and  C_9
REMARK    5  A    between atoms: C_13  and  C_14
REMARK    6  A    between atoms: C_21  and  O_22
REMARK                            x       y       z     vdW  Elec       q    Type
REMARK                         _______ _______ _______ _____ _____    ______ ____
ROOT
ATOM      1  C   UNL     1       2.023   7.760  19.533  0.00  0.00    +0.000 A 
ATOM      2  N   UNL     1       2.018   6.647  20.249  0.00  0.00    +0.000 NA
ATOM      3  C   UNL     1       2.767   5.736  19.535  0.00  0.00    +0.000 A 
ATOM      4  C   UNL     1       3.096   4.406  19.833  0.00  0.00    +0.000 A 
ATOM      5  C   UNL     1       3.843   3.674  18.893  0.00  0.00    +0.000 A 
ATOM      6  C   UNL     1       4.240   4.254  17.678  0.00  0.00    +0.000 A 
ATOM      7  C   UNL     1       3.941   5.589  17.383  0.00  0.00    +0.000 A 
ATOM      8  C   UNL     1       3.210   6.290  18.340  0.00  0.00    +0.000 A 
ATOM      9  N   UNL     1       2.743   7.577  18.375  0.00  0.00    +0.000 N 
ATOM     10  H   UNL     1       2.848   8.258  17.639  0.00  0.00    +0.000 HD
ENDROOT
BRANCH   1  15
ATOM     11  C   UNL     1       0.236  10.501  21.432  0.00  0.00    +0.000 A 
ATOM     12  C   UNL     1      -0.335  11.214  20.373  0.00  0.00    +0.000 A 
ATOM     13  C   UNL     1      -0.120  10.819  19.054  0.00  0.00    +0.000 A 
ATOM     14  C   UNL     1       0.663   9.701  18.780  0.00  0.00    +0.000 A 
ATOM     15  C   UNL     1       1.281   8.987  19.822  0.00  0.00    +0.000 A 
ATOM     16  C   UNL     1       1.103   9.434  21.146  0.00  0.00    +0.000 A 
BRANCH  16  17
ATOM     17  O   UNL     1       1.751   8.809  22.187  0.00  0.00    +0.000 OA
ATOM     18  H   UNL     1       1.554   9.318  23.002  0.00  0.00    +0.000 HD
ENDBRANCH  16  17
BRANCH  11  19
ATOM     19  O   UNL     1      -0.024  10.786  22.752  0.00  0.00    +0.000 OA
BRANCH  19  21
ATOM     20  C   UNL     1      -1.414  12.709  23.221  0.00  0.00    +0.000 C 
ATOM     21  C   UNL     1      -1.368  11.207  23.012  0.00  0.00    +0.000 C 
ENDBRANCH  19  21
ENDBRANCH  11  19
ENDBRANCH   1  15
BRANCH   5  22
ATOM     22  C   UNL     1       4.183   2.252  19.186  0.00  0.00    +0.000 C 
ATOM     23  N   UNL     1       4.971   1.899  20.153  0.00  0.00    +0.000 NA
ATOM     24  N   UNL     1       3.673   1.246  18.421  0.00  0.00    +0.000 N 
ATOM     25  H   UNL     1       5.272   2.703  20.708  0.00  0.00    +0.000 HD
ATOM     26  H   UNL     1       3.564   1.440  17.433  0.00  0.00    +0.000 HD
ATOM     27  H   UNL     1       4.157   0.370  18.600  0.00  0.00    +0.000 HD
ENDBRANCH   5  22
TORSDOF 5
ENDMDL
MODEL 5
REMARK VINA RESULT:      -7.2      1.014      1.026
REMARK  Name = 
REMARK  6 active torsions:
REMARK  status: ('A' for Active; 'I' for Inactive)
REMARK    1  A    between atoms: C_1  and  C_2
REMARK    2  A    between atoms: C_2  and  O_3
REMARK    3  A    between atoms: O_3  and  C_4
REMARK    4  A    between atoms: C_8  and  C_9
REMARK    5  A    between atoms: C_13  and  C_14
REMARK    6  A    between atoms: C_21  and  O_22
REMARK                            x       y       z     vdW  Elec       q    Type
REMARK                         _______ _______ _______ _____ _____    ______ ____
ROOT
ATOM      1  C   UNL     1       2.403   7.647  19.014  0.00  0.00    +0.000 A 
ATOM      2  N   UNL     1       3.006   7.702  17.838  0.00  0.00    +0.000 NA
ATOM      3  C   UNL     1       3.843   6.607  17.792  0.00  0.00    +0.000 A 
ATOM      4  C   UNL     1       4.708   6.173  16.777  0.00  0.00    +0.000 A 
ATOM      5  C   UNL     1       5.499   5.034  17.013  0.00  0.00    +0.000 A 
ATOM      6  C   UNL     1       5.436   4.354  18.239  0.00  0.00    +0.000 A 
ATOM      7  C   UNL     1       4.557   4.763  19.248  0.00  0.00    +0.000 A 
ATOM      8  C   UNL     1       3.778   5.888  18.978  0.00  0.00    +0.000 A 
ATOM      9  N   UNL     1       2.844   6.555  19.724  0.00  0.00    +0.000 N 
ATOM     10  H   UNL     1       2.576   6.326  20.669  0.00  0.00    +0.000 HD
ENDROOT
BRANCH   1  15
ATOM     11  C   UNL     1       0.395  10.825  19.437  0.00  0.00    +0.000 A 
ATOM     12  C   UNL     1      -0.068  10.662  20.746  0.00  0.00    +0.000 A 
ATOM     13  C   UNL     1       0.251   9.518  21.474  0.00  0.00    +0.000 A 
ATOM     14  C   UNL     1       1.044   8.526  20.902  0.00  0.00    +0.000 A 
ATOM     15  C   UNL     1       1.493   8.646  19.575  0.00  0.00    +0.000 A 
ATOM     16  C   UNL     1       1.112   9.781  18.832  0.00  0.00    +0.000 A 
BRANCH  16  17
ATOM     17  O   UNL     1       1.467   9.900  17.508  0.00  0.00    +0.000 OA
ATOM     18  H   UNL     1       2.445   9.965  17.472  0.00  0.00    +0.000 HD
ENDBRANCH  16  17
BRANCH  11  19
ATOM     19  O   UNL     1       0.194  11.977  18.711  0.00  0.00    +0.000 OA
BRANCH  19  21
ATOM     20  C   UNL     1      -1.901  11.404  17.648  0.00  0.00    +0.000 C 
ATOM     21  C   UNL     1      -1.179  12.360  18.579  0.00  0.00    +0.000 C 
ENDBRANCH  19  21
ENDBRANCH  11  19
ENDBRANCH   1  15
BRANCH   5  22
ATOM     22  C   UNL     1       6.438   4.572  15.951  0.00  0.00    +0.000 C 
ATOM     23  N   UNL     1       7.407   5.302  15.497  0.00  0.00    +0.000 NA
ATOM     24  N   UNL     1       6.299   3.334  15.396  0.00  0.00    +0.000 N 
ATOM     25  H   UNL     1       7.476   6.192  15.995  0.00  0.00    +0.000 HD
ATOM     26  H   UNL     1       5.352   2.997  15.275  0.00  0.00    +0.000 HD
ATOM     27  H   UNL     1       6.861   3.247  14.554  0.00  0.00    +0.000 HD
ENDBRANCH   5  22
TORSDOF 5
ENDMDL
MODEL 6
REMARK VINA RESULT:      -7.2      2.867      7.936
REMARK  Name = 
REMARK  6 active torsions:
REMARK  status: ('A' for Active; 'I' for Inactive)
REMARK    1  A    between atoms: C_1  and  C_2
REMARK    2  A    between atoms: C_2  and  O_3
REMARK    3  A    between atoms: O_3  and  C_4
REMARK    4  A    between atoms: C_8  and  C_9
REMARK    5  A    between atoms: C_13  and  C_14
REMARK    6  A    between atoms: C_21  and  O_22
REMARK                            x       y       z     vdW  Elec       q    Type
REMARK                         _______ _______ _______ _____ _____    ______ ____
ROOT
ATOM      1  C   UNL     1       2.612   6.677  18.696  0.00  0.00    +0.000 A 
ATOM      2  N   UNL     1       2.223   6.685  19.960  0.00  0.00    +0.000 NA
ATOM      3  C   UNL     1       1.607   7.902  20.158  0.00  0.00    +0.000 A 
ATOM      4  C   UNL     1       1.003   8.433  21.307  0.00  0.00    +0.000 A 
ATOM      5  C   UNL     1       0.488   9.741  21.249  0.00  0.00    +0.000 A 
ATOM      6  C   UNL     1       0.586  10.503  20.075  0.00  0.00    +0.000 A 
ATOM      7  C   UNL     1       1.161   9.973  18.915  0.00  0.00    +0.000 A 
ATOM      8  C   UNL     1       1.652   8.671  19.002  0.00  0.00    +0.000 A 
ATOM      9  N   UNL     1       2.274   7.863  18.088  0.00  0.00    +0.000 N 
ATOM     10  H   UNL     1       2.510   8.122  17.142  0.00  0.00    +0.000 HD
ENDROOT
BRANCH   1  15
ATOM     11  C   UNL     1       5.045   4.986  16.345  0.00  0.00    +0.000 A 
ATOM     12  C   UNL     1       4.755   3.641  16.601  0.00  0.00    +0.000 A 
ATOM     13  C   UNL     1       3.794   3.291  17.547  0.00  0.00    +0.000 A 
ATOM     14  C   UNL     1       3.106   4.283  18.242  0.00  0.00    +0.000 A 
ATOM     15  C   UNL     1       3.403   5.640  18.032  0.00  0.00    +0.000 A 
ATOM     16  C   UNL     1       4.419   5.978  17.117  0.00  0.00    +0.000 A 
BRANCH  16  17
ATOM     17  O   UNL     1       4.791   7.290  16.938  0.00  0.00    +0.000 OA
ATOM     18  H   UNL     1       5.504   7.482  17.584  0.00  0.00    +0.000 HD
ENDBRANCH  16  17
BRANCH  11  19
ATOM     19  O   UNL     1       5.909   5.387  15.353  0.00  0.00    +0.000 OA
BRANCH  19  21
ATOM     20  C   UNL     1       6.331   3.987  13.428  0.00  0.00    +0.000 C 
ATOM     21  C   UNL     1       6.748   4.345  14.841  0.00  0.00    +0.000 C 
ENDBRANCH  19  21
ENDBRANCH  11  19
ENDBRANCH   1  15
BRANCH   5  22
ATOM     22  C   UNL     1      -0.139  10.327  22.468  0.00  0.00    +0.000 C 
ATOM     23  N   UNL     1      -0.287  11.602  22.644  0.00  0.00    +0.000 NA
ATOM     24  N   UNL     1      -0.582   9.521  23.474  0.00  0.00    +0.000 N 
ATOM     25  H   UNL     1       0.022  12.135  21.828  0.00  0.00    +0.000 HD
ATOM     26  H   UNL     1      -0.036   8.689  23.660  0.00  0.00    +0.000 HD
ATOM     27  H   UNL     1      -0.780  10.059  24.313  0.00  0.00    +0.000 HD
ENDBRANCH   5  22
TORSDOF 5
ENDMDL
MODEL 7
REMARK VINA RESULT:      -7.1      1.238      1.542
REMARK  Name = 
REMARK  6 active torsions:
REMARK  status: ('A' for Active; 'I' for Inactive)
REMARK    1  A    between atoms: C_1  and  C_2
REMARK    2  A    between atoms: C_2  and  O_3
REMARK    3  A    between atoms: O_3  and  C_4
REMARK    4  A    between atoms: C_8  and  C_9
REMARK    5  A    between atoms: C_13  and  C_14
REMARK    6  A    between atoms: C_21  and  O_22
REMARK                            x       y       z     vdW  Elec       q    Type
REMARK                         _______ _______ _______ _____ _____    ______ ____
ROOT
ATOM      1  C   UNL     1       2.408   7.670  18.995  0.00  0.00    +0.000 A 
ATOM      2  N   UNL     1       3.038   7.732  17.833  0.00  0.00    +0.000 NA
ATOM      3  C   UNL     1       3.834   6.608  17.775  0.00  0.00    +0.000 A 
ATOM      4  C   UNL     1       4.702   6.167  16.766  0.00  0.00    +0.000 A 
ATOM      5  C   UNL     1       5.446   4.994  16.987  0.00  0.00    +0.000 A 
ATOM      6  C   UNL     1       5.333   4.286  18.194  0.00  0.00    +0.000 A 
ATOM      7  C   UNL     1       4.449   4.701  19.195  0.00  0.00    +0.000 A 
ATOM      8  C   UNL     1       3.719   5.861  18.941  0.00  0.00    +0.000 A 
ATOM      9  N   UNL     1       2.795   6.545  19.685  0.00  0.00    +0.000 N 
ATOM     10  H   UNL     1       2.499   6.302  20.618  0.00  0.00    +0.000 HD
ENDROOT
BRANCH   1  15
ATOM     11  C   UNL     1       0.462  10.885  19.429  0.00  0.00    +0.000 A 
ATOM     12  C   UNL     1       0.018  10.738  20.748  0.00  0.00    +0.000 A 
ATOM     13  C   UNL     1       0.330   9.593  21.477  0.00  0.00    +0.000 A 
ATOM     14  C   UNL     1       1.097   8.585  20.899  0.00  0.00    +0.000 A 
ATOM     15  C   UNL     1       1.525   8.688  19.565  0.00  0.00    +0.000 A 
ATOM     16  C   UNL     1       1.151   9.824  18.820  0.00  0.00    +0.000 A 
BRANCH  16  17
ATOM     17  O   UNL     1       1.487   9.929  17.489  0.00  0.00    +0.000 OA
ATOM     18  H   UNL     1       2.032   9.145  17.263  0.00  0.00    +0.000 HD
ENDBRANCH  16  17
BRANCH  11  19
ATOM     19  O   UNL     1       0.269  12.035  18.700  0.00  0.00    +0.000 OA
BRANCH  19  21
ATOM     20  C   UNL     1       2.403  13.159  18.870  0.00  0.00    +0.000 C 
ATOM     21  C   UNL     1       0.930  13.190  19.229  0.00  0.00    +0.000 C 
ENDBRANCH  19  21
ENDBRANCH  11  19
ENDBRANCH   1  15
BRANCH   5  22
ATOM     22  C   UNL     1       6.388   4.523  15.932  0.00  0.00    +0.000 C 
ATOM     23  N   UNL     1       6.332   3.338  15.412  0.00  0.00    +0.000 NA
ATOM     24  N   UNL     1       7.376   5.341  15.471  0.00  0.00    +0.000 N 
ATOM     25  H   UNL     1       5.538   2.804  15.772  0.00  0.00    +0.000 HD
ATOM     26  H   UNL     1       7.804   5.959  16.150  0.00  0.00    +0.000 HD
ATOM     27  H   UNL     1       8.057   4.820  14.927  0.00  0.00    +0.000 HD
ENDBRANCH   5  22
TORSDOF 5
ENDMDL
MODEL 8
REMARK VINA RESULT:      -7.0      3.224      8.047
REMARK  Name = 
REMARK  6 active torsions:
REMARK  status: ('A' for Active; 'I' for Inactive)
REMARK    1  A    between atoms: C_1  and  C_2
REMARK    2  A    between atoms: C_2  and  O_3
REMARK    3  A    between atoms: O_3  and  C_4
REMARK    4  A    between atoms: C_8  and  C_9
REMARK    5  A    between atoms: C_13  and  C_14
REMARK    6  A    between atoms: C_21  and  O_22
REMARK                            x       y       z     vdW  Elec       q    Type
REMARK                         _______ _______ _______ _____ _____    ______ ____
ROOT
ATOM      1  C   UNL     1       2.434   7.050  18.608  0.00  0.00    +0.000 A 
ATOM      2  N   UNL     1       2.016   7.025  19.863  0.00  0.00    +0.000 NA
ATOM      3  C   UNL     1       1.442   8.257  20.094  0.00  0.00    +0.000 A 
ATOM      4  C   UNL     1       0.832   8.767  21.249  0.00  0.00    +0.000 A 
ATOM      5  C   UNL     1       0.367  10.095  21.231  0.00  0.00    +0.000 A 
ATOM      6  C   UNL     1       0.520  10.896  20.089  0.00  0.00    +0.000 A 
ATOM      7  C   UNL     1       1.102  10.388  18.923  0.00  0.00    +0.000 A 
ATOM      8  C   UNL     1       1.542   9.066  18.969  0.00  0.00    +0.000 A 
ATOM      9  N   UNL     1       2.154   8.270  18.039  0.00  0.00    +0.000 N 
ATOM     10  H   UNL     1       2.421   8.556  17.109  0.00  0.00    +0.000 HD
ENDROOT
BRANCH   1  15
ATOM     11  C   UNL     1       3.542   3.657  17.355  0.00  0.00    +0.000 A 
ATOM     12  C   UNL     1       4.786   3.982  16.804  0.00  0.00    +0.000 A 
ATOM     13  C   UNL     1       5.246   5.297  16.821  0.00  0.00    +0.000 A 
ATOM     14  C   UNL     1       4.471   6.301  17.395  0.00  0.00    +0.000 A 
ATOM     15  C   UNL     1       3.201   6.010  17.922  0.00  0.00    +0.000 A 
ATOM     16  C   UNL     1       2.722   4.687  17.845  0.00  0.00    +0.000 A 
BRANCH  16  17
ATOM     17  O   UNL     1       1.455   4.376  18.281  0.00  0.00    +0.000 OA
ATOM     18  H   UNL     1       0.866   4.382  17.497  0.00  0.00    +0.000 HD
ENDBRANCH  16  17
BRANCH  11  19
ATOM     19  O   UNL     1       3.084   2.364  17.455  0.00  0.00    +0.000 OA
BRANCH  19  21
ATOM     20  C   UNL     1       3.881   2.185  19.731  0.00  0.00    +0.000 C 
ATOM     21  C   UNL     1       3.830   1.541  18.359  0.00  0.00    +0.000 C 
ENDBRANCH  19  21
ENDBRANCH  11  19
ENDBRANCH   1  15
BRANCH   5  22
ATOM     22  C   UNL     1      -0.266  10.657  22.458  0.00  0.00    +0.000 C 
ATOM     23  N   UNL     1      -0.375  11.930  22.677  0.00  0.00    +0.000 NA
ATOM     24  N   UNL     1      -0.756   9.831  23.425  0.00  0.00    +0.000 N 
ATOM     25  H   UNL     1      -0.031  12.480  21.888  0.00  0.00    +0.000 HD
ATOM     26  H   UNL     1      -0.241   8.975  23.592  0.00  0.00    +0.000 HD
ATOM     27  H   UNL     1      -0.953  10.346  24.279  0.00  0.00    +0.000 HD
ENDBRANCH   5  22
TORSDOF 5
ENDMDL
MODEL 9
REMARK VINA RESULT:      -7.0      3.286      7.802
REMARK  Name = 
REMARK  6 active torsions:
REMARK  status: ('A' for Active; 'I' for Inactive)
REMARK    1  A    between atoms: C_1  and  C_2
REMARK    2  A    between atoms: C_2  and  O_3
REMARK    3  A    between atoms: O_3  and  C_4
REMARK    4  A    between atoms: C_8  and  C_9
REMARK    5  A    between atoms: C_13  and  C_14
REMARK    6  A    between atoms: C_21  and  O_22
REMARK                            x       y       z     vdW  Elec       q    Type
REMARK                         _______ _______ _______ _____ _____    ______ ____
ROOT
ATOM      1  C   UNL     1       2.464   7.620  18.663  0.00  0.00    +0.000 A 
ATOM      2  N   UNL     1       1.936   8.478  17.805  0.00  0.00    +0.000 NA
ATOM      3  C   UNL     1       1.142   9.320  18.555  0.00  0.00    +0.000 A 
ATOM      4  C   UNL     1       0.360  10.414  18.158  0.00  0.00    +0.000 A 
ATOM      5  C   UNL     1      -0.406  11.078  19.133  0.00  0.00    +0.000 A 
ATOM      6  C   UNL     1      -0.400  10.650  20.470  0.00  0.00    +0.000 A 
ATOM      7  C   UNL     1       0.398   9.577  20.881  0.00  0.00    +0.000 A 
ATOM      8  C   UNL     1       1.154   8.947  19.893  0.00  0.00    +0.000 A 
ATOM      9  N   UNL     1       2.015   7.883  19.936  0.00  0.00    +0.000 N 
ATOM     10  H   UNL     1       2.229   7.336  20.756  0.00  0.00    +0.000 HD
ENDROOT
BRANCH   1  15
ATOM     11  C   UNL     1       4.070   4.199  18.839  0.00  0.00    +0.000 A 
ATOM     12  C   UNL     1       5.063   4.333  17.864  0.00  0.00    +0.000 A 
ATOM     13  C   UNL     1       5.191   5.517  17.140  0.00  0.00    +0.000 A 
ATOM     14  C   UNL     1       4.332   6.583  17.390  0.00  0.00    +0.000 A 
ATOM     15  C   UNL     1       3.302   6.465  18.338  0.00  0.00    +0.000 A 
ATOM     16  C   UNL     1       3.146   5.241  19.020  0.00  0.00    +0.000 A 
BRANCH  16  17
ATOM     17  O   UNL     1       2.104   5.059  19.900  0.00  0.00    +0.000 OA
ATOM     18  H   UNL     1       2.352   4.323  20.498  0.00  0.00    +0.000 HD
ENDBRANCH  16  17
BRANCH  11  19
ATOM     19  O   UNL     1       3.963   3.093  19.650  0.00  0.00    +0.000 OA
BRANCH  19  21
ATOM     20  C   UNL     1       2.182   1.821  18.622  0.00  0.00    +0.000 C 
ATOM     21  C   UNL     1       3.661   1.878  18.955  0.00  0.00    +0.000 C 
ENDBRANCH  19  21
ENDBRANCH  11  19
ENDBRANCH   1  15
BRANCH   5  22
ATOM     22  C   UNL     1      -1.258  12.232  18.724  0.00  0.00    +0.000 C 
ATOM     23  N   UNL     1      -2.167  12.746  19.490  0.00  0.00    +0.000 NA
ATOM     24  N   UNL     1      -1.114  12.795  17.491  0.00  0.00    +0.000 N 
ATOM     25  H   UNL     1      -2.180  12.304  20.412  0.00  0.00    +0.000 HD
ATOM     26  H   UNL     1      -0.893  12.165  16.730  0.00  0.00    +0.000 HD
ATOM     27  H   UNL     1      -1.893  13.412  17.278  0.00  0.00    +0.000 HD
ENDBRANCH   5  22
TORSDOF 5
ENDMDL
