MODEL 1
REMARK VINA RESULT:      -7.7      0.000      0.000
REMARK  Name = 
REMARK  4 active torsions:
REMARK  status: ('A' for Active; 'I' for Inactive)
REMARK    1  A    between atoms: C_1  and  C_2
REMARK    2  A    between atoms: C_2  and  C_3
REMARK    3  A    between atoms: C_2  and  C_4
REMARK    4  A    between atoms: C_4  and  N_5
REMARK                            x       y       z     vdW  Elec       q    Type
REMARK                         _______ _______ _______ _____ _____    ______ ____
ROOT
ATOM      1  N   UNL     1       1.910   7.120  19.923  0.00  0.00    +0.000 N 
ATOM      2  C   UNL     1       2.210   8.048  18.973  0.00  0.00    +0.000 A 
ATOM      3  C   UNL     1       3.069   7.784  17.907  0.00  0.00    +0.000 A 
ATOM      4  C   UNL     1       3.591   6.493  17.794  0.00  0.00    +0.000 A 
ATOM      5  C   UNL     1       4.452   5.816  16.884  0.00  0.00    +0.000 A 
ATOM      6  C   UNL     1       5.135   6.215  15.716  0.00  0.00    +0.000 A 
ATOM      7  C   UNL     1       5.914   5.288  15.020  0.00  0.00    +0.000 A 
ATOM      8  C   UNL     1       6.023   3.977  15.469  0.00  0.00    +0.000 A 
ATOM      9  C   UNL     1       5.360   3.555  16.626  0.00  0.00    +0.000 A 
ATOM     10  C   UNL     1       4.577   4.490  17.324  0.00  0.00    +0.000 A 
ATOM     11  N   UNL     1       3.820   4.363  18.480  0.00  0.00    +0.000 N 
ATOM     12  C   UNL     1       3.608   3.249  19.310  0.00  0.00    +0.000 A 
ATOM     13  O   UNL     1       4.113   2.171  19.083  0.00  0.00    +0.000 OA
ATOM     14  C   UNL     1       2.715   3.533  20.479  0.00  0.00    +0.000 A 
ATOM     15  C   UNL     1       2.155   4.733  20.728  0.00  0.00    +0.000 A 
ATOM     16  C   UNL     1       2.399   5.864  19.830  0.00  0.00    +0.000 A 
ATOM     17  C   UNL     1       3.230   5.581  18.758  0.00  0.00    +0.000 A 
ENDROOT
BRANCH   1  18
ATOM     18  C   UNL     1       1.023   7.547  21.051  0.00  0.00    +0.000 C 
BRANCH  18  20
ATOM     19  C   UNL     1      -0.296   9.679  20.694  0.00  0.00    +0.000 C 
ATOM     20  C   UNL     1       1.017   9.077  21.199  0.00  0.00    +0.000 C 
ATOM     21  C   UNL     1       1.234   9.489  22.659  0.00  0.00    +0.000 C 
ENDBRANCH  18  20
ENDBRANCH   1  18
TORSDOF 2
ENDMDL
MODEL 2
REMARK VINA RESULT:      -7.6      0.940      1.076
REMARK  Name = 
REMARK  4 active torsions:
REMARK  status: ('A' for Active; 'I' for Inactive)
REMARK    1  A    between atoms: C_1  and  C_2
REMARK    2  A    between atoms: C_2  and  C_3
REMARK    3  A    between atoms: C_2  and  C_4
REMARK    4  A    between atoms: C_4  and  N_5
REMARK                            x       y       z     vdW  Elec       q    Type
REMARK                         _______ _______ _______ _____ _____    ______ ____
ROOT
ATOM      1  N   UNL     1       1.798   8.143  19.562  0.00  0.00    +0.000 N 
ATOM      2  C   UNL     1       2.236   8.872  18.499  0.00  0.00    +0.000 A 
ATOM      3  C   UNL     1       3.122   8.364  17.550  0.00  0.00    +0.000 A 
ATOM      4  C   UNL     1       3.524   7.033  17.681  0.00  0.00    +0.000 A 
ATOM      5  C   UNL     1       4.365   6.144  16.951  0.00  0.00    +0.000 A 
ATOM      6  C   UNL     1       5.144   6.286  15.784  0.00  0.00    +0.000 A 
ATOM      7  C   UNL     1       5.868   5.195  15.299  0.00  0.00    +0.000 A 
ATOM      8  C   UNL     1       5.828   3.971  15.958  0.00  0.00    +0.000 A 
ATOM      9  C   UNL     1       5.067   3.803  17.119  0.00  0.00    +0.000 A 
ATOM     10  C   UNL     1       4.340   4.903  17.604  0.00  0.00    +0.000 A 
ATOM     11  N   UNL     1       3.513   5.034  18.711  0.00  0.00    +0.000 N 
ATOM     12  C   UNL     1       3.152   4.094  19.691  0.00  0.00    +0.000 A 
ATOM     13  O   UNL     1       3.564   2.954  19.674  0.00  0.00    +0.000 OA
ATOM     14  C   UNL     1       2.229   4.640  20.736  0.00  0.00    +0.000 A 
ATOM     15  C   UNL     1       1.773   5.909  20.752  0.00  0.00    +0.000 A 
ATOM     16  C   UNL     1       2.171   6.851  19.704  0.00  0.00    +0.000 A 
ATOM     17  C   UNL     1       3.027   6.326  18.750  0.00  0.00    +0.000 A 
ENDROOT
BRANCH   1  18
ATOM     18  C   UNL     1       0.897   8.823  20.545  0.00  0.00    +0.000 C 
BRANCH  18  20
ATOM     19  C   UNL     1      -0.935  10.241  19.520  0.00  0.00    +0.000 C 
ATOM     20  C   UNL     1       0.500  10.224  20.050  0.00  0.00    +0.000 C 
ATOM     21  C   UNL     1       0.639  11.261  21.169  0.00  0.00    +0.000 C 
ENDBRANCH  18  20
ENDBRANCH   1  18
TORSDOF 2
ENDMDL
MODEL 3
REMARK VINA RESULT:      -7.4      1.459      6.064
REMARK  Name = 
REMARK  4 active torsions:
REMARK  status: ('A' for Active; 'I' for Inactive)
REMARK    1  A    between atoms: C_1  and  C_2
REMARK    2  A    between atoms: C_2  and  C_3
REMARK    3  A    between atoms: C_2  and  C_4
REMARK    4  A    between atoms: C_4  and  N_5
REMARK                            x       y       z     vdW  Elec       q    Type
REMARK                         _______ _______ _______ _____ _____    ______ ____
ROOT
ATOM      1  N   UNL     1       5.166   4.498  16.155  0.00  0.00    +0.000 N 
ATOM      2  C   UNL     1       5.218   5.853  16.030  0.00  0.00    +0.000 A 
ATOM      3  C   UNL     1       4.474   6.714  16.835  0.00  0.00    +0.000 A 
ATOM      4  C   UNL     1       3.690   6.148  17.843  0.00  0.00    +0.000 A 
ATOM      5  C   UNL     1       2.827   6.642  18.863  0.00  0.00    +0.000 A 
ATOM      6  C   UNL     1       2.419   7.937  19.245  0.00  0.00    +0.000 A 
ATOM      7  C   UNL     1       1.549   8.097  20.326  0.00  0.00    +0.000 A 
ATOM      8  C   UNL     1       1.082   6.991  21.027  0.00  0.00    +0.000 A 
ATOM      9  C   UNL     1       1.467   5.695  20.668  0.00  0.00    +0.000 A 
ATOM     10  C   UNL     1       2.342   5.538  19.581  0.00  0.00    +0.000 A 
ATOM     11  N   UNL     1       2.886   4.398  19.005  0.00  0.00    +0.000 N 
ATOM     12  C   UNL     1       2.722   3.044  19.341  0.00  0.00    +0.000 A 
ATOM     13  O   UNL     1       2.018   2.689  20.262  0.00  0.00    +0.000 OA
ATOM     14  C   UNL     1       3.489   2.109  18.458  0.00  0.00    +0.000 A 
ATOM     15  C   UNL     1       4.271   2.507  17.435  0.00  0.00    +0.000 A 
ATOM     16  C   UNL     1       4.418   3.930  17.127  0.00  0.00    +0.000 A 
ATOM     17  C   UNL     1       3.697   4.778  17.953  0.00  0.00    +0.000 A 
ENDROOT
BRANCH   1  18
ATOM     18  C   UNL     1       5.966   3.682  15.188  0.00  0.00    +0.000 C 
BRANCH  18  20
ATOM     19  C   UNL     1       7.459   4.903  13.546  0.00  0.00    +0.000 C 
ATOM     20  C   UNL     1       6.049   4.376  13.818  0.00  0.00    +0.000 C 
ATOM     21  C   UNL     1       5.641   3.419  12.693  0.00  0.00    +0.000 C 
ENDBRANCH  18  20
ENDBRANCH   1  18
TORSDOF 2
ENDMDL
MODEL 4
REMARK VINA RESULT:      -7.2      1.905      4.094
REMARK  Name = 
REMARK  4 active torsions:
REMARK  status: ('A' for Active; 'I' for Inactive)
REMARK    1  A    between atoms: C_1  and  C_2
REMARK    2  A    between atoms: C_2  and  C_3
REMARK    3  A    between atoms: C_2  and  C_4
REMARK    4  A    between atoms: C_4  and  N_5
REMARK                            x       y       z     vdW  Elec       q    Type
REMARK                         _______ _______ _______ _____ _____    ______ ____
ROOT
ATOM      1  N   UNL     1       1.394   8.844  19.652  0.00  0.00    +0.000 N 
ATOM      2  C   UNL     1       0.845   8.386  20.811  0.00  0.00    +0.000 A 
ATOM      3  C   UNL     1       1.029   7.083  21.270  0.00  0.00    +0.000 A 
ATOM      4  C   UNL     1       1.859   6.241  20.525  0.00  0.00    +0.000 A 
ATOM      5  C   UNL     1       2.318   4.897  20.640  0.00  0.00    +0.000 A 
ATOM      6  C   UNL     1       2.090   3.873  21.581  0.00  0.00    +0.000 A 
ATOM      7  C   UNL     1       2.712   2.633  21.418  0.00  0.00    +0.000 A 
ATOM      8  C   UNL     1       3.553   2.401  20.337  0.00  0.00    +0.000 A 
ATOM      9  C   UNL     1       3.795   3.399  19.386  0.00  0.00    +0.000 A 
ATOM     10  C   UNL     1       3.167   4.644  19.553  0.00  0.00    +0.000 A 
ATOM     11  N   UNL     1       3.216   5.801  18.787  0.00  0.00    +0.000 N 
ATOM     12  C   UNL     1       3.915   6.074  17.599  0.00  0.00    +0.000 A 
ATOM     13  O   UNL     1       4.623   5.249  17.063  0.00  0.00    +0.000 OA
ATOM     14  C   UNL     1       3.695   7.462  17.079  0.00  0.00    +0.000 A 
ATOM     15  C   UNL     1       2.908   8.377  17.679  0.00  0.00    +0.000 A 
ATOM     16  C   UNL     1       2.204   8.048  18.919  0.00  0.00    +0.000 A 
ATOM     17  C   UNL     1       2.419   6.759  19.381  0.00  0.00    +0.000 A 
ENDROOT
BRANCH   1  18
ATOM     18  C   UNL     1       1.070  10.245  19.239  0.00  0.00    +0.000 C 
BRANCH  18  20
ATOM     19  C   UNL     1      -0.804  11.929  19.509  0.00  0.00    +0.000 C 
ATOM     20  C   UNL     1      -0.451  10.472  19.202  0.00  0.00    +0.000 C 
ATOM     21  C   UNL     1      -1.030  10.088  17.836  0.00  0.00    +0.000 C 
ENDBRANCH  18  20
ENDBRANCH   1  18
TORSDOF 2
ENDMDL
MODEL 5
REMARK VINA RESULT:      -7.2      1.341      5.944
REMARK  Name = 
REMARK  4 active torsions:
REMARK  status: ('A' for Active; 'I' for Inactive)
REMARK    1  A    between atoms: C_1  and  C_2
REMARK    2  A    between atoms: C_2  and  C_3
REMARK    3  A    between atoms: C_2  and  C_4
REMARK    4  A    between atoms: C_4  and  N_5
REMARK                            x       y       z     vdW  Elec       q    Type
REMARK                         _______ _______ _______ _____ _____    ______ ____
ROOT
ATOM      1  N   UNL     1       4.885   5.053  16.730  0.00  0.00    +0.000 N 
ATOM      2  C   UNL     1       4.753   6.324  16.259  0.00  0.00    +0.000 A 
ATOM      3  C   UNL     1       3.941   7.275  16.874  0.00  0.00    +0.000 A 
ATOM      4  C   UNL     1       3.287   6.910  18.053  0.00  0.00    +0.000 A 
ATOM      5  C   UNL     1       2.417   7.554  18.979  0.00  0.00    +0.000 A 
ATOM      6  C   UNL     1       1.861   8.848  19.048  0.00  0.00    +0.000 A 
ATOM      7  C   UNL     1       1.030   9.187  20.119  0.00  0.00    +0.000 A 
ATOM      8  C   UNL     1       0.746   8.260  21.115  0.00  0.00    +0.000 A 
ATOM      9  C   UNL     1       1.281   6.968  21.069  0.00  0.00    +0.000 A 
ATOM     10  C   UNL     1       2.116   6.630  19.991  0.00  0.00    +0.000 A 
ATOM     11  N   UNL     1       2.777   5.449  19.685  0.00  0.00    +0.000 N 
ATOM     12  C   UNL     1       2.808   4.222  20.369  0.00  0.00    +0.000 A 
ATOM     13  O   UNL     1       2.201   4.045  21.403  0.00  0.00    +0.000 OA
ATOM     14  C   UNL     1       3.648   3.180  19.695  0.00  0.00    +0.000 A 
ATOM     15  C   UNL     1       4.322   3.382  18.545  0.00  0.00    +0.000 A 
ATOM     16  C   UNL     1       4.265   4.680  17.872  0.00  0.00    +0.000 A 
ATOM     17  C   UNL     1       3.480   5.627  18.509  0.00  0.00    +0.000 A 
ENDROOT
BRANCH   1  18
ATOM     18  C   UNL     1       5.738   4.108  15.943  0.00  0.00    +0.000 C 
BRANCH  18  20
ATOM     19  C   UNL     1       7.500   4.996  14.355  0.00  0.00    +0.000 C 
ATOM     20  C   UNL     1       6.018   4.659  14.535  0.00  0.00    +0.000 C 
ATOM     21  C   UNL     1       5.592   3.657  13.458  0.00  0.00    +0.000 C 
ENDBRANCH  18  20
ENDBRANCH   1  18
TORSDOF 2
ENDMDL
MODEL 6
REMARK VINA RESULT:      -7.1      2.903      4.469
REMARK  Name = 
REMARK  4 active torsions:
REMARK  status: ('A' for Active; 'I' for Inactive)
REMARK    1  A    between atoms: C_1  and  C_2
REMARK    2  A    between atoms: C_2  and  C_3
REMARK    3  A    between atoms: C_2  and  C_4
REMARK    4  A    between atoms: C_4  and  N_5
REMARK                            x       y       z     vdW  Elec       q    Type
REMARK                         _______ _______ _______ _____ _____    ______ ____
ROOT
ATOM      1  N   UNL     1       4.143   3.666  18.779  0.00  0.00    +0.000 N 
ATOM      2  C   UNL     1       3.611   2.793  17.879  0.00  0.00    +0.000 A 
ATOM      3  C   UNL     1       3.987   2.773  16.536  0.00  0.00    +0.000 A 
ATOM      4  C   UNL     1       4.991   3.653  16.127  0.00  0.00    +0.000 A 
ATOM      5  C   UNL     1       5.665   3.936  14.904  0.00  0.00    +0.000 A 
ATOM      6  C   UNL     1       5.558   3.418  13.597  0.00  0.00    +0.000 A 
ATOM      7  C   UNL     1       6.392   3.909  12.589  0.00  0.00    +0.000 A 
ATOM      8  C   UNL     1       7.324   4.903  12.864  0.00  0.00    +0.000 A 
ATOM      9  C   UNL     1       7.448   5.437  14.151  0.00  0.00    +0.000 A 
ATOM     10  C   UNL     1       6.609   4.941  15.162  0.00  0.00    +0.000 A 
ATOM     11  N   UNL     1       6.505   5.272  16.506  0.00  0.00    +0.000 N 
ATOM     12  C   UNL     1       7.218   6.215  17.266  0.00  0.00    +0.000 A 
ATOM     13  O   UNL     1       8.087   6.909  16.784  0.00  0.00    +0.000 OA
ATOM     14  C   UNL     1       6.796   6.269  18.703  0.00  0.00    +0.000 A 
ATOM     15  C   UNL     1       5.830   5.496  19.236  0.00  0.00    +0.000 A 
ATOM     16  C   UNL     1       5.119   4.522  18.405  0.00  0.00    +0.000 A 
ATOM     17  C   UNL     1       5.523   4.490  17.080  0.00  0.00    +0.000 A 
ENDROOT
BRANCH   1  18
ATOM     18  C   UNL     1       3.610   3.628  20.177  0.00  0.00    +0.000 C 
BRANCH  18  20
ATOM     19  C   UNL     1       1.390   2.957  21.197  0.00  0.00    +0.000 C 
ATOM     20  C   UNL     1       2.093   3.878  20.196  0.00  0.00    +0.000 C 
ATOM     21  C   UNL     1       1.781   5.337  20.545  0.00  0.00    +0.000 C 
ENDBRANCH  18  20
ENDBRANCH   1  18
TORSDOF 2
ENDMDL
MODEL 7
REMARK VINA RESULT:      -6.9      2.346      6.475
REMARK  Name = 
REMARK  4 active torsions:
REMARK  status: ('A' for Active; 'I' for Inactive)
REMARK    1  A    between atoms: C_1  and  C_2
REMARK    2  A    between atoms: C_2  and  C_3
REMARK    3  A    between atoms: C_2  and  C_4
REMARK    4  A    between atoms: C_4  and  N_5
REMARK                            x       y       z     vdW  Elec       q    Type
REMARK                         _______ _______ _______ _____ _____    ______ ____
ROOT
ATOM      1  N   UNL     1       5.209   4.991  16.057  0.00  0.00    +0.000 N 
ATOM      2  C   UNL     1       5.312   3.645  16.235  0.00  0.00    +0.000 A 
ATOM      3  C   UNL     1       4.706   2.976  17.298  0.00  0.00    +0.000 A 
ATOM      4  C   UNL     1       3.919   3.726  18.175  0.00  0.00    +0.000 A 
ATOM      5  C   UNL     1       3.135   3.450  19.332  0.00  0.00    +0.000 A 
ATOM      6  C   UNL     1       2.858   2.273  20.057  0.00  0.00    +0.000 A 
ATOM      7  C   UNL     1       2.018   2.329  21.171  0.00  0.00    +0.000 A 
ATOM      8  C   UNL     1       1.454   3.535  21.572  0.00  0.00    +0.000 A 
ATOM      9  C   UNL     1       1.716   4.719  20.874  0.00  0.00    +0.000 A 
ATOM     10  C   UNL     1       2.561   4.658  19.754  0.00  0.00    +0.000 A 
ATOM     11  N   UNL     1       2.993   5.649  18.883  0.00  0.00    +0.000 N 
ATOM     12  C   UNL     1       2.712   7.026  18.862  0.00  0.00    +0.000 A 
ATOM     13  O   UNL     1       1.990   7.549  19.683  0.00  0.00    +0.000 OA
ATOM     14  C   UNL     1       3.388   7.759  17.744  0.00  0.00    +0.000 A 
ATOM     15  C   UNL     1       4.191   7.174  16.833  0.00  0.00    +0.000 A 
ATOM     16  C   UNL     1       4.449   5.734  16.891  0.00  0.00    +0.000 A 
ATOM     17  C   UNL     1       3.817   5.076  17.934  0.00  0.00    +0.000 A 
ENDROOT
BRANCH   1  18
ATOM     18  C   UNL     1       5.958   5.597  14.912  0.00  0.00    +0.000 C 
BRANCH  18  20
ATOM     19  C   UNL     1       5.650   3.844  13.109  0.00  0.00    +0.000 C 
ATOM     20  C   UNL     1       6.642   4.512  14.064  0.00  0.00    +0.000 C 
ATOM     21  C   UNL     1       7.805   5.097  13.256  0.00  0.00    +0.000 C 
ENDBRANCH  18  20
ENDBRANCH   1  18
TORSDOF 2
ENDMDL
MODEL 8
REMARK VINA RESULT:      -6.8      2.905      7.312
REMARK  Name = 
REMARK  4 active torsions:
REMARK  status: ('A' for Active; 'I' for Inactive)
REMARK    1  A    between atoms: C_1  and  C_2
REMARK    2  A    between atoms: C_2  and  C_3
REMARK    3  A    between atoms: C_2  and  C_4
REMARK    4  A    between atoms: C_4  and  N_5
REMARK                            x       y       z     vdW  Elec       q    Type
REMARK                         _______ _______ _______ _____ _____    ______ ____
ROOT
ATOM      1  N   UNL     1       2.477   6.603  19.108  0.00  0.00    +0.000 N 
ATOM      2  C   UNL     1       2.013   6.014  20.245  0.00  0.00    +0.000 A 
ATOM      3  C   UNL     1       1.301   6.712  21.219  0.00  0.00    +0.000 A 
ATOM      4  C   UNL     1       1.013   8.057  20.977  0.00  0.00    +0.000 A 
ATOM      5  C   UNL     1       0.319   9.093  21.667  0.00  0.00    +0.000 A 
ATOM      6  C   UNL     1      -0.353   9.151  22.905  0.00  0.00    +0.000 A 
ATOM      7  C   UNL     1      -0.960  10.343  23.307  0.00  0.00    +0.000 A 
ATOM      8  C   UNL     1      -0.905  11.472  22.498  0.00  0.00    +0.000 A 
ATOM      9  C   UNL     1      -0.241  11.444  21.267  0.00  0.00    +0.000 A 
ATOM     10  C   UNL     1       0.367  10.243  20.866  0.00  0.00    +0.000 A 
ATOM     11  N   UNL     1       1.083   9.921  19.721  0.00  0.00    +0.000 N 
ATOM     12  C   UNL     1       1.417  10.710  18.607  0.00  0.00    +0.000 A 
ATOM     13  O   UNL     1       1.084  11.872  18.516  0.00  0.00    +0.000 OA
ATOM     14  C   UNL     1       2.214   9.979  17.571  0.00  0.00    +0.000 A 
ATOM     15  C   UNL     1       2.583   8.686  17.675  0.00  0.00    +0.000 A 
ATOM     16  C   UNL     1       2.205   7.902  18.852  0.00  0.00    +0.000 A 
ATOM     17  C   UNL     1       1.471   8.598  19.799  0.00  0.00    +0.000 A 
ENDROOT
BRANCH   1  18
ATOM     18  C   UNL     1       3.282   5.759  18.170  0.00  0.00    +0.000 C 
BRANCH  18  20
ATOM     19  C   UNL     1       2.441   3.490  17.419  0.00  0.00    +0.000 C 
ATOM     20  C   UNL     1       3.158   4.268  18.525  0.00  0.00    +0.000 C 
ATOM     21  C   UNL     1       4.536   3.645  18.770  0.00  0.00    +0.000 C 
ENDBRANCH  18  20
ENDBRANCH   1  18
TORSDOF 2
ENDMDL
MODEL 9
REMARK VINA RESULT:      -6.7      3.471      7.450
REMARK  Name = 
REMARK  4 active torsions:
REMARK  status: ('A' for Active; 'I' for Inactive)
REMARK    1  A    between atoms: C_1  and  C_2
REMARK    2  A    between atoms: C_2  and  C_3
REMARK    3  A    between atoms: C_2  and  C_4
REMARK    4  A    between atoms: C_4  and  N_5
REMARK                            x       y       z     vdW  Elec       q    Type
REMARK                         _______ _______ _______ _____ _____    ______ ____
ROOT
ATOM      1  N   UNL     1       1.949   8.050  19.350  0.00  0.00    +0.000 N 
ATOM      2  C   UNL     1       2.152   8.673  18.156  0.00  0.00    +0.000 A 
ATOM      3  C   UNL     1       1.694   9.962  17.892  0.00  0.00    +0.000 A 
ATOM      4  C   UNL     1       1.052  10.651  18.924  0.00  0.00    +0.000 A 
ATOM      5  C   UNL     1       0.472  11.942  19.083  0.00  0.00    +0.000 A 
ATOM      6  C   UNL     1       0.317  13.048  18.222  0.00  0.00    +0.000 A 
ATOM      7  C   UNL     1      -0.301  14.209  18.693  0.00  0.00    +0.000 A 
ATOM      8  C   UNL     1      -0.764  14.283  20.001  0.00  0.00    +0.000 A 
ATOM      9  C   UNL     1      -0.626  13.200  20.876  0.00  0.00    +0.000 A 
ATOM     10  C   UNL     1      -0.005  12.034  20.399  0.00  0.00    +0.000 A 
ATOM     11  N   UNL     1       0.266  10.824  21.024  0.00  0.00    +0.000 N 
ATOM     12  C   UNL     1      -0.005  10.398  22.335  0.00  0.00    +0.000 A 
ATOM     13  O   UNL     1      -0.559  11.112  23.143  0.00  0.00    +0.000 OA
ATOM     14  C   UNL     1       0.451   9.000  22.618  0.00  0.00    +0.000 A 
ATOM     15  C   UNL     1       1.067   8.209  21.716  0.00  0.00    +0.000 A 
ATOM     16  C   UNL     1       1.334   8.699  20.364  0.00  0.00    +0.000 A 
ATOM     17  C   UNL     1       0.902   9.994  20.122  0.00  0.00    +0.000 A 
ENDROOT
BRANCH   1  18
ATOM     18  C   UNL     1       2.435   6.641  19.487  0.00  0.00    +0.000 C 
BRANCH  18  20
ATOM     19  C   UNL     1       4.168   5.659  17.922  0.00  0.00    +0.000 C 
ATOM     20  C   UNL     1       2.690   6.009  18.109  0.00  0.00    +0.000 C 
ATOM     21  C   UNL     1       1.843   4.746  17.919  0.00  0.00    +0.000 C 
ENDBRANCH  18  20
ENDBRANCH   1  18
TORSDOF 2
ENDMDL
