MODEL 1
REMARK VINA RESULT:      -7.8      0.000      0.000
REMARK  Name = 
REMARK  2 active torsions:
REMARK  status: ('A' for Active; 'I' for Inactive)
REMARK    1  A    between atoms: C_13  and  N_14
REMARK    2  A    between atoms: C_15  and  C_17
REMARK                            x       y       z     vdW  Elec       q    Type
REMARK                         _______ _______ _______ _____ _____    ______ ____
ROOT
ATOM      1  O   UNL     1       7.087   6.816  16.385  0.00  0.00    +0.000 OA
ATOM      2  C   UNL     1       6.406   5.860  16.758  0.00  0.00    +0.000 C 
ATOM      3  C   UNL     1       5.500   5.947  17.976  0.00  0.00    +0.000 C 
ATOM      4  N   UNL     1       4.530   4.858  18.041  0.00  0.00    +0.000 N 
ATOM      5  C   UNL     1       4.682   3.772  17.199  0.00  0.00    +0.000 C 
ATOM      6  N   UNL     1       5.607   3.625  16.295  0.00  0.00    +0.000 NA
ATOM      7  N   UNL     1       6.477   4.651  16.118  0.00  0.00    +0.000 N 
ATOM      8  C   UNL     1       3.618   2.677  17.249  0.00  0.00    +0.000 C 
ATOM      9  O   UNL     1       2.765   2.614  18.368  0.00  0.00    +0.000 OA
ATOM     10  C   UNL     1       2.550   3.817  18.986  0.00  0.00    +0.000 A 
ATOM     11  C   UNL     1       1.391   3.859  19.754  0.00  0.00    +0.000 A 
ATOM     12  C   UNL     1       1.077   4.997  20.488  0.00  0.00    +0.000 A 
ATOM     13  C   UNL     1       1.940   6.089  20.505  0.00  0.00    +0.000 A 
ATOM     14  C   UNL     1       3.116   6.033  19.722  0.00  0.00    +0.000 A 
ATOM     15  C   UNL     1       3.427   4.916  18.913  0.00  0.00    +0.000 A 
ATOM     16  H   UNL     1       7.093   4.581  15.314  0.00  0.00    +0.000 HD
ENDROOT
BRANCH  13  17
ATOM     17  N   UNL     1       1.688   7.256  21.270  0.00  0.00    +0.000 N 
ATOM     18  C   UNL     1       1.320   8.511  20.784  0.00  0.00    +0.000 C 
ATOM     19  O   UNL     1       1.167   8.784  19.593  0.00  0.00    +0.000 OA
ATOM     20  H   UNL     1       1.794   7.169  22.274  0.00  0.00    +0.000 HD
BRANCH  18  21
ATOM     21  C   UNL     1       1.116   9.580  21.885  0.00  0.00    +0.000 C 
ATOM     22  C   UNL     1       0.140  10.737  21.562  0.00  0.00    +0.000 C 
ATOM     23  N   UNL     1      -0.300  10.690  22.976  0.00  0.00    +0.000 NA
ATOM     24  C   UNL     1       0.088   9.259  23.002  0.00  0.00    +0.000 C 
ATOM     25  H   UNL     1      -1.294  10.860  23.118  0.00  0.00    +0.000 HD
ENDBRANCH  18  21
ENDBRANCH  13  17
TORSDOF 2
ENDMDL
MODEL 2
REMARK VINA RESULT:      -7.0      2.236      3.860
REMARK  Name = 
REMARK  2 active torsions:
REMARK  status: ('A' for Active; 'I' for Inactive)
REMARK    1  A    between atoms: C_13  and  N_14
REMARK    2  A    between atoms: C_15  and  C_17
REMARK                            x       y       z     vdW  Elec       q    Type
REMARK                         _______ _______ _______ _____ _____    ______ ____
ROOT
ATOM      1  O   UNL     1       2.119   2.513  22.323  0.00  0.00    +0.000 OA
ATOM      2  C   UNL     1       2.435   2.944  21.214  0.00  0.00    +0.000 C 
ATOM      3  C   UNL     1       1.925   4.280  20.696  0.00  0.00    +0.000 C 
ATOM      4  N   UNL     1       2.679   4.769  19.546  0.00  0.00    +0.000 N 
ATOM      5  C   UNL     1       3.555   3.913  18.905  0.00  0.00    +0.000 C 
ATOM      6  N   UNL     1       3.819   2.686  19.247  0.00  0.00    +0.000 NA
ATOM      7  N   UNL     1       3.225   2.209  20.370  0.00  0.00    +0.000 N 
ATOM      8  C   UNL     1       4.374   4.471  17.741  0.00  0.00    +0.000 C 
ATOM      9  O   UNL     1       3.952   5.670  17.133  0.00  0.00    +0.000 OA
ATOM     10  C   UNL     1       3.260   6.513  17.960  0.00  0.00    +0.000 A 
ATOM     11  C   UNL     1       3.258   7.840  17.542  0.00  0.00    +0.000 A 
ATOM     12  C   UNL     1       2.543   8.798  18.250  0.00  0.00    +0.000 A 
ATOM     13  C   UNL     1       1.780   8.436  19.357  0.00  0.00    +0.000 A 
ATOM     14  C   UNL     1       1.788   7.085  19.771  0.00  0.00    +0.000 A 
ATOM     15  C   UNL     1       2.560   6.101  19.110  0.00  0.00    +0.000 A 
ATOM     16  H   UNL     1       3.556   1.308  20.703  0.00  0.00    +0.000 HD
ENDROOT
BRANCH  13  17
ATOM     17  N   UNL     1       0.999   9.366  20.090  0.00  0.00    +0.000 N 
ATOM     18  C   UNL     1      -0.076  10.116  19.611  0.00  0.00    +0.000 C 
ATOM     19  O   UNL     1      -0.499  10.076  18.456  0.00  0.00    +0.000 OA
ATOM     20  H   UNL     1       1.255   9.504  21.060  0.00  0.00    +0.000 HD
BRANCH  18  21
ATOM     21  C   UNL     1      -0.721  11.043  20.669  0.00  0.00    +0.000 C 
ATOM     22  C   UNL     1      -0.405  10.734  22.153  0.00  0.00    +0.000 C 
ATOM     23  N   UNL     1      -0.379  12.196  22.397  0.00  0.00    +0.000 NA
ATOM     24  C   UNL     1       0.006  12.380  20.976  0.00  0.00    +0.000 C 
ATOM     25  H   UNL     1       0.324  12.502  23.067  0.00  0.00    +0.000 HD
ENDBRANCH  18  21
ENDBRANCH  13  17
TORSDOF 2
ENDMDL
MODEL 3
REMARK VINA RESULT:      -7.0      3.706      8.669
REMARK  Name = 
REMARK  2 active torsions:
REMARK  status: ('A' for Active; 'I' for Inactive)
REMARK    1  A    between atoms: C_13  and  N_14
REMARK    2  A    between atoms: C_15  and  C_17
REMARK                            x       y       z     vdW  Elec       q    Type
REMARK                         _______ _______ _______ _____ _____    ______ ____
ROOT
ATOM      1  O   UNL     1       0.390   2.132  18.312  0.00  0.00    +0.000 OA
ATOM      2  C   UNL     1       1.423   2.716  18.642  0.00  0.00    +0.000 C 
ATOM      3  C   UNL     1       2.671   2.692  17.774  0.00  0.00    +0.000 C 
ATOM      4  N   UNL     1       3.645   3.712  18.150  0.00  0.00    +0.000 N 
ATOM      5  C   UNL     1       3.481   4.388  19.345  0.00  0.00    +0.000 C 
ATOM      6  N   UNL     1       2.499   4.236  20.185  0.00  0.00    +0.000 NA
ATOM      7  N   UNL     1       1.509   3.374  19.840  0.00  0.00    +0.000 N 
ATOM      8  C   UNL     1       4.482   5.491  19.683  0.00  0.00    +0.000 C 
ATOM      9  O   UNL     1       5.709   5.525  18.992  0.00  0.00    +0.000 OA
ATOM     10  C   UNL     1       5.664   4.993  17.731  0.00  0.00    +0.000 A 
ATOM     11  C   UNL     1       6.686   5.432  16.895  0.00  0.00    +0.000 A 
ATOM     12  C   UNL     1       6.803   4.928  15.605  0.00  0.00    +0.000 A 
ATOM     13  C   UNL     1       5.932   3.942  15.149  0.00  0.00    +0.000 A 
ATOM     14  C   UNL     1       4.900   3.502  16.009  0.00  0.00    +0.000 A 
ATOM     15  C   UNL     1       4.716   4.045  17.301  0.00  0.00    +0.000 A 
ATOM     16  H   UNL     1       0.684   3.380  20.432  0.00  0.00    +0.000 HD
ENDROOT
BRANCH  13  17
ATOM     17  N   UNL     1       6.034   3.364  13.858  0.00  0.00    +0.000 N 
ATOM     18  C   UNL     1       6.740   3.873  12.767  0.00  0.00    +0.000 C 
ATOM     19  O   UNL     1       7.381   4.924  12.776  0.00  0.00    +0.000 OA
ATOM     20  H   UNL     1       5.535   2.495  13.713  0.00  0.00    +0.000 HD
BRANCH  18  21
ATOM     21  C   UNL     1       6.653   2.998  11.494  0.00  0.00    +0.000 C 
ATOM     22  C   UNL     1       7.674   1.841  11.371  0.00  0.00    +0.000 C 
ATOM     23  N   UNL     1       6.601   1.030  10.748  0.00  0.00    +0.000 NA
ATOM     24  C   UNL     1       5.614   1.845  11.498  0.00  0.00    +0.000 C 
ATOM     25  H   UNL     1       6.613   0.044  11.001  0.00  0.00    +0.000 HD
ENDBRANCH  18  21
ENDBRANCH  13  17
TORSDOF 2
ENDMDL
MODEL 4
REMARK VINA RESULT:      -7.0      2.260      3.975
REMARK  Name = 
REMARK  2 active torsions:
REMARK  status: ('A' for Active; 'I' for Inactive)
REMARK    1  A    between atoms: C_13  and  N_14
REMARK    2  A    between atoms: C_15  and  C_17
REMARK                            x       y       z     vdW  Elec       q    Type
REMARK                         _______ _______ _______ _____ _____    ______ ____
ROOT
ATOM      1  O   UNL     1       2.195   3.031  22.317  0.00  0.00    +0.000 OA
ATOM      2  C   UNL     1       2.543   3.508  21.237  0.00  0.00    +0.000 C 
ATOM      3  C   UNL     1       1.904   4.766  20.671  0.00  0.00    +0.000 C 
ATOM      4  N   UNL     1       2.679   5.360  19.586  0.00  0.00    +0.000 N 
ATOM      5  C   UNL     1       3.714   4.633  19.025  0.00  0.00    +0.000 C 
ATOM      6  N   UNL     1       4.110   3.450  19.395  0.00  0.00    +0.000 NA
ATOM      7  N   UNL     1       3.493   2.891  20.467  0.00  0.00    +0.000 N 
ATOM      8  C   UNL     1       4.545   5.304  17.933  0.00  0.00    +0.000 C 
ATOM      9  O   UNL     1       4.019   6.439  17.285  0.00  0.00    +0.000 OA
ATOM     10  C   UNL     1       3.152   7.176  18.046  0.00  0.00    +0.000 A 
ATOM     11  C   UNL     1       3.007   8.493  17.622  0.00  0.00    +0.000 A 
ATOM     12  C   UNL     1       2.112   9.342  18.263  0.00  0.00    +0.000 A 
ATOM     13  C   UNL     1       1.314   8.873  19.303  0.00  0.00    +0.000 A 
ATOM     14  C   UNL     1       1.469   7.533  19.723  0.00  0.00    +0.000 A 
ATOM     15  C   UNL     1       2.419   6.666  19.135  0.00  0.00    +0.000 A 
ATOM     16  H   UNL     1       3.912   2.041  20.831  0.00  0.00    +0.000 HD
ENDROOT
BRANCH  13  17
ATOM     17  N   UNL     1       0.356   9.686  19.962  0.00  0.00    +0.000 N 
ATOM     18  C   UNL     1       0.498  10.306  21.204  0.00  0.00    +0.000 C 
ATOM     19  O   UNL     1       1.497  10.224  21.918  0.00  0.00    +0.000 OA
ATOM     20  H   UNL     1      -0.525   9.822  19.482  0.00  0.00    +0.000 HD
BRANCH  18  21
ATOM     21  C   UNL     1      -0.737  11.129  21.644  0.00  0.00    +0.000 C 
ATOM     22  C   UNL     1      -1.218  10.939  23.103  0.00  0.00    +0.000 C 
ATOM     23  N   UNL     1      -1.537  12.387  23.130  0.00  0.00    +0.000 NA
ATOM     24  C   UNL     1      -0.486  12.590  22.102  0.00  0.00    +0.000 C 
ATOM     25  H   UNL     1      -1.350  12.845  24.019  0.00  0.00    +0.000 HD
ENDBRANCH  18  21
ENDBRANCH  13  17
TORSDOF 2
ENDMDL
MODEL 5
REMARK VINA RESULT:      -7.0      2.426      4.001
REMARK  Name = 
REMARK  2 active torsions:
REMARK  status: ('A' for Active; 'I' for Inactive)
REMARK    1  A    between atoms: C_13  and  N_14
REMARK    2  A    between atoms: C_15  and  C_17
REMARK                            x       y       z     vdW  Elec       q    Type
REMARK                         _______ _______ _______ _____ _____    ______ ____
ROOT
ATOM      1  O   UNL     1       1.954   2.640  22.327  0.00  0.00    +0.000 OA
ATOM      2  C   UNL     1       2.587   2.927  21.310  0.00  0.00    +0.000 C 
ATOM      3  C   UNL     1       2.207   4.111  20.434  0.00  0.00    +0.000 C 
ATOM      4  N   UNL     1       3.265   4.492  19.504  0.00  0.00    +0.000 N 
ATOM      5  C   UNL     1       4.339   3.641  19.323  0.00  0.00    +0.000 C 
ATOM      6  N   UNL     1       4.537   2.513  19.941  0.00  0.00    +0.000 NA
ATOM      7  N   UNL     1       3.639   2.155  20.893  0.00  0.00    +0.000 N 
ATOM      8  C   UNL     1       5.458   4.095  18.388  0.00  0.00    +0.000 C 
ATOM      9  O   UNL     1       5.197   5.139  17.479  0.00  0.00    +0.000 OA
ATOM     10  C   UNL     1       4.238   6.024  17.892  0.00  0.00    +0.000 A 
ATOM     11  C   UNL     1       4.307   7.265  17.266  0.00  0.00    +0.000 A 
ATOM     12  C   UNL     1       3.358   8.243  17.541  0.00  0.00    +0.000 A 
ATOM     13  C   UNL     1       2.300   7.978  18.406  0.00  0.00    +0.000 A 
ATOM     14  C   UNL     1       2.239   6.714  19.033  0.00  0.00    +0.000 A 
ATOM     15  C   UNL     1       3.228   5.724  18.825  0.00  0.00    +0.000 A 
ATOM     16  H   UNL     1       3.888   1.353  21.464  0.00  0.00    +0.000 HD
ENDROOT
BRANCH  13  17
ATOM     17  N   UNL     1       1.283   8.926  18.688  0.00  0.00    +0.000 N 
ATOM     18  C   UNL     1       0.876   9.367  19.947  0.00  0.00    +0.000 C 
ATOM     19  O   UNL     1       1.353   8.977  21.013  0.00  0.00    +0.000 OA
ATOM     20  H   UNL     1       0.797   9.317  17.889  0.00  0.00    +0.000 HD
BRANCH  18  21
ATOM     21  C   UNL     1      -0.264  10.413  19.913  0.00  0.00    +0.000 C 
ATOM     22  C   UNL     1      -0.107  11.647  20.835  0.00  0.00    +0.000 C 
ATOM     23  N   UNL     1      -0.729  12.460  19.763  0.00  0.00    +0.000 NA
ATOM     24  C   UNL     1      -0.218  11.473  18.780  0.00  0.00    +0.000 C 
ATOM     25  H   UNL     1      -0.341  13.396  19.661  0.00  0.00    +0.000 HD
ENDBRANCH  18  21
ENDBRANCH  13  17
TORSDOF 2
ENDMDL
MODEL 6
REMARK VINA RESULT:      -6.9      2.997      7.543
REMARK  Name = 
REMARK  2 active torsions:
REMARK  status: ('A' for Active; 'I' for Inactive)
REMARK    1  A    between atoms: C_13  and  N_14
REMARK    2  A    between atoms: C_15  and  C_17
REMARK                            x       y       z     vdW  Elec       q    Type
REMARK                         _______ _______ _______ _____ _____    ______ ____
ROOT
ATOM      1  O   UNL     1      -1.407  10.713  23.407  0.00  0.00    +0.000 OA
ATOM      2  C   UNL     1      -0.673  10.895  22.435  0.00  0.00    +0.000 C 
ATOM      3  C   UNL     1       0.282   9.821  21.938  0.00  0.00    +0.000 C 
ATOM      4  N   UNL     1       0.789  10.089  20.595  0.00  0.00    +0.000 N 
ATOM      5  C   UNL     1       0.586  11.337  20.038  0.00  0.00    +0.000 C 
ATOM      6  N   UNL     1      -0.063  12.325  20.582  0.00  0.00    +0.000 NA
ATOM      7  N   UNL     1      -0.646  12.102  21.787  0.00  0.00    +0.000 N 
ATOM      8  C   UNL     1       1.076  11.569  18.609  0.00  0.00    +0.000 C 
ATOM      9  O   UNL     1       2.021  10.675  18.067  0.00  0.00    +0.000 OA
ATOM     10  C   UNL     1       1.966   9.409  18.584  0.00  0.00    +0.000 A 
ATOM     11  C   UNL     1       2.531   8.438  17.763  0.00  0.00    +0.000 A 
ATOM     12  C   UNL     1       2.602   7.116  18.186  0.00  0.00    +0.000 A 
ATOM     13  C   UNL     1       2.157   6.755  19.455  0.00  0.00    +0.000 A 
ATOM     14  C   UNL     1       1.588   7.750  20.280  0.00  0.00    +0.000 A 
ATOM     15  C   UNL     1       1.440   9.089  19.850  0.00  0.00    +0.000 A 
ATOM     16  H   UNL     1      -1.269  12.829  22.125  0.00  0.00    +0.000 HD
ENDROOT
BRANCH  13  17
ATOM     17  N   UNL     1       2.246   5.429  19.951  0.00  0.00    +0.000 N 
ATOM     18  C   UNL     1       1.857   4.262  19.293  0.00  0.00    +0.000 C 
ATOM     19  O   UNL     1       1.365   4.224  18.165  0.00  0.00    +0.000 OA
ATOM     20  H   UNL     1       2.625   5.322  20.885  0.00  0.00    +0.000 HD
BRANCH  18  21
ATOM     21  C   UNL     1       2.088   2.968  20.111  0.00  0.00    +0.000 C 
ATOM     22  C   UNL     1       3.535   2.692  20.586  0.00  0.00    +0.000 C 
ATOM     23  N   UNL     1       2.963   2.149  21.841  0.00  0.00    +0.000 NA
ATOM     24  C   UNL     1       1.788   3.030  21.633  0.00  0.00    +0.000 C 
ATOM     25  H   UNL     1       3.503   2.358  22.679  0.00  0.00    +0.000 HD
ENDBRANCH  18  21
ENDBRANCH  13  17
TORSDOF 2
ENDMDL
MODEL 7
REMARK VINA RESULT:      -6.9      2.703      4.236
REMARK  Name = 
REMARK  2 active torsions:
REMARK  status: ('A' for Active; 'I' for Inactive)
REMARK    1  A    between atoms: C_13  and  N_14
REMARK    2  A    between atoms: C_15  and  C_17
REMARK                            x       y       z     vdW  Elec       q    Type
REMARK                         _______ _______ _______ _____ _____    ______ ____
ROOT
ATOM      1  O   UNL     1       1.804   3.009  22.429  0.00  0.00    +0.000 OA
ATOM      2  C   UNL     1       2.255   3.344  21.333  0.00  0.00    +0.000 C 
ATOM      3  C   UNL     1       1.796   4.610  20.628  0.00  0.00    +0.000 C 
ATOM      4  N   UNL     1       2.686   5.011  19.543  0.00  0.00    +0.000 N 
ATOM      5  C   UNL     1       3.652   4.124  19.105  0.00  0.00    +0.000 C 
ATOM      6  N   UNL     1       3.889   2.942  19.595  0.00  0.00    +0.000 NA
ATOM      7  N   UNL     1       3.161   2.556  20.673  0.00  0.00    +0.000 N 
ATOM      8  C   UNL     1       4.606   4.594  18.008  0.00  0.00    +0.000 C 
ATOM      9  O   UNL     1       4.249   5.718  17.238  0.00  0.00    +0.000 OA
ATOM     10  C   UNL     1       3.441   6.615  17.884  0.00  0.00    +0.000 A 
ATOM     11  C   UNL     1       3.471   7.896  17.343  0.00  0.00    +0.000 A 
ATOM     12  C   UNL     1       2.654   8.895  17.858  0.00  0.00    +0.000 A 
ATOM     13  C   UNL     1       1.759   8.616  18.887  0.00  0.00    +0.000 A 
ATOM     14  C   UNL     1       1.735   7.311  19.427  0.00  0.00    +0.000 A 
ATOM     15  C   UNL     1       2.603   6.292  18.968  0.00  0.00    +0.000 A 
ATOM     16  H   UNL     1       3.459   1.700  21.132  0.00  0.00    +0.000 HD
ENDROOT
BRANCH  13  17
ATOM     17  N   UNL     1       0.873   9.588  19.419  0.00  0.00    +0.000 N 
ATOM     18  C   UNL     1      -0.244  10.136  18.789  0.00  0.00    +0.000 C 
ATOM     19  O   UNL     1      -0.620   9.847  17.653  0.00  0.00    +0.000 OA
ATOM     20  H   UNL     1       1.081   9.923  20.353  0.00  0.00    +0.000 HD
BRANCH  18  21
ATOM     21  C   UNL     1      -1.006  11.177  19.645  0.00  0.00    +0.000 C 
ATOM     22  C   UNL     1      -0.407  12.603  19.707  0.00  0.00    +0.000 C 
ATOM     23  N   UNL     1      -1.792  13.128  19.700  0.00  0.00    +0.000 NA
ATOM     24  C   UNL     1      -2.206  11.900  18.978  0.00  0.00    +0.000 C 
ATOM     25  H   UNL     1      -1.917  13.990  19.172  0.00  0.00    +0.000 HD
ENDBRANCH  18  21
ENDBRANCH  13  17
TORSDOF 2
ENDMDL
MODEL 8
REMARK VINA RESULT:      -6.9      2.662      7.661
REMARK  Name = 
REMARK  2 active torsions:
REMARK  status: ('A' for Active; 'I' for Inactive)
REMARK    1  A    between atoms: C_13  and  N_14
REMARK    2  A    between atoms: C_15  and  C_17
REMARK                            x       y       z     vdW  Elec       q    Type
REMARK                         _______ _______ _______ _____ _____    ______ ____
ROOT
ATOM      1  O   UNL     1      -0.712   9.811  23.796  0.00  0.00    +0.000 OA
ATOM      2  C   UNL     1      -0.181  10.147  22.736  0.00  0.00    +0.000 C 
ATOM      3  C   UNL     1       0.800   9.243  22.008  0.00  0.00    +0.000 C 
ATOM      4  N   UNL     1       1.035   9.654  20.627  0.00  0.00    +0.000 N 
ATOM      5  C   UNL     1       0.587  10.894  20.211  0.00  0.00    +0.000 C 
ATOM      6  N   UNL     1      -0.077  11.752  20.930  0.00  0.00    +0.000 NA
ATOM      7  N   UNL     1      -0.414  11.382  22.191  0.00  0.00    +0.000 N 
ATOM      8  C   UNL     1       0.795  11.272  18.745  0.00  0.00    +0.000 C 
ATOM      9  O   UNL     1       1.736  10.548  17.988  0.00  0.00    +0.000 OA
ATOM     10  C   UNL     1       1.927   9.258  18.404  0.00  0.00    +0.000 A 
ATOM     11  C   UNL     1       2.460   8.421  17.428  0.00  0.00    +0.000 A 
ATOM     12  C   UNL     1       2.765   7.099  17.727  0.00  0.00    +0.000 A 
ATOM     13  C   UNL     1       2.590   6.607  19.018  0.00  0.00    +0.000 A 
ATOM     14  C   UNL     1       2.051   7.467  20.002  0.00  0.00    +0.000 A 
ATOM     15  C   UNL     1       1.668   8.797  19.709  0.00  0.00    +0.000 A 
ATOM     16  H   UNL     1      -1.056  11.998  22.682  0.00  0.00    +0.000 HD
ENDROOT
BRANCH  13  17
ATOM     17  N   UNL     1       2.925   5.279  19.386  0.00  0.00    +0.000 N 
ATOM     18  C   UNL     1       2.324   4.107  18.926  0.00  0.00    +0.000 C 
ATOM     19  O   UNL     1       1.393   4.066  18.122  0.00  0.00    +0.000 OA
ATOM     20  H   UNL     1       3.674   5.174  20.060  0.00  0.00    +0.000 HD
BRANCH  18  21
ATOM     21  C   UNL     1       2.926   2.812  19.523  0.00  0.00    +0.000 C 
ATOM     22  C   UNL     1       3.292   1.688  18.524  0.00  0.00    +0.000 C 
ATOM     23  N   UNL     1       4.473   1.393  19.370  0.00  0.00    +0.000 NA
ATOM     24  C   UNL     1       4.450   2.809  19.815  0.00  0.00    +0.000 C 
ATOM     25  H   UNL     1       5.309   1.127  18.854  0.00  0.00    +0.000 HD
ENDBRANCH  18  21
ENDBRANCH  13  17
TORSDOF 2
ENDMDL
MODEL 9
REMARK VINA RESULT:      -6.9      2.121      7.137
REMARK  Name = 
REMARK  2 active torsions:
REMARK  status: ('A' for Active; 'I' for Inactive)
REMARK    1  A    between atoms: C_13  and  N_14
REMARK    2  A    between atoms: C_15  and  C_17
REMARK                            x       y       z     vdW  Elec       q    Type
REMARK                         _______ _______ _______ _____ _____    ______ ____
ROOT
ATOM      1  O   UNL     1       2.074  12.283  17.835  0.00  0.00    +0.000 OA
ATOM      2  C   UNL     1       1.597  11.355  18.490  0.00  0.00    +0.000 C 
ATOM      3  C   UNL     1       1.969   9.906  18.218  0.00  0.00    +0.000 C 
ATOM      4  N   UNL     1       1.588   9.008  19.304  0.00  0.00    +0.000 N 
ATOM      5  C   UNL     1       0.744   9.474  20.295  0.00  0.00    +0.000 C 
ATOM      6  N   UNL     1       0.262  10.679  20.390  0.00  0.00    +0.000 NA
ATOM      7  N   UNL     1       0.663  11.587  19.464  0.00  0.00    +0.000 N 
ATOM      8  C   UNL     1       0.411   8.530  21.449  0.00  0.00    +0.000 C 
ATOM      9  O   UNL     1       0.646   7.151  21.283  0.00  0.00    +0.000 OA
ATOM     10  C   UNL     1       1.657   6.849  20.411  0.00  0.00    +0.000 A 
ATOM     11  C   UNL     1       2.200   5.581  20.592  0.00  0.00    +0.000 A 
ATOM     12  C   UNL     1       3.192   5.114  19.739  0.00  0.00    +0.000 A 
ATOM     13  C   UNL     1       3.621   5.886  18.663  0.00  0.00    +0.000 A 
ATOM     14  C   UNL     1       3.060   7.172  18.487  0.00  0.00    +0.000 A 
ATOM     15  C   UNL     1       2.098   7.699  19.379  0.00  0.00    +0.000 A 
ATOM     16  H   UNL     1       0.398  12.552  19.640  0.00  0.00    +0.000 HD
ENDROOT
BRANCH  13  17
ATOM     17  N   UNL     1       4.600   5.440  17.738  0.00  0.00    +0.000 N 
ATOM     18  C   UNL     1       4.489   4.364  16.858  0.00  0.00    +0.000 C 
ATOM     19  O   UNL     1       3.504   3.631  16.767  0.00  0.00    +0.000 OA
ATOM     20  H   UNL     1       5.472   5.955  17.722  0.00  0.00    +0.000 HD
BRANCH  18  21
ATOM     21  C   UNL     1       5.740   4.138  15.975  0.00  0.00    +0.000 C 
ATOM     22  C   UNL     1       5.936   5.105  14.782  0.00  0.00    +0.000 C 
ATOM     23  N   UNL     1       7.393   5.057  15.050  0.00  0.00    +0.000 NA
ATOM     24  C   UNL     1       7.075   4.757  16.468  0.00  0.00    +0.000 C 
ATOM     25  H   UNL     1       7.880   5.939  14.905  0.00  0.00    +0.000 HD
ENDBRANCH  18  21
ENDBRANCH  13  17
TORSDOF 2
ENDMDL
