MODEL 1
REMARK VINA RESULT:      -9.2      0.000      0.000
REMARK  Name = 
REMARK  6 active torsions:
REMARK  status: ('A' for Active; 'I' for Inactive)
REMARK    1  A    between atoms: C_1  and  C_2
REMARK    2  A    between atoms: C_4  and  N_5
REMARK    3  A    between atoms: C_6  and  C_8
REMARK    4  A    between atoms: C_8  and  N_9
REMARK    5  A    between atoms: C_12  and  C_13
REMARK    6  A    between atoms: N_17  and  C_18
REMARK                            x       y       z     vdW  Elec       q    Type
REMARK                         _______ _______ _______ _____ _____    ______ ____
ROOT
ATOM      1  N   UNL     1       4.935   5.416  17.119  0.00  0.00    +0.000 N 
ATOM      2  C   UNL     1       6.318   5.294  17.508  0.00  0.00    +0.000 C 
ATOM      3  O   UNL     1       6.692   5.777  18.572  0.00  0.00    +0.000 OA
ATOM      4  H   UNL     1       4.621   4.927  16.277  0.00  0.00    +0.000 HD
ENDROOT
BRANCH   1   8
ATOM      5  C   UNL     1       1.651   8.911  18.444  0.00  0.00    +0.000 C 
ATOM      6  C   UNL     1       2.577   7.755  18.421  0.00  0.00    +0.000 A 
ATOM      7  C   UNL     1       3.546   7.425  17.447  0.00  0.00    +0.000 A 
ATOM      8  C   UNL     1       4.033   6.195  17.828  0.00  0.00    +0.000 A 
ATOM      9  N   UNL     1       3.341   5.853  18.964  0.00  0.00    +0.000 N 
ATOM     10  N   UNL     1       2.514   6.828  19.383  0.00  0.00    +0.000 NA
BRANCH   9  11
ATOM     11  C   UNL     1       3.323   4.545  19.617  0.00  0.00    +0.000 C 
ATOM     12  C   UNL     1       2.378   4.427  20.829  0.00  0.00    +0.000 C 
ATOM     13  C   UNL     1       0.913   4.158  20.478  0.00  0.00    +0.000 C 
ATOM     14  C   UNL     1       0.753   3.044  19.449  0.00  0.00    +0.000 C 
ATOM     15  C   UNL     1       1.604   3.290  18.209  0.00  0.00    +0.000 C 
ATOM     16  C   UNL     1       3.079   3.445  18.575  0.00  0.00    +0.000 C 
ENDBRANCH   9  11
ENDBRANCH   1   8
BRANCH   2  17
ATOM     17  C   UNL     1       7.191   4.413  16.682  0.00  0.00    +0.000 C 
BRANCH  17  18
ATOM     18  N   UNL     1       7.019   4.654  15.273  0.00  0.00    +0.000 N 
ATOM     19  N   UNL     1       7.797   5.527  14.624  0.00  0.00    +0.000 NA
ATOM     20  N   UNL     1       7.559   5.305  13.341  0.00  0.00    +0.000 NA
ATOM     21  C   UNL     1       6.640   4.294  13.279  0.00  0.00    +0.000 A 
ATOM     22  N   UNL     1       6.274   3.835  14.492  0.00  0.00    +0.000 NA
BRANCH  21  23
ATOM     23  C   UNL     1       6.166   3.726  11.954  0.00  0.00    +0.000 C 
ATOM     24  C   UNL     1       5.956   2.226  11.857  0.00  0.00    +0.000 C 
ATOM     25  C   UNL     1       4.778   3.139  11.814  0.00  0.00    +0.000 C 
ENDBRANCH  21  23
ENDBRANCH  17  18
ENDBRANCH   2  17
TORSDOF 5
ENDMDL
MODEL 2
REMARK VINA RESULT:      -8.9      0.666      1.031
REMARK  Name = 
REMARK  6 active torsions:
REMARK  status: ('A' for Active; 'I' for Inactive)
REMARK    1  A    between atoms: C_1  and  C_2
REMARK    2  A    between atoms: C_4  and  N_5
REMARK    3  A    between atoms: C_6  and  C_8
REMARK    4  A    between atoms: C_8  and  N_9
REMARK    5  A    between atoms: C_12  and  C_13
REMARK    6  A    between atoms: N_17  and  C_18
REMARK                            x       y       z     vdW  Elec       q    Type
REMARK                         _______ _______ _______ _____ _____    ______ ____
ROOT
ATOM      1  N   UNL     1       5.072   5.323  17.010  0.00  0.00    +0.000 N 
ATOM      2  C   UNL     1       6.296   4.854  17.612  0.00  0.00    +0.000 C 
ATOM      3  O   UNL     1       6.397   4.826  18.833  0.00  0.00    +0.000 OA
ATOM      4  H   UNL     1       4.970   5.251  15.995  0.00  0.00    +0.000 HD
ENDROOT
BRANCH   1   8
ATOM      5  C   UNL     1       1.707   8.477  18.876  0.00  0.00    +0.000 C 
ATOM      6  C   UNL     1       2.559   7.298  18.593  0.00  0.00    +0.000 A 
ATOM      7  C   UNL     1       3.731   7.231  17.806  0.00  0.00    +0.000 A 
ATOM      8  C   UNL     1       4.052   5.893  17.756  0.00  0.00    +0.000 A 
ATOM      9  N   UNL     1       3.078   5.246  18.477  0.00  0.00    +0.000 N 
ATOM     10  N   UNL     1       2.212   6.095  19.061  0.00  0.00    +0.000 NA
BRANCH   9  11
ATOM     11  C   UNL     1       2.838   3.805  18.527  0.00  0.00    +0.000 C 
ATOM     12  C   UNL     1       3.581   3.053  19.650  0.00  0.00    +0.000 C 
ATOM     13  C   UNL     1       2.903   3.110  21.020  0.00  0.00    +0.000 C 
ATOM     14  C   UNL     1       1.409   2.810  20.947  0.00  0.00    +0.000 C 
ATOM     15  C   UNL     1       0.703   3.688  19.921  0.00  0.00    +0.000 C 
ATOM     16  C   UNL     1       1.329   3.527  18.536  0.00  0.00    +0.000 C 
ENDBRANCH   9  11
ENDBRANCH   1   8
BRANCH   2  17
ATOM     17  C   UNL     1       7.315   4.241  16.713  0.00  0.00    +0.000 C 
BRANCH  17  18
ATOM     18  N   UNL     1       7.071   4.556  15.330  0.00  0.00    +0.000 N 
ATOM     19  N   UNL     1       7.760   5.519  14.710  0.00  0.00    +0.000 NA
ATOM     20  N   UNL     1       7.487   5.361  13.425  0.00  0.00    +0.000 NA
ATOM     21  C   UNL     1       6.637   4.293  13.331  0.00  0.00    +0.000 A 
ATOM     22  N   UNL     1       6.352   3.736  14.524  0.00  0.00    +0.000 NA
BRANCH  21  23
ATOM     23  C   UNL     1       6.150   3.775  11.990  0.00  0.00    +0.000 C 
ATOM     24  C   UNL     1       6.020   2.274  11.812  0.00  0.00    +0.000 C 
ATOM     25  C   UNL     1       4.792   3.119  11.859  0.00  0.00    +0.000 C 
ENDBRANCH  21  23
ENDBRANCH  17  18
ENDBRANCH   2  17
TORSDOF 5
ENDMDL
MODEL 3
REMARK VINA RESULT:      -8.3      0.707      1.158
REMARK  Name = 
REMARK  6 active torsions:
REMARK  status: ('A' for Active; 'I' for Inactive)
REMARK    1  A    between atoms: C_1  and  C_2
REMARK    2  A    between atoms: C_4  and  N_5
REMARK    3  A    between atoms: C_6  and  C_8
REMARK    4  A    between atoms: C_8  and  N_9
REMARK    5  A    between atoms: C_12  and  C_13
REMARK    6  A    between atoms: N_17  and  C_18
REMARK                            x       y       z     vdW  Elec       q    Type
REMARK                         _______ _______ _______ _____ _____    ______ ____
ROOT
ATOM      1  N   UNL     1       5.170   5.932  17.476  0.00  0.00    +0.000 N 
ATOM      2  C   UNL     1       6.383   5.622  18.193  0.00  0.00    +0.000 C 
ATOM      3  O   UNL     1       6.422   5.774  19.409  0.00  0.00    +0.000 OA
ATOM      4  H   UNL     1       5.123   5.710  16.479  0.00  0.00    +0.000 HD
ENDROOT
BRANCH   1   8
ATOM      5  C   UNL     1       1.345   8.940  18.514  0.00  0.00    +0.000 C 
ATOM      6  C   UNL     1       2.389   7.889  18.554  0.00  0.00    +0.000 A 
ATOM      7  C   UNL     1       3.527   7.751  17.728  0.00  0.00    +0.000 A 
ATOM      8  C   UNL     1       4.087   6.547  18.087  0.00  0.00    +0.000 A 
ATOM      9  N   UNL     1       3.273   6.031  19.066  0.00  0.00    +0.000 N 
ATOM     10  N   UNL     1       2.285   6.875  19.419  0.00  0.00    +0.000 NA
BRANCH   9  11
ATOM     11  C   UNL     1       3.304   4.673  19.605  0.00  0.00    +0.000 C 
ATOM     12  C   UNL     1       2.393   4.427  20.823  0.00  0.00    +0.000 C 
ATOM     13  C   UNL     1       0.927   4.149  20.485  0.00  0.00    +0.000 C 
ATOM     14  C   UNL     1       0.769   3.123  19.368  0.00  0.00    +0.000 C 
ATOM     15  C   UNL     1       1.582   3.496  18.134  0.00  0.00    +0.000 C 
ATOM     16  C   UNL     1       3.061   3.659  18.478  0.00  0.00    +0.000 C 
ENDBRANCH   9  11
ENDBRANCH   1   8
BRANCH   2  17
ATOM     17  C   UNL     1       7.474   4.943  17.437  0.00  0.00    +0.000 C 
BRANCH  17  18
ATOM     18  N   UNL     1       6.989   4.323  16.233  0.00  0.00    +0.000 N 
ATOM     19  N   UNL     1       5.993   3.432  16.269  0.00  0.00    +0.000 NA
ATOM     20  N   UNL     1       5.629   3.277  15.006  0.00  0.00    +0.000 NA
ATOM     21  C   UNL     1       6.432   4.096  14.260  0.00  0.00    +0.000 A 
ATOM     22  N   UNL     1       7.311   4.796  15.004  0.00  0.00    +0.000 NA
BRANCH  21  23
ATOM     23  C   UNL     1       6.264   4.227  12.758  0.00  0.00    +0.000 C 
ATOM     24  C   UNL     1       6.954   3.207  11.873  0.00  0.00    +0.000 C 
ATOM     25  C   UNL     1       5.467   3.207  11.974  0.00  0.00    +0.000 C 
ENDBRANCH  21  23
ENDBRANCH  17  18
ENDBRANCH   2  17
TORSDOF 5
ENDMDL
MODEL 4
REMARK VINA RESULT:      -8.0      1.185      2.977
REMARK  Name = 
REMARK  6 active torsions:
REMARK  status: ('A' for Active; 'I' for Inactive)
REMARK    1  A    between atoms: C_1  and  C_2
REMARK    2  A    between atoms: C_4  and  N_5
REMARK    3  A    between atoms: C_6  and  C_8
REMARK    4  A    between atoms: C_8  and  N_9
REMARK    5  A    between atoms: C_12  and  C_13
REMARK    6  A    between atoms: N_17  and  C_18
REMARK                            x       y       z     vdW  Elec       q    Type
REMARK                         _______ _______ _______ _____ _____    ______ ____
ROOT
ATOM      1  N   UNL     1       4.781   4.303  16.766  0.00  0.00    +0.000 N 
ATOM      2  C   UNL     1       6.012   4.258  17.516  0.00  0.00    +0.000 C 
ATOM      3  O   UNL     1       5.981   3.998  18.714  0.00  0.00    +0.000 OA
ATOM      4  H   UNL     1       4.833   4.427  15.752  0.00  0.00    +0.000 HD
ENDROOT
BRANCH   1   8
ATOM      5  C   UNL     1       0.538   2.622  18.746  0.00  0.00    +0.000 C 
ATOM      6  C   UNL     1       1.647   3.471  18.252  0.00  0.00    +0.000 A 
ATOM      7  C   UNL     1       2.731   3.104  17.424  0.00  0.00    +0.000 A 
ATOM      8  C   UNL     1       3.539   4.217  17.377  0.00  0.00    +0.000 A 
ATOM      9  N   UNL     1       2.927   5.159  18.169  0.00  0.00    +0.000 N 
ATOM     10  N   UNL     1       1.734   4.748  18.638  0.00  0.00    +0.000 NA
BRANCH   9  11
ATOM     11  C   UNL     1       3.501   6.421  18.630  0.00  0.00    +0.000 C 
ATOM     12  C   UNL     1       3.319   7.616  17.673  0.00  0.00    +0.000 C 
ATOM     13  C   UNL     1       1.963   8.316  17.768  0.00  0.00    +0.000 C 
ATOM     14  C   UNL     1       1.550   8.600  19.209  0.00  0.00    +0.000 C 
ATOM     15  C   UNL     1       1.611   7.347  20.074  0.00  0.00    +0.000 C 
ATOM     16  C   UNL     1       3.008   6.730  20.051  0.00  0.00    +0.000 C 
ENDBRANCH   9  11
ENDBRANCH   1   8
BRANCH   2  17
ATOM     17  C   UNL     1       7.288   4.340  16.750  0.00  0.00    +0.000 C 
BRANCH  17  18
ATOM     18  N   UNL     1       7.062   4.607  15.355  0.00  0.00    +0.000 N 
ATOM     19  N   UNL     1       7.731   5.575  14.721  0.00  0.00    +0.000 NA
ATOM     20  N   UNL     1       7.489   5.371  13.436  0.00  0.00    +0.000 NA
ATOM     21  C   UNL     1       6.678   4.273  13.356  0.00  0.00    +0.000 A 
ATOM     22  N   UNL     1       6.387   3.741  14.560  0.00  0.00    +0.000 NA
BRANCH  21  23
ATOM     23  C   UNL     1       6.235   3.702  12.022  0.00  0.00    +0.000 C 
ATOM     24  C   UNL     1       5.846   2.236  11.970  0.00  0.00    +0.000 C 
ATOM     25  C   UNL     1       4.798   3.282  11.796  0.00  0.00    +0.000 C 
ENDBRANCH  21  23
ENDBRANCH  17  18
ENDBRANCH   2  17
TORSDOF 5
ENDMDL
MODEL 5
REMARK VINA RESULT:      -8.0      1.072      1.219
REMARK  Name = 
REMARK  6 active torsions:
REMARK  status: ('A' for Active; 'I' for Inactive)
REMARK    1  A    between atoms: C_1  and  C_2
REMARK    2  A    between atoms: C_4  and  N_5
REMARK    3  A    between atoms: C_6  and  C_8
REMARK    4  A    between atoms: C_8  and  N_9
REMARK    5  A    between atoms: C_12  and  C_13
REMARK    6  A    between atoms: N_17  and  C_18
REMARK                            x       y       z     vdW  Elec       q    Type
REMARK                         _______ _______ _______ _____ _____    ______ ____
ROOT
ATOM      1  N   UNL     1       5.305   5.631  17.391  0.00  0.00    +0.000 N 
ATOM      2  C   UNL     1       5.711   5.796  16.017  0.00  0.00    +0.000 C 
ATOM      3  O   UNL     1       5.195   6.675  15.335  0.00  0.00    +0.000 OA
ATOM      4  H   UNL     1       5.811   4.957  17.971  0.00  0.00    +0.000 HD
ENDROOT
BRANCH   1   8
ATOM      5  C   UNL     1       1.579   8.843  18.136  0.00  0.00    +0.000 C 
ATOM      6  C   UNL     1       2.583   7.762  18.272  0.00  0.00    +0.000 A 
ATOM      7  C   UNL     1       3.726   7.521  17.477  0.00  0.00    +0.000 A 
ATOM      8  C   UNL     1       4.237   6.328  17.935  0.00  0.00    +0.000 A 
ATOM      9  N   UNL     1       3.391   5.918  18.937  0.00  0.00    +0.000 N 
ATOM     10  N   UNL     1       2.430   6.821  19.209  0.00  0.00    +0.000 NA
BRANCH   9  11
ATOM     11  C   UNL     1       3.365   4.605  19.578  0.00  0.00    +0.000 C 
ATOM     12  C   UNL     1       2.471   4.500  20.829  0.00  0.00    +0.000 C 
ATOM     13  C   UNL     1       0.986   4.274  20.541  0.00  0.00    +0.000 C 
ATOM     14  C   UNL     1       0.749   3.177  19.509  0.00  0.00    +0.000 C 
ATOM     15  C   UNL     1       1.551   3.413  18.235  0.00  0.00    +0.000 C 
ATOM     16  C   UNL     1       3.044   3.523  18.537  0.00  0.00    +0.000 C 
ENDBRANCH   9  11
ENDBRANCH   1   8
BRANCH   2  17
ATOM     17  C   UNL     1       6.885   5.007  15.547  0.00  0.00    +0.000 C 
BRANCH  17  18
ATOM     18  N   UNL     1       6.819   4.732  14.136  0.00  0.00    +0.000 N 
ATOM     19  N   UNL     1       7.665   5.314  13.280  0.00  0.00    +0.000 NA
ATOM     20  N   UNL     1       7.510   4.651  12.144  0.00  0.00    +0.000 NA
ATOM     21  C   UNL     1       6.568   3.687  12.376  0.00  0.00    +0.000 A 
ATOM     22  N   UNL     1       6.105   3.691  13.641  0.00  0.00    +0.000 NA
BRANCH  21  23
ATOM     23  C   UNL     1       6.170   2.686  11.307  0.00  0.00    +0.000 C 
ATOM     24  C   UNL     1       7.225   1.714  10.813  0.00  0.00    +0.000 C 
ATOM     25  C   UNL     1       6.080   1.209  11.622  0.00  0.00    +0.000 C 
ENDBRANCH  21  23
ENDBRANCH  17  18
ENDBRANCH   2  17
TORSDOF 5
ENDMDL
MODEL 6
REMARK VINA RESULT:      -7.7      1.364      1.788
REMARK  Name = 
REMARK  6 active torsions:
REMARK  status: ('A' for Active; 'I' for Inactive)
REMARK    1  A    between atoms: C_1  and  C_2
REMARK    2  A    between atoms: C_4  and  N_5
REMARK    3  A    between atoms: C_6  and  C_8
REMARK    4  A    between atoms: C_8  and  N_9
REMARK    5  A    between atoms: C_12  and  C_13
REMARK    6  A    between atoms: N_17  and  C_18
REMARK                            x       y       z     vdW  Elec       q    Type
REMARK                         _______ _______ _______ _____ _____    ______ ____
ROOT
ATOM      1  N   UNL     1       5.064   5.737  17.878  0.00  0.00    +0.000 N 
ATOM      2  C   UNL     1       6.282   5.264  18.489  0.00  0.00    +0.000 C 
ATOM      3  O   UNL     1       6.271   4.902  19.660  0.00  0.00    +0.000 OA
ATOM      4  H   UNL     1       5.070   5.944  16.877  0.00  0.00    +0.000 HD
ENDROOT
BRANCH   1   8
ATOM      5  C   UNL     1       1.447   7.786  20.612  0.00  0.00    +0.000 C 
ATOM      6  C   UNL     1       2.297   6.857  19.832  0.00  0.00    +0.000 A 
ATOM      7  C   UNL     1       3.633   7.036  19.407  0.00  0.00    +0.000 A 
ATOM      8  C   UNL     1       3.905   5.948  18.609  0.00  0.00    +0.000 A 
ATOM      9  N   UNL     1       2.749   5.205  18.582  0.00  0.00    +0.000 N 
ATOM     10  N   UNL     1       1.793   5.701  19.389  0.00  0.00    +0.000 NA
BRANCH   9  11
ATOM     11  C   UNL     1       2.450   4.084  17.693  0.00  0.00    +0.000 C 
ATOM     12  C   UNL     1       3.492   2.948  17.692  0.00  0.00    +0.000 C 
ATOM     13  C   UNL     1       3.349   1.944  18.837  0.00  0.00    +0.000 C 
ATOM     14  C   UNL     1       1.911   1.474  19.029  0.00  0.00    +0.000 C 
ATOM     15  C   UNL     1       0.945   2.645  19.169  0.00  0.00    +0.000 C 
ATOM     16  C   UNL     1       1.027   3.573  17.959  0.00  0.00    +0.000 C 
ENDBRANCH   9  11
ENDBRANCH   1   8
BRANCH   2  17
ATOM     17  C   UNL     1       7.461   5.055  17.601  0.00  0.00    +0.000 C 
BRANCH  17  18
ATOM     18  N   UNL     1       7.081   4.954  16.216  0.00  0.00    +0.000 N 
ATOM     19  N   UNL     1       7.633   5.745  15.291  0.00  0.00    +0.000 NA
ATOM     20  N   UNL     1       7.272   5.217  14.132  0.00  0.00    +0.000 NA
ATOM     21  C   UNL     1       6.512   4.117  14.420  0.00  0.00    +0.000 A 
ATOM     22  N   UNL     1       6.372   3.901  15.742  0.00  0.00    +0.000 NA
BRANCH  21  23
ATOM     23  C   UNL     1       5.964   3.216  13.328  0.00  0.00    +0.000 C 
ATOM     24  C   UNL     1       4.923   3.792  12.387  0.00  0.00    +0.000 C 
ATOM     25  C   UNL     1       6.287   3.478  11.873  0.00  0.00    +0.000 C 
ENDBRANCH  21  23
ENDBRANCH  17  18
ENDBRANCH   2  17
TORSDOF 5
ENDMDL
MODEL 7
REMARK VINA RESULT:      -7.7      1.102      1.438
REMARK  Name = 
REMARK  6 active torsions:
REMARK  status: ('A' for Active; 'I' for Inactive)
REMARK    1  A    between atoms: C_1  and  C_2
REMARK    2  A    between atoms: C_4  and  N_5
REMARK    3  A    between atoms: C_6  and  C_8
REMARK    4  A    between atoms: C_8  and  N_9
REMARK    5  A    between atoms: C_12  and  C_13
REMARK    6  A    between atoms: N_17  and  C_18
REMARK                            x       y       z     vdW  Elec       q    Type
REMARK                         _______ _______ _______ _____ _____    ______ ____
ROOT
ATOM      1  N   UNL     1       4.851   6.337  17.522  0.00  0.00    +0.000 N 
ATOM      2  C   UNL     1       6.240   6.075  17.810  0.00  0.00    +0.000 C 
ATOM      3  O   UNL     1       6.568   5.725  18.938  0.00  0.00    +0.000 OA
ATOM      4  H   UNL     1       4.583   6.535  16.555  0.00  0.00    +0.000 HD
ENDROOT
BRANCH   1   8
ATOM      5  C   UNL     1       1.152   7.702  20.556  0.00  0.00    +0.000 C 
ATOM      6  C   UNL     1       2.240   6.968  19.870  0.00  0.00    +0.000 A 
ATOM      7  C   UNL     1       3.192   7.467  18.952  0.00  0.00    +0.000 A 
ATOM      8  C   UNL     1       3.882   6.359  18.514  0.00  0.00    +0.000 A 
ATOM      9  N   UNL     1       3.315   5.285  19.156  0.00  0.00    +0.000 N 
ATOM     10  N   UNL     1       2.373   5.650  20.047  0.00  0.00    +0.000 NA
BRANCH   9  11
ATOM     11  C   UNL     1       3.534   3.871  18.858  0.00  0.00    +0.000 C 
ATOM     12  C   UNL     1       3.325   2.908  20.043  0.00  0.00    +0.000 C 
ATOM     13  C   UNL     1       1.870   2.521  20.310  0.00  0.00    +0.000 C 
ATOM     14  C   UNL     1       1.129   2.119  19.039  0.00  0.00    +0.000 C 
ATOM     15  C   UNL     1       1.250   3.179  17.951  0.00  0.00    +0.000 C 
ATOM     16  C   UNL     1       2.714   3.467  17.624  0.00  0.00    +0.000 C 
ENDBRANCH   9  11
ENDBRANCH   1   8
BRANCH   2  17
ATOM     17  C   UNL     1       7.190   6.058  16.661  0.00  0.00    +0.000 C 
BRANCH  17  18
ATOM     18  N   UNL     1       6.840   5.055  15.690  0.00  0.00    +0.000 N 
ATOM     19  N   UNL     1       5.992   4.067  15.994  0.00  0.00    +0.000 NA
ATOM     20  N   UNL     1       5.692   3.507  14.833  0.00  0.00    +0.000 NA
ATOM     21  C   UNL     1       6.379   4.196  13.872  0.00  0.00    +0.000 A 
ATOM     22  N   UNL     1       7.119   5.205  14.372  0.00  0.00    +0.000 NA
BRANCH  21  23
ATOM     23  C   UNL     1       6.235   3.870  12.398  0.00  0.00    +0.000 C 
ATOM     24  C   UNL     1       6.097   2.412  12.002  0.00  0.00    +0.000 C 
ATOM     25  C   UNL     1       4.933   3.330  11.847  0.00  0.00    +0.000 C 
ENDBRANCH  21  23
ENDBRANCH  17  18
ENDBRANCH   2  17
TORSDOF 5
ENDMDL
MODEL 8
REMARK VINA RESULT:      -7.7      0.902      1.506
REMARK  Name = 
REMARK  6 active torsions:
REMARK  status: ('A' for Active; 'I' for Inactive)
REMARK    1  A    between atoms: C_1  and  C_2
REMARK    2  A    between atoms: C_4  and  N_5
REMARK    3  A    between atoms: C_6  and  C_8
REMARK    4  A    between atoms: C_8  and  N_9
REMARK    5  A    between atoms: C_12  and  C_13
REMARK    6  A    between atoms: N_17  and  C_18
REMARK                            x       y       z     vdW  Elec       q    Type
REMARK                         _______ _______ _______ _____ _____    ______ ____
ROOT
ATOM      1  N   UNL     1       5.000   6.358  16.805  0.00  0.00    +0.000 N 
ATOM      2  C   UNL     1       6.317   6.157  17.358  0.00  0.00    +0.000 C 
ATOM      3  O   UNL     1       6.467   6.142  18.575  0.00  0.00    +0.000 OA
ATOM      4  H   UNL     1       4.878   6.274  15.794  0.00  0.00    +0.000 HD
ENDROOT
BRANCH   1   8
ATOM      5  C   UNL     1       1.309   8.816  19.061  0.00  0.00    +0.000 C 
ATOM      6  C   UNL     1       2.271   7.786  18.606  0.00  0.00    +0.000 A 
ATOM      7  C   UNL     1       3.468   7.964  17.876  0.00  0.00    +0.000 A 
ATOM      8  C   UNL     1       3.910   6.691  17.595  0.00  0.00    +0.000 A 
ATOM      9  N   UNL     1       2.976   5.842  18.137  0.00  0.00    +0.000 N 
ATOM     10  N   UNL     1       2.020   6.492  18.827  0.00  0.00    +0.000 NA
BRANCH   9  11
ATOM     11  C   UNL     1       2.866   4.403  17.909  0.00  0.00    +0.000 C 
ATOM     12  C   UNL     1       3.870   3.533  18.691  0.00  0.00    +0.000 C 
ATOM     13  C   UNL     1       3.471   3.231  20.137  0.00  0.00    +0.000 C 
ATOM     14  C   UNL     1       2.020   2.777  20.260  0.00  0.00    +0.000 C 
ATOM     15  C   UNL     1       1.060   3.753  19.592  0.00  0.00    +0.000 C 
ATOM     16  C   UNL     1       1.414   3.951  18.119  0.00  0.00    +0.000 C 
ENDBRANCH   9  11
ENDBRANCH   1   8
BRANCH   2  17
ATOM     17  C   UNL     1       7.410   5.783  16.415  0.00  0.00    +0.000 C 
BRANCH  17  18
ATOM     18  N   UNL     1       6.973   4.816  15.443  0.00  0.00    +0.000 N 
ATOM     19  N   UNL     1       6.103   3.855  15.770  0.00  0.00    +0.000 NA
ATOM     20  N   UNL     1       5.723   3.332  14.615  0.00  0.00    +0.000 NA
ATOM     21  C   UNL     1       6.390   4.014  13.635  0.00  0.00    +0.000 A 
ATOM     22  N   UNL     1       7.193   4.983  14.116  0.00  0.00    +0.000 NA
BRANCH  21  23
ATOM     23  C   UNL     1       6.160   3.725  12.163  0.00  0.00    +0.000 C 
ATOM     24  C   UNL     1       7.045   2.690  11.494  0.00  0.00    +0.000 C 
ATOM     25  C   UNL     1       5.601   2.394  11.712  0.00  0.00    +0.000 C 
ENDBRANCH  21  23
ENDBRANCH  17  18
ENDBRANCH   2  17
TORSDOF 5
ENDMDL
MODEL 9
REMARK VINA RESULT:      -7.6      3.294      7.704
REMARK  Name = 
REMARK  6 active torsions:
REMARK  status: ('A' for Active; 'I' for Inactive)
REMARK    1  A    between atoms: C_1  and  C_2
REMARK    2  A    between atoms: C_4  and  N_5
REMARK    3  A    between atoms: C_6  and  C_8
REMARK    4  A    between atoms: C_8  and  N_9
REMARK    5  A    between atoms: C_12  and  C_13
REMARK    6  A    between atoms: N_17  and  C_18
REMARK                            x       y       z     vdW  Elec       q    Type
REMARK                         _______ _______ _______ _____ _____    ______ ____
ROOT
ATOM      1  N   UNL     1       2.550   7.577  17.890  0.00  0.00    +0.000 N 
ATOM      2  C   UNL     1       1.929   8.375  18.919  0.00  0.00    +0.000 C 
ATOM      3  O   UNL     1       1.860   7.939  20.063  0.00  0.00    +0.000 OA
ATOM      4  H   UNL     1       2.685   7.993  16.966  0.00  0.00    +0.000 HD
ENDROOT
BRANCH   1   8
ATOM      5  C   UNL     1       2.555   2.643  18.530  0.00  0.00    +0.000 C 
ATOM      6  C   UNL     1       2.940   4.068  18.398  0.00  0.00    +0.000 A 
ATOM      7  C   UNL     1       2.102   5.205  18.388  0.00  0.00    +0.000 A 
ATOM      8  C   UNL     1       2.937   6.263  18.106  0.00  0.00    +0.000 A 
ATOM      9  N   UNL     1       4.189   5.721  17.948  0.00  0.00    +0.000 N 
ATOM     10  N   UNL     1       4.221   4.400  18.206  0.00  0.00    +0.000 NA
BRANCH   9  11
ATOM     11  C   UNL     1       5.372   6.391  17.411  0.00  0.00    +0.000 C 
ATOM     12  C   UNL     1       6.723   5.786  17.840  0.00  0.00    +0.000 C 
ATOM     13  C   UNL     1       7.170   4.570  17.026  0.00  0.00    +0.000 C 
ATOM     14  C   UNL     1       7.030   4.787  15.523  0.00  0.00    +0.000 C 
ATOM     15  C   UNL     1       5.627   5.246  15.144  0.00  0.00    +0.000 C 
ATOM     16  C   UNL     1       5.248   6.526  15.887  0.00  0.00    +0.000 C 
ENDBRANCH   9  11
ENDBRANCH   1   8
BRANCH   2  17
ATOM     17  C   UNL     1       1.574   9.782  18.579  0.00  0.00    +0.000 C 
BRANCH  17  18
ATOM     18  N   UNL     1       0.149   9.983  18.542  0.00  0.00    +0.000 N 
ATOM     19  N   UNL     1      -0.454  10.801  19.410  0.00  0.00    +0.000 NA
ATOM     20  N   UNL     1      -1.679  10.959  18.935  0.00  0.00    +0.000 NA
ATOM     21  C   UNL     1      -1.754  10.221  17.785  0.00  0.00    +0.000 A 
ATOM     22  N   UNL     1      -0.603   9.588  17.486  0.00  0.00    +0.000 NA
BRANCH  21  23
ATOM     23  C   UNL     1      -3.005  10.206  16.926  0.00  0.00    +0.000 C 
ATOM     24  C   UNL     1      -3.053  11.130  15.724  0.00  0.00    +0.000 C 
ATOM     25  C   UNL     1      -2.971   9.656  15.516  0.00  0.00    +0.000 C 
ENDBRANCH  21  23
ENDBRANCH  17  18
ENDBRANCH   2  17
TORSDOF 5
ENDMDL
