MODEL 1
REMARK VINA RESULT:      -4.9      0.000      0.000
REMARK  Name = 
REMARK  8 active torsions:
REMARK  status: ('A' for Active; 'I' for Inactive)
REMARK    1  A    between atoms: C_1  and  C_2
REMARK    2  A    between atoms: C_2  and  C_3
REMARK    3  A    between atoms: C_3  and  C_4
REMARK    4  A    between atoms: C_4  and  N_5
REMARK    5  A    between atoms: C_6  and  C_8
REMARK    6  A    between atoms: C_8  and  S_9
REMARK    7  A    between atoms: S_9  and  C_10
REMARK    8  A    between atoms: S_9  and  C_11
REMARK                            x       y       z     vdW  Elec       q    Type
REMARK                         _______ _______ _______ _____ _____    ______ ____
ROOT
ATOM      1  N   UNL     1       6.313   3.544  13.723  0.00  0.00    +0.000 N 
ATOM      2  C   UNL     1       6.955   4.509  14.481  0.00  0.00    +0.000 C 
ATOM      3  O   UNL     1       7.678   5.379  13.991  0.00  0.00    +0.000 OA
ATOM      4  H   UNL     1       5.942   2.713  14.169  0.00  0.00    +0.000 HD
ENDROOT
BRANCH   1   5
ATOM      5  C   UNL     1       6.465   3.514  12.280  0.00  0.00    +0.000 C 
BRANCH   5   6
ATOM      6  C   UNL     1       5.373   2.707  11.585  0.00  0.00    +0.000 C 
BRANCH   6   8
ATOM      7  C   UNL     1       3.384   3.498  10.240  0.00  0.00    +0.000 C 
ATOM      8  C   UNL     1       4.011   3.406  11.622  0.00  0.00    +0.000 C 
ENDBRANCH   6   8
ENDBRANCH   5   6
ENDBRANCH   1   5
BRANCH   2   9
ATOM      9  C   UNL     1       6.665   4.447  15.973  0.00  0.00    +0.000 C 
BRANCH   9  10
ATOM     10  S   UNL     1       5.026   5.163  16.379  0.00  0.00    +0.000 S 
ATOM     11  C   UNL     1       4.597   3.963  17.664  0.00  0.00    +0.000 C 
ATOM     12  C   UNL     1       5.615   6.454  17.494  0.00  0.00    +0.000 C 
ENDBRANCH   9  10
ENDBRANCH   2   9
TORSDOF 5
ENDMDL
MODEL 2
REMARK VINA RESULT:      -4.9      1.187      1.797
REMARK  Name = 
REMARK  8 active torsions:
REMARK  status: ('A' for Active; 'I' for Inactive)
REMARK    1  A    between atoms: C_1  and  C_2
REMARK    2  A    between atoms: C_2  and  C_3
REMARK    3  A    between atoms: C_3  and  C_4
REMARK    4  A    between atoms: C_4  and  N_5
REMARK    5  A    between atoms: C_6  and  C_8
REMARK    6  A    between atoms: C_8  and  S_9
REMARK    7  A    between atoms: S_9  and  C_10
REMARK    8  A    between atoms: S_9  and  C_11
REMARK                            x       y       z     vdW  Elec       q    Type
REMARK                         _______ _______ _______ _____ _____    ______ ____
ROOT
ATOM      1  N   UNL     1       6.293   3.557  13.822  0.00  0.00    +0.000 N 
ATOM      2  C   UNL     1       6.958   4.503  14.585  0.00  0.00    +0.000 C 
ATOM      3  O   UNL     1       7.632   5.411  14.094  0.00  0.00    +0.000 OA
ATOM      4  H   UNL     1       5.966   2.699  14.250  0.00  0.00    +0.000 HD
ENDROOT
BRANCH   1   5
ATOM      5  C   UNL     1       6.362   3.593  12.373  0.00  0.00    +0.000 C 
BRANCH   5   6
ATOM      6  C   UNL     1       5.644   2.419  11.716  0.00  0.00    +0.000 C 
BRANCH   6   8
ATOM      7  C   UNL     1       6.155  -0.018  11.277  0.00  0.00    +0.000 C 
ATOM      8  C   UNL     1       6.612   1.419  11.078  0.00  0.00    +0.000 C 
ENDBRANCH   6   8
ENDBRANCH   5   6
ENDBRANCH   1   5
BRANCH   2   9
ATOM      9  C   UNL     1       6.757   4.369  16.087  0.00  0.00    +0.000 C 
BRANCH   9  10
ATOM     10  S   UNL     1       5.006   4.635  16.565  0.00  0.00    +0.000 S 
ATOM     11  C   UNL     1       5.276   4.570  18.354  0.00  0.00    +0.000 C 
ATOM     12  C   UNL     1       5.006   6.435  16.424  0.00  0.00    +0.000 C 
ENDBRANCH   9  10
ENDBRANCH   2   9
TORSDOF 5
ENDMDL
MODEL 3
REMARK VINA RESULT:      -4.8      1.483      1.695
REMARK  Name = 
REMARK  8 active torsions:
REMARK  status: ('A' for Active; 'I' for Inactive)
REMARK    1  A    between atoms: C_1  and  C_2
REMARK    2  A    between atoms: C_2  and  C_3
REMARK    3  A    between atoms: C_3  and  C_4
REMARK    4  A    between atoms: C_4  and  N_5
REMARK    5  A    between atoms: C_6  and  C_8
REMARK    6  A    between atoms: C_8  and  S_9
REMARK    7  A    between atoms: S_9  and  C_10
REMARK    8  A    between atoms: S_9  and  C_11
REMARK                            x       y       z     vdW  Elec       q    Type
REMARK                         _______ _______ _______ _____ _____    ______ ____
ROOT
ATOM      1  N   UNL     1       5.892   4.006  14.999  0.00  0.00    +0.000 N 
ATOM      2  C   UNL     1       6.972   4.720  15.490  0.00  0.00    +0.000 C 
ATOM      3  O   UNL     1       7.607   5.532  14.813  0.00  0.00    +0.000 OA
ATOM      4  H   UNL     1       5.562   3.184  15.490  0.00  0.00    +0.000 HD
ENDROOT
BRANCH   1   5
ATOM      5  C   UNL     1       5.447   4.186  13.629  0.00  0.00    +0.000 C 
BRANCH   5   6
ATOM      6  C   UNL     1       6.286   3.401  12.625  0.00  0.00    +0.000 C 
BRANCH   6   8
ATOM      7  C   UNL     1       4.150   3.227  11.283  0.00  0.00    +0.000 C 
ATOM      8  C   UNL     1       5.434   2.528  11.700  0.00  0.00    +0.000 C 
ENDBRANCH   6   8
ENDBRANCH   5   6
ENDBRANCH   1   5
BRANCH   2   9
ATOM      9  C   UNL     1       7.294   4.464  16.954  0.00  0.00    +0.000 C 
BRANCH   9  10
ATOM     10  S   UNL     1       6.486   5.690  18.053  0.00  0.00    +0.000 S 
ATOM     11  C   UNL     1       5.415   4.511  18.913  0.00  0.00    +0.000 C 
ATOM     12  C   UNL     1       7.777   5.749  19.313  0.00  0.00    +0.000 C 
ENDBRANCH   9  10
ENDBRANCH   2   9
TORSDOF 5
ENDMDL
MODEL 4
REMARK VINA RESULT:      -4.8      1.006      1.108
REMARK  Name = 
REMARK  8 active torsions:
REMARK  status: ('A' for Active; 'I' for Inactive)
REMARK    1  A    between atoms: C_1  and  C_2
REMARK    2  A    between atoms: C_2  and  C_3
REMARK    3  A    between atoms: C_3  and  C_4
REMARK    4  A    between atoms: C_4  and  N_5
REMARK    5  A    between atoms: C_6  and  C_8
REMARK    6  A    between atoms: C_8  and  S_9
REMARK    7  A    between atoms: S_9  and  C_10
REMARK    8  A    between atoms: S_9  and  C_11
REMARK                            x       y       z     vdW  Elec       q    Type
REMARK                         _______ _______ _______ _____ _____    ______ ____
ROOT
ATOM      1  N   UNL     1       6.230   3.626  14.120  0.00  0.00    +0.000 N 
ATOM      2  C   UNL     1       6.817   4.484  15.035  0.00  0.00    +0.000 C 
ATOM      3  O   UNL     1       7.722   5.267  14.738  0.00  0.00    +0.000 OA
ATOM      4  H   UNL     1       5.681   2.838  14.443  0.00  0.00    +0.000 HD
ENDROOT
BRANCH   1   5
ATOM      5  C   UNL     1       6.665   3.610  12.735  0.00  0.00    +0.000 C 
BRANCH   5   6
ATOM      6  C   UNL     1       5.690   2.882  11.816  0.00  0.00    +0.000 C 
BRANCH   6   8
ATOM      7  C   UNL     1       3.521   3.185  10.552  0.00  0.00    +0.000 C 
ATOM      8  C   UNL     1       4.294   3.512  11.819  0.00  0.00    +0.000 C 
ENDBRANCH   6   8
ENDBRANCH   5   6
ENDBRANCH   1   5
BRANCH   2   9
ATOM      9  C   UNL     1       6.228   4.424  16.436  0.00  0.00    +0.000 C 
BRANCH   9  10
ATOM     10  S   UNL     1       6.166   6.081  17.219  0.00  0.00    +0.000 S 
ATOM     11  C   UNL     1       4.378   6.102  17.501  0.00  0.00    +0.000 C 
ATOM     12  C   UNL     1       6.629   5.561  18.884  0.00  0.00    +0.000 C 
ENDBRANCH   9  10
ENDBRANCH   2   9
TORSDOF 5
ENDMDL
MODEL 5
REMARK VINA RESULT:      -4.7      4.660      6.117
REMARK  Name = 
REMARK  8 active torsions:
REMARK  status: ('A' for Active; 'I' for Inactive)
REMARK    1  A    between atoms: C_1  and  C_2
REMARK    2  A    between atoms: C_2  and  C_3
REMARK    3  A    between atoms: C_3  and  C_4
REMARK    4  A    between atoms: C_4  and  N_5
REMARK    5  A    between atoms: C_6  and  C_8
REMARK    6  A    between atoms: C_8  and  S_9
REMARK    7  A    between atoms: S_9  and  C_10
REMARK    8  A    between atoms: S_9  and  C_11
REMARK                            x       y       z     vdW  Elec       q    Type
REMARK                         _______ _______ _______ _____ _____    ______ ____
ROOT
ATOM      1  N   UNL     1       3.998   4.236  17.978  0.00  0.00    +0.000 N 
ATOM      2  C   UNL     1       4.922   4.072  18.996  0.00  0.00    +0.000 C 
ATOM      3  O   UNL     1       4.959   3.074  19.718  0.00  0.00    +0.000 OA
ATOM      4  H   UNL     1       3.838   5.154  17.581  0.00  0.00    +0.000 HD
ENDROOT
BRANCH   1   5
ATOM      5  C   UNL     1       3.004   3.213  17.709  0.00  0.00    +0.000 C 
BRANCH   5   6
ATOM      6  C   UNL     1       1.585   3.663  18.040  0.00  0.00    +0.000 C 
BRANCH   6   8
ATOM      7  C   UNL     1       1.214   3.752  20.539  0.00  0.00    +0.000 C 
ATOM      8  C   UNL     1       1.010   2.948  19.265  0.00  0.00    +0.000 C 
ENDBRANCH   6   8
ENDBRANCH   5   6
ENDBRANCH   1   5
BRANCH   2   9
ATOM      9  C   UNL     1       5.931   5.203  19.131  0.00  0.00    +0.000 C 
BRANCH   9  10
ATOM     10  S   UNL     1       6.341   5.947  17.506  0.00  0.00    +0.000 S 
ATOM     11  C   UNL     1       7.726   6.954  18.090  0.00  0.00    +0.000 C 
ATOM     12  C   UNL     1       7.336   4.579  16.876  0.00  0.00    +0.000 C 
ENDBRANCH   9  10
ENDBRANCH   2   9
TORSDOF 5
ENDMDL
MODEL 6
REMARK VINA RESULT:      -4.7      1.138      1.446
REMARK  Name = 
REMARK  8 active torsions:
REMARK  status: ('A' for Active; 'I' for Inactive)
REMARK    1  A    between atoms: C_1  and  C_2
REMARK    2  A    between atoms: C_2  and  C_3
REMARK    3  A    between atoms: C_3  and  C_4
REMARK    4  A    between atoms: C_4  and  N_5
REMARK    5  A    between atoms: C_6  and  C_8
REMARK    6  A    between atoms: C_8  and  S_9
REMARK    7  A    between atoms: S_9  and  C_10
REMARK    8  A    between atoms: S_9  and  C_11
REMARK                            x       y       z     vdW  Elec       q    Type
REMARK                         _______ _______ _______ _____ _____    ______ ____
ROOT
ATOM      1  N   UNL     1       6.331   3.665  14.515  0.00  0.00    +0.000 N 
ATOM      2  C   UNL     1       7.010   4.615  15.259  0.00  0.00    +0.000 C 
ATOM      3  O   UNL     1       7.629   5.553  14.752  0.00  0.00    +0.000 OA
ATOM      4  H   UNL     1       6.054   2.789  14.941  0.00  0.00    +0.000 HD
ENDROOT
BRANCH   1   5
ATOM      5  C   UNL     1       6.317   3.732  13.065  0.00  0.00    +0.000 C 
BRANCH   5   6
ATOM      6  C   UNL     1       4.910   3.667  12.481  0.00  0.00    +0.000 C 
BRANCH   6   8
ATOM      7  C   UNL     1       5.882   1.625  11.350  0.00  0.00    +0.000 C 
ATOM      8  C   UNL     1       4.806   2.698  11.300  0.00  0.00    +0.000 C 
ENDBRANCH   6   8
ENDBRANCH   5   6
ENDBRANCH   1   5
BRANCH   2   9
ATOM      9  C   UNL     1       6.898   4.445  16.767  0.00  0.00    +0.000 C 
BRANCH   9  10
ATOM     10  S   UNL     1       5.378   5.230  17.429  0.00  0.00    +0.000 S 
ATOM     11  C   UNL     1       4.399   3.711  17.535  0.00  0.00    +0.000 C 
ATOM     12  C   UNL     1       5.882   5.268  19.162  0.00  0.00    +0.000 C 
ENDBRANCH   9  10
ENDBRANCH   2   9
TORSDOF 5
ENDMDL
MODEL 7
REMARK VINA RESULT:      -4.5      3.419      4.934
REMARK  Name = 
REMARK  8 active torsions:
REMARK  status: ('A' for Active; 'I' for Inactive)
REMARK    1  A    between atoms: C_1  and  C_2
REMARK    2  A    between atoms: C_2  and  C_3
REMARK    3  A    between atoms: C_3  and  C_4
REMARK    4  A    between atoms: C_4  and  N_5
REMARK    5  A    between atoms: C_6  and  C_8
REMARK    6  A    between atoms: C_8  and  S_9
REMARK    7  A    between atoms: S_9  and  C_10
REMARK    8  A    between atoms: S_9  and  C_11
REMARK                            x       y       z     vdW  Elec       q    Type
REMARK                         _______ _______ _______ _____ _____    ______ ____
ROOT
ATOM      1  N   UNL     1       6.144   3.845  18.252  0.00  0.00    +0.000 N 
ATOM      2  C   UNL     1       5.146   4.280  19.107  0.00  0.00    +0.000 C 
ATOM      3  O   UNL     1       5.009   5.460  19.436  0.00  0.00    +0.000 OA
ATOM      4  H   UNL     1       6.378   2.860  18.204  0.00  0.00    +0.000 HD
ENDROOT
BRANCH   1   5
ATOM      5  C   UNL     1       7.100   4.782  17.690  0.00  0.00    +0.000 C 
BRANCH   5   6
ATOM      6  C   UNL     1       7.214   4.676  16.173  0.00  0.00    +0.000 C 
BRANCH   6   8
ATOM      7  C   UNL     1       5.754   4.158  14.175  0.00  0.00    +0.000 C 
ATOM      8  C   UNL     1       5.888   4.957  15.461  0.00  0.00    +0.000 C 
ENDBRANCH   6   8
ENDBRANCH   5   6
ENDBRANCH   1   5
BRANCH   2   9
ATOM      9  C   UNL     1       4.191   3.195  19.579  0.00  0.00    +0.000 C 
BRANCH   9  10
ATOM     10  S   UNL     1       2.463   3.541  19.071  0.00  0.00    +0.000 S 
ATOM     11  C   UNL     1       2.382   2.287  17.768  0.00  0.00    +0.000 C 
ATOM     12  C   UNL     1       1.651   2.558  20.350  0.00  0.00    +0.000 C 
ENDBRANCH   9  10
ENDBRANCH   2   9
TORSDOF 5
ENDMDL
MODEL 8
REMARK VINA RESULT:      -4.5      4.348      6.786
REMARK  Name = 
REMARK  8 active torsions:
REMARK  status: ('A' for Active; 'I' for Inactive)
REMARK    1  A    between atoms: C_1  and  C_2
REMARK    2  A    between atoms: C_2  and  C_3
REMARK    3  A    between atoms: C_3  and  C_4
REMARK    4  A    between atoms: C_4  and  N_5
REMARK    5  A    between atoms: C_6  and  C_8
REMARK    6  A    between atoms: C_8  and  S_9
REMARK    7  A    between atoms: S_9  and  C_10
REMARK    8  A    between atoms: S_9  and  C_11
REMARK                            x       y       z     vdW  Elec       q    Type
REMARK                         _______ _______ _______ _____ _____    ______ ____
ROOT
ATOM      1  N   UNL     1       3.355   5.473  20.068  0.00  0.00    +0.000 N 
ATOM      2  C   UNL     1       3.568   5.519  18.700  0.00  0.00    +0.000 C 
ATOM      3  O   UNL     1       2.658   5.434  17.873  0.00  0.00    +0.000 OA
ATOM      4  H   UNL     1       4.129   5.294  20.696  0.00  0.00    +0.000 HD
ENDROOT
BRANCH   1   5
ATOM      5  C   UNL     1       2.015   5.318  20.603  0.00  0.00    +0.000 C 
BRANCH   5   6
ATOM      6  C   UNL     1       1.689   3.877  20.980  0.00  0.00    +0.000 C 
BRANCH   6   8
ATOM      7  C   UNL     1       1.553   2.225  19.071  0.00  0.00    +0.000 C 
ATOM      8  C   UNL     1       0.781   3.190  19.957  0.00  0.00    +0.000 C 
ENDBRANCH   6   8
ENDBRANCH   5   6
ENDBRANCH   1   5
BRANCH   2   9
ATOM      9  C   UNL     1       5.016   5.732  18.286  0.00  0.00    +0.000 C 
BRANCH   9  10
ATOM     10  S   UNL     1       5.561   4.492  17.050  0.00  0.00    +0.000 S 
ATOM     11  C   UNL     1       5.488   5.593  15.616  0.00  0.00    +0.000 C 
ATOM     12  C   UNL     1       7.336   4.650  17.339  0.00  0.00    +0.000 C 
ENDBRANCH   9  10
ENDBRANCH   2   9
TORSDOF 5
ENDMDL
MODEL 9
REMARK VINA RESULT:      -4.4      4.562      5.949
REMARK  Name = 
REMARK  8 active torsions:
REMARK  status: ('A' for Active; 'I' for Inactive)
REMARK    1  A    between atoms: C_1  and  C_2
REMARK    2  A    between atoms: C_2  and  C_3
REMARK    3  A    between atoms: C_3  and  C_4
REMARK    4  A    between atoms: C_4  and  N_5
REMARK    5  A    between atoms: C_6  and  C_8
REMARK    6  A    between atoms: C_8  and  S_9
REMARK    7  A    between atoms: S_9  and  C_10
REMARK    8  A    between atoms: S_9  and  C_11
REMARK                            x       y       z     vdW  Elec       q    Type
REMARK                         _______ _______ _______ _____ _____    ______ ____
ROOT
ATOM      1  N   UNL     1       4.111   5.477  19.339  0.00  0.00    +0.000 N 
ATOM      2  C   UNL     1       5.268   4.721  19.260  0.00  0.00    +0.000 C 
ATOM      3  O   UNL     1       5.295   3.507  19.471  0.00  0.00    +0.000 OA
ATOM      4  H   UNL     1       4.167   6.486  19.407  0.00  0.00    +0.000 HD
ENDROOT
BRANCH   1   5
ATOM      5  C   UNL     1       2.844   4.858  19.683  0.00  0.00    +0.000 C 
BRANCH   5   6
ATOM      6  C   UNL     1       1.929   4.668  18.477  0.00  0.00    +0.000 C 
BRANCH   6   8
ATOM      7  C   UNL     1       2.462   2.308  17.742  0.00  0.00    +0.000 C 
ATOM      8  C   UNL     1       1.417   3.231  18.347  0.00  0.00    +0.000 C 
ENDBRANCH   6   8
ENDBRANCH   5   6
ENDBRANCH   1   5
BRANCH   2   9
ATOM      9  C   UNL     1       6.510   5.495  18.843  0.00  0.00    +0.000 C 
BRANCH   9  10
ATOM     10  S   UNL     1       6.199   6.535  17.365  0.00  0.00    +0.000 S 
ATOM     11  C   UNL     1       7.648   7.601  17.561  0.00  0.00    +0.000 C 
ATOM     12  C   UNL     1       6.930   5.419  16.148  0.00  0.00    +0.000 C 
ENDBRANCH   9  10
ENDBRANCH   2   9
TORSDOF 5
ENDMDL
