MODEL 1
REMARK VINA RESULT:      -9.2      0.000      0.000
REMARK  Name = 
REMARK  10 active torsions:
REMARK  status: ('A' for Active; 'I' for Inactive)
REMARK    1  A    between atoms: C_1  and  C_2
REMARK    2  A    between atoms: C_2  and  C_3
REMARK    3  A    between atoms: C_3  and  C_4
REMARK    4  A    between atoms: C_4  and  C_5
REMARK    5  A    between atoms: C_5  and  C_6
REMARK    6  A    between atoms: C_6  and  C_7
REMARK    7  A    between atoms: C_7  and  O_8
REMARK    8  A    between atoms: O_8  and  C_9
REMARK    9  A    between atoms: C_11  and  C_12
REMARK   10  A    between atoms: C_18  and  C_19
REMARK                            x       y       z     vdW  Elec       q    Type
REMARK                         _______ _______ _______ _____ _____    ______ ____
ROOT
ATOM      1  C   UNL     1       5.938   5.134  16.250  0.00  0.00    +0.000 A 
ATOM      2  C   UNL     1       5.085   4.377  17.003  0.00  0.00    +0.000 A 
ATOM      3  C   UNL     1       4.016   4.972  17.678  0.00  0.00    +0.000 A 
ATOM      4  C   UNL     1       3.895   6.375  17.557  0.00  0.00    +0.000 A 
ATOM      5  N   UNL     1       4.737   7.080  16.754  0.00  0.00    +0.000 NA
ATOM      6  N   UNL     1       5.747   6.461  16.098  0.00  0.00    +0.000 NA
ENDROOT
BRANCH   3   7
ATOM      7  C   UNL     1       3.060   4.129  18.432  0.00  0.00    +0.000 A 
ATOM      8  C   UNL     1       3.366   3.653  19.709  0.00  0.00    +0.000 A 
ATOM      9  C   UNL     1       2.527   2.753  20.353  0.00  0.00    +0.000 A 
ATOM     10  C   UNL     1       1.315   2.389  19.776  0.00  0.00    +0.000 A 
ATOM     11  C   UNL     1       0.934   2.922  18.559  0.00  0.00    +0.000 A 
ATOM     12  C   UNL     1       1.815   3.746  17.875  0.00  0.00    +0.000 A 
ENDBRANCH   3   7
BRANCH   4  13
ATOM     13  C   UNL     1       2.941   7.237  18.286  0.00  0.00    +0.000 A 
ATOM     14  C   UNL     1       2.297   8.318  17.646  0.00  0.00    +0.000 A 
ATOM     15  C   UNL     1       1.490   9.211  18.319  0.00  0.00    +0.000 A 
ATOM     16  C   UNL     1       1.203   8.973  19.658  0.00  0.00    +0.000 A 
ATOM     17  C   UNL     1       1.752   7.867  20.309  0.00  0.00    +0.000 A 
ATOM     18  C   UNL     1       2.628   7.026  19.637  0.00  0.00    +0.000 A 
ENDBRANCH   4  13
BRANCH   1  19
ATOM     19  O   UNL     1       7.017   4.557  15.627  0.00  0.00    +0.000 OA
BRANCH  19  20
ATOM     20  C   UNL     1       6.967   4.789  14.209  0.00  0.00    +0.000 C 
BRANCH  20  21
ATOM     21  C   UNL     1       5.966   3.827  13.591  0.00  0.00    +0.000 C 
BRANCH  21  22
ATOM     22  C   UNL     1       6.482   3.283  12.263  0.00  0.00    +0.000 C 
BRANCH  22  23
ATOM     23  C   UNL     1       5.378   2.559  11.498  0.00  0.00    +0.000 C 
BRANCH  23  24
ATOM     24  C   UNL     1       4.086   3.373  11.506  0.00  0.00    +0.000 C 
BRANCH  24  26
ATOM     25  C   UNL     1       2.882   4.377   9.547  0.00  0.00    +0.000 C 
ATOM     26  C   UNL     1       3.248   3.088  10.263  0.00  0.00    +0.000 C 
ENDBRANCH  24  26
ENDBRANCH  23  24
ENDBRANCH  22  23
ENDBRANCH  21  22
ENDBRANCH  20  21
ENDBRANCH  19  20
ENDBRANCH   1  19
TORSDOF 9
ENDMDL
MODEL 2
REMARK VINA RESULT:      -8.6      1.096      3.657
REMARK  Name = 
REMARK  10 active torsions:
REMARK  status: ('A' for Active; 'I' for Inactive)
REMARK    1  A    between atoms: C_1  and  C_2
REMARK    2  A    between atoms: C_2  and  C_3
REMARK    3  A    between atoms: C_3  and  C_4
REMARK    4  A    between atoms: C_4  and  C_5
REMARK    5  A    between atoms: C_5  and  C_6
REMARK    6  A    between atoms: C_6  and  C_7
REMARK    7  A    between atoms: C_7  and  O_8
REMARK    8  A    between atoms: O_8  and  C_9
REMARK    9  A    between atoms: C_11  and  C_12
REMARK   10  A    between atoms: C_18  and  C_19
REMARK                            x       y       z     vdW  Elec       q    Type
REMARK                         _______ _______ _______ _____ _____    ______ ____
ROOT
ATOM      1  C   UNL     1       5.374   5.332  16.113  0.00  0.00    +0.000 A 
ATOM      2  C   UNL     1       4.578   6.296  16.664  0.00  0.00    +0.000 A 
ATOM      3  C   UNL     1       3.712   5.983  17.716  0.00  0.00    +0.000 A 
ATOM      4  C   UNL     1       3.694   4.635  18.141  0.00  0.00    +0.000 A 
ATOM      5  N   UNL     1       4.544   3.723  17.597  0.00  0.00    +0.000 NA
ATOM      6  N   UNL     1       5.385   4.071  16.595  0.00  0.00    +0.000 NA
ENDROOT
BRANCH   3   7
ATOM      7  C   UNL     1       2.906   7.053  18.348  0.00  0.00    +0.000 A 
ATOM      8  C   UNL     1       2.603   7.021  19.711  0.00  0.00    +0.000 A 
ATOM      9  C   UNL     1       1.736   7.951  20.269  0.00  0.00    +0.000 A 
ATOM     10  C   UNL     1       1.232   8.991  19.497  0.00  0.00    +0.000 A 
ATOM     11  C   UNL     1       1.594   9.112  18.168  0.00  0.00    +0.000 A 
ATOM     12  C   UNL     1       2.384   8.130  17.590  0.00  0.00    +0.000 A 
ENDBRANCH   3   7
BRANCH   4  13
ATOM     13  C   UNL     1       2.769   4.041  19.128  0.00  0.00    +0.000 A 
ATOM     14  C   UNL     1       3.174   3.806  20.460  0.00  0.00    +0.000 A 
ATOM     15  C   UNL     1       2.379   3.151  21.378  0.00  0.00    +0.000 A 
ATOM     16  C   UNL     1       1.081   2.810  21.014  0.00  0.00    +0.000 A 
ATOM     17  C   UNL     1       0.611   3.101  19.732  0.00  0.00    +0.000 A 
ATOM     18  C   UNL     1       1.453   3.686  18.796  0.00  0.00    +0.000 A 
ENDBRANCH   4  13
BRANCH   1  19
ATOM     19  O   UNL     1       6.189   5.627  15.048  0.00  0.00    +0.000 OA
BRANCH  19  20
ATOM     20  C   UNL     1       6.651   4.424  14.413  0.00  0.00    +0.000 C 
BRANCH  20  21
ATOM     21  C   UNL     1       6.927   4.720  12.947  0.00  0.00    +0.000 C 
BRANCH  21  22
ATOM     22  C   UNL     1       6.866   3.443  12.114  0.00  0.00    +0.000 C 
BRANCH  22  23
ATOM     23  C   UNL     1       5.440   2.905  12.038  0.00  0.00    +0.000 C 
BRANCH  23  24
ATOM     24  C   UNL     1       4.511   3.918  11.374  0.00  0.00    +0.000 C 
BRANCH  24  26
ATOM     25  C   UNL     1       2.833   4.102   9.516  0.00  0.00    +0.000 C 
ATOM     26  C   UNL     1       3.378   3.219  10.626  0.00  0.00    +0.000 C 
ENDBRANCH  24  26
ENDBRANCH  23  24
ENDBRANCH  22  23
ENDBRANCH  21  22
ENDBRANCH  20  21
ENDBRANCH  19  20
ENDBRANCH   1  19
TORSDOF 9
ENDMDL
MODEL 3
REMARK VINA RESULT:      -8.5      0.446      1.432
REMARK  Name = 
REMARK  10 active torsions:
REMARK  status: ('A' for Active; 'I' for Inactive)
REMARK    1  A    between atoms: C_1  and  C_2
REMARK    2  A    between atoms: C_2  and  C_3
REMARK    3  A    between atoms: C_3  and  C_4
REMARK    4  A    between atoms: C_4  and  C_5
REMARK    5  A    between atoms: C_5  and  C_6
REMARK    6  A    between atoms: C_6  and  C_7
REMARK    7  A    between atoms: C_7  and  O_8
REMARK    8  A    between atoms: O_8  and  C_9
REMARK    9  A    between atoms: C_11  and  C_12
REMARK   10  A    between atoms: C_18  and  C_19
REMARK                            x       y       z     vdW  Elec       q    Type
REMARK                         _______ _______ _______ _____ _____    ______ ____
ROOT
ATOM      1  C   UNL     1       5.789   5.214  16.162  0.00  0.00    +0.000 A 
ATOM      2  C   UNL     1       4.944   4.470  16.937  0.00  0.00    +0.000 A 
ATOM      3  C   UNL     1       3.908   5.084  17.646  0.00  0.00    +0.000 A 
ATOM      4  C   UNL     1       3.811   6.489  17.534  0.00  0.00    +0.000 A 
ATOM      5  N   UNL     1       4.643   7.180  16.708  0.00  0.00    +0.000 NA
ATOM      6  N   UNL     1       5.620   6.545  16.020  0.00  0.00    +0.000 NA
ENDROOT
BRANCH   3   7
ATOM      7  C   UNL     1       2.959   4.257  18.426  0.00  0.00    +0.000 A 
ATOM      8  C   UNL     1       1.697   3.934  17.923  0.00  0.00    +0.000 A 
ATOM      9  C   UNL     1       0.763   3.275  18.713  0.00  0.00    +0.000 A 
ATOM     10  C   UNL     1       1.107   2.838  19.987  0.00  0.00    +0.000 A 
ATOM     11  C   UNL     1       2.381   3.050  20.478  0.00  0.00    +0.000 A 
ATOM     12  C   UNL     1       3.282   3.790  19.725  0.00  0.00    +0.000 A 
ENDBRANCH   3   7
BRANCH   4  13
ATOM     13  C   UNL     1       2.897   7.367  18.294  0.00  0.00    +0.000 A 
ATOM     14  C   UNL     1       2.606   7.119  19.653  0.00  0.00    +0.000 A 
ATOM     15  C   UNL     1       1.674   7.846  20.362  0.00  0.00    +0.000 A 
ATOM     16  C   UNL     1       1.078   8.944  19.751  0.00  0.00    +0.000 A 
ATOM     17  C   UNL     1       1.400   9.277  18.434  0.00  0.00    +0.000 A 
ATOM     18  C   UNL     1       2.279   8.483  17.710  0.00  0.00    +0.000 A 
ENDBRANCH   4  13
BRANCH   1  19
ATOM     19  O   UNL     1       6.837   4.618  15.504  0.00  0.00    +0.000 OA
BRANCH  19  20
ATOM     20  C   UNL     1       6.715   4.801  14.084  0.00  0.00    +0.000 C 
BRANCH  20  21
ATOM     21  C   UNL     1       6.202   3.509  13.467  0.00  0.00    +0.000 C 
BRANCH  21  22
ATOM     22  C   UNL     1       5.025   3.782  12.535  0.00  0.00    +0.000 C 
BRANCH  22  23
ATOM     23  C   UNL     1       4.863   2.661  11.513  0.00  0.00    +0.000 C 
BRANCH  23  24
ATOM     24  C   UNL     1       3.595   2.859  10.685  0.00  0.00    +0.000 C 
BRANCH  24  26
ATOM     25  C   UNL     1       2.617   4.526   9.084  0.00  0.00    +0.000 C 
ATOM     26  C   UNL     1       3.346   4.338  10.404  0.00  0.00    +0.000 C 
ENDBRANCH  24  26
ENDBRANCH  23  24
ENDBRANCH  22  23
ENDBRANCH  21  22
ENDBRANCH  20  21
ENDBRANCH  19  20
ENDBRANCH   1  19
TORSDOF 9
ENDMDL
MODEL 4
REMARK VINA RESULT:      -8.4      0.577      1.102
REMARK  Name = 
REMARK  10 active torsions:
REMARK  status: ('A' for Active; 'I' for Inactive)
REMARK    1  A    between atoms: C_1  and  C_2
REMARK    2  A    between atoms: C_2  and  C_3
REMARK    3  A    between atoms: C_3  and  C_4
REMARK    4  A    between atoms: C_4  and  C_5
REMARK    5  A    between atoms: C_5  and  C_6
REMARK    6  A    between atoms: C_6  and  C_7
REMARK    7  A    between atoms: C_7  and  O_8
REMARK    8  A    between atoms: O_8  and  C_9
REMARK    9  A    between atoms: C_11  and  C_12
REMARK   10  A    between atoms: C_18  and  C_19
REMARK                            x       y       z     vdW  Elec       q    Type
REMARK                         _______ _______ _______ _____ _____    ______ ____
ROOT
ATOM      1  C   UNL     1       5.543   4.922  16.456  0.00  0.00    +0.000 A 
ATOM      2  C   UNL     1       4.722   4.304  17.356  0.00  0.00    +0.000 A 
ATOM      3  C   UNL     1       3.721   5.025  18.014  0.00  0.00    +0.000 A 
ATOM      4  C   UNL     1       3.635   6.403  17.714  0.00  0.00    +0.000 A 
ATOM      5  N   UNL     1       4.439   6.962  16.771  0.00  0.00    +0.000 NA
ATOM      6  N   UNL     1       5.382   6.224  16.139  0.00  0.00    +0.000 NA
ENDROOT
BRANCH   3   7
ATOM      7  C   UNL     1       2.796   4.326  18.935  0.00  0.00    +0.000 A 
ATOM      8  C   UNL     1       1.538   3.896  18.509  0.00  0.00    +0.000 A 
ATOM      9  C   UNL     1       0.624   3.365  19.410  0.00  0.00    +0.000 A 
ATOM     10  C   UNL     1       0.985   3.162  20.736  0.00  0.00    +0.000 A 
ATOM     11  C   UNL     1       2.258   3.482  21.170  0.00  0.00    +0.000 A 
ATOM     12  C   UNL     1       3.137   4.098  20.291  0.00  0.00    +0.000 A 
ENDBRANCH   3   7
BRANCH   4  13
ATOM     13  C   UNL     1       2.760   7.390  18.381  0.00  0.00    +0.000 A 
ATOM     14  C   UNL     1       2.240   8.498  17.678  0.00  0.00    +0.000 A 
ATOM     15  C   UNL     1       1.515   9.499  18.292  0.00  0.00    +0.000 A 
ATOM     16  C   UNL     1       1.182   9.355  19.634  0.00  0.00    +0.000 A 
ATOM     17  C   UNL     1       1.605   8.232  20.347  0.00  0.00    +0.000 A 
ATOM     18  C   UNL     1       2.404   7.276  19.733  0.00  0.00    +0.000 A 
ENDBRANCH   4  13
BRANCH   1  19
ATOM     19  O   UNL     1       6.558   4.226  15.846  0.00  0.00    +0.000 OA
BRANCH  19  20
ATOM     20  C   UNL     1       6.738   4.673  14.492  0.00  0.00    +0.000 C 
BRANCH  20  21
ATOM     21  C   UNL     1       5.856   3.836  13.581  0.00  0.00    +0.000 C 
BRANCH  21  22
ATOM     22  C   UNL     1       6.536   3.596  12.236  0.00  0.00    +0.000 C 
BRANCH  22  23
ATOM     23  C   UNL     1       5.514   3.246  11.158  0.00  0.00    +0.000 C 
BRANCH  23  24
ATOM     24  C   UNL     1       4.092   3.347  11.703  0.00  0.00    +0.000 C 
BRANCH  24  26
ATOM     25  C   UNL     1       3.246   4.248   9.519  0.00  0.00    +0.000 C 
ATOM     26  C   UNL     1       3.062   3.185  10.588  0.00  0.00    +0.000 C 
ENDBRANCH  24  26
ENDBRANCH  23  24
ENDBRANCH  22  23
ENDBRANCH  21  22
ENDBRANCH  20  21
ENDBRANCH  19  20
ENDBRANCH   1  19
TORSDOF 9
ENDMDL
MODEL 5
REMARK VINA RESULT:      -8.3      1.087      1.840
REMARK  Name = 
REMARK  10 active torsions:
REMARK  status: ('A' for Active; 'I' for Inactive)
REMARK    1  A    between atoms: C_1  and  C_2
REMARK    2  A    between atoms: C_2  and  C_3
REMARK    3  A    between atoms: C_3  and  C_4
REMARK    4  A    between atoms: C_4  and  C_5
REMARK    5  A    between atoms: C_5  and  C_6
REMARK    6  A    between atoms: C_6  and  C_7
REMARK    7  A    between atoms: C_7  and  O_8
REMARK    8  A    between atoms: O_8  and  C_9
REMARK    9  A    between atoms: C_11  and  C_12
REMARK   10  A    between atoms: C_18  and  C_19
REMARK                            x       y       z     vdW  Elec       q    Type
REMARK                         _______ _______ _______ _____ _____    ______ ____
ROOT
ATOM      1  C   UNL     1       5.491   4.984  16.583  0.00  0.00    +0.000 A 
ATOM      2  C   UNL     1       4.690   4.328  17.475  0.00  0.00    +0.000 A 
ATOM      3  C   UNL     1       3.664   5.007  18.139  0.00  0.00    +0.000 A 
ATOM      4  C   UNL     1       3.531   6.385  17.854  0.00  0.00    +0.000 A 
ATOM      5  N   UNL     1       4.318   6.982  16.918  0.00  0.00    +0.000 NA
ATOM      6  N   UNL     1       5.286   6.283  16.280  0.00  0.00    +0.000 NA
ENDROOT
BRANCH   3   7
ATOM      7  C   UNL     1       2.762   4.268  19.051  0.00  0.00    +0.000 A 
ATOM      8  C   UNL     1       1.493   3.856  18.637  0.00  0.00    +0.000 A 
ATOM      9  C   UNL     1       0.602   3.285  19.536  0.00  0.00    +0.000 A 
ATOM     10  C   UNL     1       0.996   3.023  20.843  0.00  0.00    +0.000 A 
ATOM     11  C   UNL     1       2.280   3.324  21.259  0.00  0.00    +0.000 A 
ATOM     12  C   UNL     1       3.137   3.979  20.386  0.00  0.00    +0.000 A 
ENDBRANCH   3   7
BRANCH   4  13
ATOM     13  C   UNL     1       2.623   7.334  18.530  0.00  0.00    +0.000 A 
ATOM     14  C   UNL     1       2.008   8.388  17.821  0.00  0.00    +0.000 A 
ATOM     15  C   UNL     1       1.245   9.359  18.437  0.00  0.00    +0.000 A 
ATOM     16  C   UNL     1       0.974   9.232  19.795  0.00  0.00    +0.000 A 
ATOM     17  C   UNL     1       1.493   8.157  20.519  0.00  0.00    +0.000 A 
ATOM     18  C   UNL     1       2.326   7.236  19.898  0.00  0.00    +0.000 A 
ENDBRANCH   4  13
BRANCH   1  19
ATOM     19  O   UNL     1       6.530   4.329  15.968  0.00  0.00    +0.000 OA
BRANCH  19  20
ATOM     20  C   UNL     1       6.109   3.779  14.709  0.00  0.00    +0.000 C 
BRANCH  20  21
ATOM     21  C   UNL     1       6.867   4.478  13.592  0.00  0.00    +0.000 C 
BRANCH  21  22
ATOM     22  C   UNL     1       6.800   3.670  12.300  0.00  0.00    +0.000 C 
BRANCH  22  23
ATOM     23  C   UNL     1       5.356   3.491  11.838  0.00  0.00    +0.000 C 
BRANCH  23  24
ATOM     24  C   UNL     1       5.091   2.044  11.430  0.00  0.00    +0.000 C 
BRANCH  24  26
ATOM     25  C   UNL     1       6.242  -0.181  11.299  0.00  0.00    +0.000 C 
ATOM     26  C   UNL     1       6.391   1.317  11.099  0.00  0.00    +0.000 C 
ENDBRANCH  24  26
ENDBRANCH  23  24
ENDBRANCH  22  23
ENDBRANCH  21  22
ENDBRANCH  20  21
ENDBRANCH  19  20
ENDBRANCH   1  19
TORSDOF 9
ENDMDL
MODEL 6
REMARK VINA RESULT:      -8.2      0.628      1.153
REMARK  Name = 
REMARK  10 active torsions:
REMARK  status: ('A' for Active; 'I' for Inactive)
REMARK    1  A    between atoms: C_1  and  C_2
REMARK    2  A    between atoms: C_2  and  C_3
REMARK    3  A    between atoms: C_3  and  C_4
REMARK    4  A    between atoms: C_4  and  C_5
REMARK    5  A    between atoms: C_5  and  C_6
REMARK    6  A    between atoms: C_6  and  C_7
REMARK    7  A    between atoms: C_7  and  O_8
REMARK    8  A    between atoms: O_8  and  C_9
REMARK    9  A    between atoms: C_11  and  C_12
REMARK   10  A    between atoms: C_18  and  C_19
REMARK                            x       y       z     vdW  Elec       q    Type
REMARK                         _______ _______ _______ _____ _____    ______ ____
ROOT
ATOM      1  C   UNL     1       5.772   5.423  16.312  0.00  0.00    +0.000 A 
ATOM      2  C   UNL     1       4.912   4.679  17.069  0.00  0.00    +0.000 A 
ATOM      3  C   UNL     1       3.846   5.289  17.737  0.00  0.00    +0.000 A 
ATOM      4  C   UNL     1       3.737   6.692  17.605  0.00  0.00    +0.000 A 
ATOM      5  N   UNL     1       4.586   7.382  16.796  0.00  0.00    +0.000 NA
ATOM      6  N   UNL     1       5.592   6.751  16.147  0.00  0.00    +0.000 NA
ENDROOT
BRANCH   3   7
ATOM      7  C   UNL     1       2.883   4.460  18.497  0.00  0.00    +0.000 A 
ATOM      8  C   UNL     1       3.193   3.971  19.768  0.00  0.00    +0.000 A 
ATOM      9  C   UNL     1       2.343   3.084  20.416  0.00  0.00    +0.000 A 
ATOM     10  C   UNL     1       1.119   2.746  19.850  0.00  0.00    +0.000 A 
ATOM     11  C   UNL     1       0.735   3.292  18.640  0.00  0.00    +0.000 A 
ATOM     12  C   UNL     1       1.625   4.103  17.951  0.00  0.00    +0.000 A 
ENDBRANCH   3   7
BRANCH   4  13
ATOM     13  C   UNL     1       2.789   7.567  18.324  0.00  0.00    +0.000 A 
ATOM     14  C   UNL     1       2.477   7.347  19.683  0.00  0.00    +0.000 A 
ATOM     15  C   UNL     1       1.515   8.071  20.356  0.00  0.00    +0.000 A 
ATOM     16  C   UNL     1       0.908   9.139  19.706  0.00  0.00    +0.000 A 
ATOM     17  C   UNL     1       1.248   9.446  18.387  0.00  0.00    +0.000 A 
ATOM     18  C   UNL     1       2.158   8.654  17.700  0.00  0.00    +0.000 A 
ENDBRANCH   4  13
BRANCH   1  19
ATOM     19  O   UNL     1       6.847   4.832  15.694  0.00  0.00    +0.000 OA
BRANCH  19  20
ATOM     20  C   UNL     1       6.425   3.703  14.912  0.00  0.00    +0.000 C 
BRANCH  20  21
ATOM     21  C   UNL     1       6.123   4.174  13.498  0.00  0.00    +0.000 C 
BRANCH  21  22
ATOM     22  C   UNL     1       4.968   3.380  12.896  0.00  0.00    +0.000 C 
BRANCH  22  23
ATOM     23  C   UNL     1       4.822   3.667  11.404  0.00  0.00    +0.000 C 
BRANCH  23  24
ATOM     24  C   UNL     1       3.366   3.534  10.965  0.00  0.00    +0.000 C 
BRANCH  24  26
ATOM     25  C   UNL     1       2.356   4.845   9.078  0.00  0.00    +0.000 C 
ATOM     26  C   UNL     1       3.234   3.662   9.449  0.00  0.00    +0.000 C 
ENDBRANCH  24  26
ENDBRANCH  23  24
ENDBRANCH  22  23
ENDBRANCH  21  22
ENDBRANCH  20  21
ENDBRANCH  19  20
ENDBRANCH   1  19
TORSDOF 9
ENDMDL
MODEL 7
REMARK VINA RESULT:      -8.1      1.040      2.023
REMARK  Name = 
REMARK  10 active torsions:
REMARK  status: ('A' for Active; 'I' for Inactive)
REMARK    1  A    between atoms: C_1  and  C_2
REMARK    2  A    between atoms: C_2  and  C_3
REMARK    3  A    between atoms: C_3  and  C_4
REMARK    4  A    between atoms: C_4  and  C_5
REMARK    5  A    between atoms: C_5  and  C_6
REMARK    6  A    between atoms: C_6  and  C_7
REMARK    7  A    between atoms: C_7  and  O_8
REMARK    8  A    between atoms: O_8  and  C_9
REMARK    9  A    between atoms: C_11  and  C_12
REMARK   10  A    between atoms: C_18  and  C_19
REMARK                            x       y       z     vdW  Elec       q    Type
REMARK                         _______ _______ _______ _____ _____    ______ ____
ROOT
ATOM      1  C   UNL     1       5.423   4.743  16.379  0.00  0.00    +0.000 A 
ATOM      2  C   UNL     1       4.639   4.123  17.309  0.00  0.00    +0.000 A 
ATOM      3  C   UNL     1       3.678   4.845  18.022  0.00  0.00    +0.000 A 
ATOM      4  C   UNL     1       3.593   6.228  17.744  0.00  0.00    +0.000 A 
ATOM      5  N   UNL     1       4.359   6.791  16.770  0.00  0.00    +0.000 NA
ATOM      6  N   UNL     1       5.263   6.051  16.086  0.00  0.00    +0.000 NA
ENDROOT
BRANCH   3   7
ATOM      7  C   UNL     1       2.788   4.145  18.977  0.00  0.00    +0.000 A 
ATOM      8  C   UNL     1       1.487   3.784  18.623  0.00  0.00    +0.000 A 
ATOM      9  C   UNL     1       0.615   3.252  19.564  0.00  0.00    +0.000 A 
ATOM     10  C   UNL     1       1.057   2.978  20.853  0.00  0.00    +0.000 A 
ATOM     11  C   UNL     1       2.369   3.227  21.208  0.00  0.00    +0.000 A 
ATOM     12  C   UNL     1       3.212   3.845  20.296  0.00  0.00    +0.000 A 
ENDBRANCH   3   7
BRANCH   4  13
ATOM     13  C   UNL     1       2.762   7.216  18.463  0.00  0.00    +0.000 A 
ATOM     14  C   UNL     1       2.458   7.057  19.832  0.00  0.00    +0.000 A 
ATOM     15  C   UNL     1       1.595   7.895  20.508  0.00  0.00    +0.000 A 
ATOM     16  C   UNL     1       1.093   9.010  19.847  0.00  0.00    +0.000 A 
ATOM     17  C   UNL     1       1.436   9.253  18.516  0.00  0.00    +0.000 A 
ATOM     18  C   UNL     1       2.239   8.353  17.828  0.00  0.00    +0.000 A 
ENDBRANCH   4  13
BRANCH   1  19
ATOM     19  O   UNL     1       6.401   4.044  15.714  0.00  0.00    +0.000 OA
BRANCH  19  20
ATOM     20  C   UNL     1       7.230   4.934  14.949  0.00  0.00    +0.000 C 
BRANCH  20  21
ATOM     21  C   UNL     1       6.982   4.684  13.471  0.00  0.00    +0.000 C 
BRANCH  21  22
ATOM     22  C   UNL     1       6.173   3.407  13.263  0.00  0.00    +0.000 C 
BRANCH  22  23
ATOM     23  C   UNL     1       5.140   3.585  12.154  0.00  0.00    +0.000 C 
BRANCH  23  24
ATOM     24  C   UNL     1       5.049   2.330  11.289  0.00  0.00    +0.000 C 
BRANCH  24  26
ATOM     25  C   UNL     1       6.160   0.081  11.240  0.00  0.00    +0.000 C 
ATOM     26  C   UNL     1       6.380   1.584  11.259  0.00  0.00    +0.000 C 
ENDBRANCH  24  26
ENDBRANCH  23  24
ENDBRANCH  22  23
ENDBRANCH  21  22
ENDBRANCH  20  21
ENDBRANCH  19  20
ENDBRANCH   1  19
TORSDOF 9
ENDMDL
MODEL 8
REMARK VINA RESULT:      -8.0      1.395      4.000
REMARK  Name = 
REMARK  10 active torsions:
REMARK  status: ('A' for Active; 'I' for Inactive)
REMARK    1  A    between atoms: C_1  and  C_2
REMARK    2  A    between atoms: C_2  and  C_3
REMARK    3  A    between atoms: C_3  and  C_4
REMARK    4  A    between atoms: C_4  and  C_5
REMARK    5  A    between atoms: C_5  and  C_6
REMARK    6  A    between atoms: C_6  and  C_7
REMARK    7  A    between atoms: C_7  and  O_8
REMARK    8  A    between atoms: O_8  and  C_9
REMARK    9  A    between atoms: C_11  and  C_12
REMARK   10  A    between atoms: C_18  and  C_19
REMARK                            x       y       z     vdW  Elec       q    Type
REMARK                         _______ _______ _______ _____ _____    ______ ____
ROOT
ATOM      1  C   UNL     1       6.121   5.652  17.058  0.00  0.00    +0.000 A 
ATOM      2  C   UNL     1       5.119   6.547  17.304  0.00  0.00    +0.000 A 
ATOM      3  C   UNL     1       4.041   6.198  18.123  0.00  0.00    +0.000 A 
ATOM      4  C   UNL     1       4.043   4.884  18.643  0.00  0.00    +0.000 A 
ATOM      5  N   UNL     1       5.091   4.046  18.414  0.00  0.00    +0.000 NA
ATOM      6  N   UNL     1       6.127   4.431  17.632  0.00  0.00    +0.000 NA
ENDROOT
BRANCH   3   7
ATOM      7  C   UNL     1       2.999   7.202  18.436  0.00  0.00    +0.000 A 
ATOM      8  C   UNL     1       2.569   8.122  17.478  0.00  0.00    +0.000 A 
ATOM      9  C   UNL     1       1.693   9.145  17.816  0.00  0.00    +0.000 A 
ATOM     10  C   UNL     1       1.151   9.209  19.095  0.00  0.00    +0.000 A 
ATOM     11  C   UNL     1       1.475   8.253  20.039  0.00  0.00    +0.000 A 
ATOM     12  C   UNL     1       2.422   7.288  19.728  0.00  0.00    +0.000 A 
ENDBRANCH   3   7
BRANCH   4  13
ATOM     13  C   UNL     1       2.954   4.244  19.409  0.00  0.00    +0.000 A 
ATOM     14  C   UNL     1       3.032   4.103  20.812  0.00  0.00    +0.000 A 
ATOM     15  C   UNL     1       2.090   3.413  21.547  0.00  0.00    +0.000 A 
ATOM     16  C   UNL     1       0.956   2.935  20.898  0.00  0.00    +0.000 A 
ATOM     17  C   UNL     1       0.798   3.128  19.525  0.00  0.00    +0.000 A 
ATOM     18  C   UNL     1       1.796   3.752  18.788  0.00  0.00    +0.000 A 
ENDBRANCH   4  13
BRANCH   1  19
ATOM     19  O   UNL     1       7.155   5.978  16.214  0.00  0.00    +0.000 OA
BRANCH  19  20
ATOM     20  C   UNL     1       7.412   4.908  15.290  0.00  0.00    +0.000 C 
BRANCH  20  21
ATOM     21  C   UNL     1       6.494   5.069  14.089  0.00  0.00    +0.000 C 
BRANCH  21  22
ATOM     22  C   UNL     1       6.293   3.735  13.376  0.00  0.00    +0.000 C 
BRANCH  22  23
ATOM     23  C   UNL     1       4.961   3.704  12.633  0.00  0.00    +0.000 C 
BRANCH  23  24
ATOM     24  C   UNL     1       4.992   2.679  11.502  0.00  0.00    +0.000 C 
BRANCH  24  26
ATOM     25  C   UNL     1       6.179   0.497  11.146  0.00  0.00    +0.000 C 
ATOM     26  C   UNL     1       6.347   1.980  11.429  0.00  0.00    +0.000 C 
ENDBRANCH  24  26
ENDBRANCH  23  24
ENDBRANCH  22  23
ENDBRANCH  21  22
ENDBRANCH  20  21
ENDBRANCH  19  20
ENDBRANCH   1  19
TORSDOF 9
ENDMDL
MODEL 9
REMARK VINA RESULT:      -8.0      1.084      3.585
REMARK  Name = 
REMARK  10 active torsions:
REMARK  status: ('A' for Active; 'I' for Inactive)
REMARK    1  A    between atoms: C_1  and  C_2
REMARK    2  A    between atoms: C_2  and  C_3
REMARK    3  A    between atoms: C_3  and  C_4
REMARK    4  A    between atoms: C_4  and  C_5
REMARK    5  A    between atoms: C_5  and  C_6
REMARK    6  A    between atoms: C_6  and  C_7
REMARK    7  A    between atoms: C_7  and  O_8
REMARK    8  A    between atoms: O_8  and  C_9
REMARK    9  A    between atoms: C_11  and  C_12
REMARK   10  A    between atoms: C_18  and  C_19
REMARK                            x       y       z     vdW  Elec       q    Type
REMARK                         _______ _______ _______ _____ _____    ______ ____
ROOT
ATOM      1  C   UNL     1       5.382   5.463  15.834  0.00  0.00    +0.000 A 
ATOM      2  C   UNL     1       4.602   6.392  16.464  0.00  0.00    +0.000 A 
ATOM      3  C   UNL     1       3.782   6.021  17.534  0.00  0.00    +0.000 A 
ATOM      4  C   UNL     1       3.792   4.654  17.893  0.00  0.00    +0.000 A 
ATOM      5  N   UNL     1       4.625   3.777  17.271  0.00  0.00    +0.000 NA
ATOM      6  N   UNL     1       5.421   4.181  16.253  0.00  0.00    +0.000 NA
ENDROOT
BRANCH   3   7
ATOM      7  C   UNL     1       2.996   7.052  18.250  0.00  0.00    +0.000 A 
ATOM      8  C   UNL     1       2.684   6.913  19.604  0.00  0.00    +0.000 A 
ATOM      9  C   UNL     1       1.834   7.812  20.234  0.00  0.00    +0.000 A 
ATOM     10  C   UNL     1       1.358   8.924  19.549  0.00  0.00    +0.000 A 
ATOM     11  C   UNL     1       1.730   9.148  18.237  0.00  0.00    +0.000 A 
ATOM     12  C   UNL     1       2.502   8.200  17.582  0.00  0.00    +0.000 A 
ENDBRANCH   3   7
BRANCH   4  13
ATOM     13  C   UNL     1       2.912   4.005  18.887  0.00  0.00    +0.000 A 
ATOM     14  C   UNL     1       1.567   3.703  18.586  0.00  0.00    +0.000 A 
ATOM     15  C   UNL     1       0.685   3.202  19.521  0.00  0.00    +0.000 A 
ATOM     16  C   UNL     1       1.169   2.870  20.782  0.00  0.00    +0.000 A 
ATOM     17  C   UNL     1       2.514   3.073  21.096  0.00  0.00    +0.000 A 
ATOM     18  C   UNL     1       3.366   3.656  20.167  0.00  0.00    +0.000 A 
ENDBRANCH   4  13
BRANCH   1  19
ATOM     19  O   UNL     1       6.150   5.817  14.752  0.00  0.00    +0.000 OA
BRANCH  19  20
ATOM     20  C   UNL     1       7.028   4.743  14.380  0.00  0.00    +0.000 C 
BRANCH  20  21
ATOM     21  C   UNL     1       7.516   4.980  12.960  0.00  0.00    +0.000 C 
BRANCH  21  22
ATOM     22  C   UNL     1       6.793   4.065  11.977  0.00  0.00    +0.000 C 
BRANCH  22  23
ATOM     23  C   UNL     1       5.786   3.171  12.696  0.00  0.00    +0.000 C 
BRANCH  23  24
ATOM     24  C   UNL     1       4.409   3.270  12.046  0.00  0.00    +0.000 C 
BRANCH  24  26
ATOM     25  C   UNL     1       3.136   3.922   9.983  0.00  0.00    +0.000 C 
ATOM     26  C   UNL     1       4.512   3.770  10.607  0.00  0.00    +0.000 C 
ENDBRANCH  24  26
ENDBRANCH  23  24
ENDBRANCH  22  23
ENDBRANCH  21  22
ENDBRANCH  20  21
ENDBRANCH  19  20
ENDBRANCH   1  19
TORSDOF 9
ENDMDL
