MODEL 1
REMARK VINA RESULT:      -9.2      0.000      0.000
REMARK  Name = 
REMARK  5 active torsions:
REMARK  status: ('A' for Active; 'I' for Inactive)
REMARK    1  A    between atoms: C_8  and  S_9
REMARK    2  A    between atoms: S_9  and  C_12
REMARK    3  A    between atoms: C_12  and  C_13
REMARK    4  A    between atoms: C_13  and  C_14
REMARK    5  A    between atoms: N_16  and  C_17
REMARK                            x       y       z     vdW  Elec       q    Type
REMARK                         _______ _______ _______ _____ _____    ______ ____
ROOT
ATOM      1  S   UNL     1       7.246   4.973  17.526  0.00  0.00    +0.000 S 
ATOM      2  O   UNL     1       8.087   4.461  18.591  0.00  0.00    +0.000 OA
ATOM      3  O   UNL     1       7.566   4.702  16.136  0.00  0.00    +0.000 OA
ENDROOT
BRANCH   1  11
ATOM      4  O   UNL     1       1.935   2.991  22.282  0.00  0.00    +0.000 OA
ATOM      5  C   UNL     1       2.146   3.289  21.106  0.00  0.00    +0.000 C 
ATOM      6  C   UNL     1       1.018   3.642  20.161  0.00  0.00    +0.000 C 
ATOM      7  S   UNL     1       1.279   3.003  18.492  0.00  0.00    +0.000 S 
ATOM      8  C   UNL     1       2.956   3.560  18.268  0.00  0.00    +0.000 A 
ATOM      9  C   UNL     1       3.407   3.805  16.966  0.00  0.00    +0.000 A 
ATOM     10  C   UNL     1       4.722   4.216  16.738  0.00  0.00    +0.000 A 
ATOM     11  C   UNL     1       5.599   4.348  17.818  0.00  0.00    +0.000 A 
ATOM     12  C   UNL     1       5.169   4.084  19.124  0.00  0.00    +0.000 A 
ATOM     13  C   UNL     1       3.840   3.703  19.350  0.00  0.00    +0.000 A 
ATOM     14  N   UNL     1       3.437   3.448  20.672  0.00  0.00    +0.000 N 
ATOM     15  H   UNL     1       4.135   3.363  21.400  0.00  0.00    +0.000 HD
ENDBRANCH   1  11
BRANCH   1  16
ATOM     16  C   UNL     1       7.084   6.726  17.738  0.00  0.00    +0.000 C 
BRANCH  16  17
ATOM     17  C   UNL     1       8.285   7.329  18.456  0.00  0.00    +0.000 C 
BRANCH  17  18
ATOM     18  C   UNL     1       8.234   8.840  18.327  0.00  0.00    +0.000 C 
ATOM     19  O   UNL     1       7.477   9.398  17.538  0.00  0.00    +0.000 OA
ATOM     20  N   UNL     1       9.109   9.515  19.141  0.00  0.00    +0.000 N 
ATOM     21  H   UNL     1       9.722   8.962  19.728  0.00  0.00    +0.000 HD
BRANCH  20  22
ATOM     22  C   UNL     1       9.362  10.958  19.127  0.00  0.00    +0.000 C 
ATOM     23  C   UNL     1      10.077  11.445  20.396  0.00  0.00    +0.000 C 
ATOM     24  C   UNL     1      11.567  11.712  20.239  0.00  0.00    +0.000 C 
ATOM     25  C   UNL     1      11.827  12.624  19.054  0.00  0.00    +0.000 C 
ATOM     26  C   UNL     1      11.375  11.955  17.767  0.00  0.00    +0.000 C 
ATOM     27  C   UNL     1       9.907  11.515  17.796  0.00  0.00    +0.000 C 
ENDBRANCH  20  22
ENDBRANCH  17  18
ENDBRANCH  16  17
ENDBRANCH   1  16
TORSDOF 5
ENDMDL
MODEL 2
REMARK VINA RESULT:      -8.3      3.407      4.924
REMARK  Name = 
REMARK  5 active torsions:
REMARK  status: ('A' for Active; 'I' for Inactive)
REMARK    1  A    between atoms: C_8  and  S_9
REMARK    2  A    between atoms: S_9  and  C_12
REMARK    3  A    between atoms: C_12  and  C_13
REMARK    4  A    between atoms: C_13  and  C_14
REMARK    5  A    between atoms: N_16  and  C_17
REMARK                            x       y       z     vdW  Elec       q    Type
REMARK                         _______ _______ _______ _____ _____    ______ ____
ROOT
ATOM      1  S   UNL     1       7.267   4.779  17.394  0.00  0.00    +0.000 S 
ATOM      2  O   UNL     1       8.226   3.987  18.141  0.00  0.00    +0.000 OA
ATOM      3  O   UNL     1       7.376   4.906  15.953  0.00  0.00    +0.000 OA
ENDROOT
BRANCH   1  11
ATOM      4  O   UNL     1       2.046   2.964  22.314  0.00  0.00    +0.000 OA
ATOM      5  C   UNL     1       2.245   3.168  21.116  0.00  0.00    +0.000 C 
ATOM      6  C   UNL     1       1.104   3.383  20.145  0.00  0.00    +0.000 C 
ATOM      7  S   UNL     1       1.400   2.615  18.539  0.00  0.00    +0.000 S 
ATOM      8  C   UNL     1       3.048   3.230  18.264  0.00  0.00    +0.000 A 
ATOM      9  C   UNL     1       3.490   3.383  16.945  0.00  0.00    +0.000 A 
ATOM     10  C   UNL     1       4.784   3.835  16.680  0.00  0.00    +0.000 A 
ATOM     11  C   UNL     1       5.652   4.103  17.743  0.00  0.00    +0.000 A 
ATOM     12  C   UNL     1       5.231   3.933  19.068  0.00  0.00    +0.000 A 
ATOM     13  C   UNL     1       3.922   3.510  19.328  0.00  0.00    +0.000 A 
ATOM     14  N   UNL     1       3.528   3.351  20.667  0.00  0.00    +0.000 N 
ATOM     15  H   UNL     1       4.228   3.363  21.399  0.00  0.00    +0.000 HD
ENDBRANCH   1  11
BRANCH   1  16
ATOM     16  C   UNL     1       7.215   6.403  18.104  0.00  0.00    +0.000 C 
BRANCH  16  17
ATOM     17  C   UNL     1       6.754   7.452  17.099  0.00  0.00    +0.000 C 
BRANCH  17  18
ATOM     18  C   UNL     1       5.271   7.273  16.839  0.00  0.00    +0.000 C 
ATOM     19  O   UNL     1       4.833   7.045  15.714  0.00  0.00    +0.000 OA
ATOM     20  N   UNL     1       4.473   7.409  17.947  0.00  0.00    +0.000 N 
ATOM     21  H   UNL     1       4.926   7.638  18.823  0.00  0.00    +0.000 HD
BRANCH  20  22
ATOM     22  C   UNL     1       3.008   7.417  17.959  0.00  0.00    +0.000 C 
ATOM     23  C   UNL     1       2.424   6.766  19.222  0.00  0.00    +0.000 C 
ATOM     24  C   UNL     1       1.917   7.738  20.278  0.00  0.00    +0.000 C 
ATOM     25  C   UNL     1       0.963   8.747  19.665  0.00  0.00    +0.000 C 
ATOM     26  C   UNL     1       1.684   9.585  18.623  0.00  0.00    +0.000 C 
ATOM     27  C   UNL     1       2.356   8.747  17.530  0.00  0.00    +0.000 C 
ENDBRANCH  20  22
ENDBRANCH  17  18
ENDBRANCH  16  17
ENDBRANCH   1  16
TORSDOF 5
ENDMDL
MODEL 3
REMARK VINA RESULT:      -8.3      3.979      6.150
REMARK  Name = 
REMARK  5 active torsions:
REMARK  status: ('A' for Active; 'I' for Inactive)
REMARK    1  A    between atoms: C_8  and  S_9
REMARK    2  A    between atoms: S_9  and  C_12
REMARK    3  A    between atoms: C_12  and  C_13
REMARK    4  A    between atoms: C_13  and  C_14
REMARK    5  A    between atoms: N_16  and  C_17
REMARK                            x       y       z     vdW  Elec       q    Type
REMARK                         _______ _______ _______ _____ _____    ______ ____
ROOT
ATOM      1  S   UNL     1       2.084   2.796  18.146  0.00  0.00    +0.000 S 
ATOM      2  O   UNL     1       0.992   2.007  18.685  0.00  0.00    +0.000 OA
ATOM      3  O   UNL     1       2.205   3.013  16.717  0.00  0.00    +0.000 OA
ENDROOT
BRANCH   1  11
ATOM      4  O   UNL     1       2.279  10.169  17.547  0.00  0.00    +0.000 OA
ATOM      5  C   UNL     1       1.941   9.247  18.290  0.00  0.00    +0.000 C 
ATOM      6  C   UNL     1       1.021   9.475  19.471  0.00  0.00    +0.000 C 
ATOM      7  S   UNL     1       1.477   8.488  20.912  0.00  0.00    +0.000 S 
ATOM      8  C   UNL     1       1.651   6.915  20.096  0.00  0.00    +0.000 A 
ATOM      9  C   UNL     1       1.443   5.750  20.844  0.00  0.00    +0.000 A 
ATOM     10  C   UNL     1       1.595   4.494  20.254  0.00  0.00    +0.000 A 
ATOM     11  C   UNL     1       1.992   4.404  18.917  0.00  0.00    +0.000 A 
ATOM     12  C   UNL     1       2.226   5.560  18.162  0.00  0.00    +0.000 A 
ATOM     13  C   UNL     1       2.041   6.818  18.749  0.00  0.00    +0.000 A 
ATOM     14  N   UNL     1       2.280   7.959  17.966  0.00  0.00    +0.000 N 
ATOM     15  H   UNL     1       2.750   7.864  17.074  0.00  0.00    +0.000 HD
ENDBRANCH   1  11
BRANCH   1  16
ATOM     16  C   UNL     1       3.609   2.118  18.748  0.00  0.00    +0.000 C 
BRANCH  16  17
ATOM     17  C   UNL     1       4.188   2.939  19.893  0.00  0.00    +0.000 C 
BRANCH  17  18
ATOM     18  C   UNL     1       5.098   4.012  19.325  0.00  0.00    +0.000 C 
ATOM     19  O   UNL     1       5.223   5.108  19.865  0.00  0.00    +0.000 OA
ATOM     20  N   UNL     1       5.741   3.663  18.165  0.00  0.00    +0.000 N 
ATOM     21  H   UNL     1       5.541   2.749  17.776  0.00  0.00    +0.000 HD
BRANCH  20  22
ATOM     22  C   UNL     1       6.569   4.546  17.338  0.00  0.00    +0.000 C 
ATOM     23  C   UNL     1       5.736   5.558  16.537  0.00  0.00    +0.000 C 
ATOM     24  C   UNL     1       5.714   6.971  17.101  0.00  0.00    +0.000 C 
ATOM     25  C   UNL     1       7.125   7.470  17.356  0.00  0.00    +0.000 C 
ATOM     26  C   UNL     1       7.808   6.603  18.400  0.00  0.00    +0.000 C 
ATOM     27  C   UNL     1       7.820   5.114  18.038  0.00  0.00    +0.000 C 
ENDBRANCH  20  22
ENDBRANCH  17  18
ENDBRANCH  16  17
ENDBRANCH   1  16
TORSDOF 5
ENDMDL
MODEL 4
REMARK VINA RESULT:      -8.2      1.499      1.782
REMARK  Name = 
REMARK  5 active torsions:
REMARK  status: ('A' for Active; 'I' for Inactive)
REMARK    1  A    between atoms: C_8  and  S_9
REMARK    2  A    between atoms: S_9  and  C_12
REMARK    3  A    between atoms: C_12  and  C_13
REMARK    4  A    between atoms: C_13  and  C_14
REMARK    5  A    between atoms: N_16  and  C_17
REMARK                            x       y       z     vdW  Elec       q    Type
REMARK                         _______ _______ _______ _____ _____    ______ ____
ROOT
ATOM      1  S   UNL     1       6.949   4.873  17.051  0.00  0.00    +0.000 S 
ATOM      2  O   UNL     1       7.972   4.326  17.922  0.00  0.00    +0.000 OA
ATOM      3  O   UNL     1       6.689   4.281  15.752  0.00  0.00    +0.000 OA
ENDROOT
BRANCH   1  11
ATOM      4  O   UNL     1       0.317   1.811  18.236  0.00  0.00    +0.000 OA
ATOM      5  C   UNL     1       1.167   2.550  18.734  0.00  0.00    +0.000 C 
ATOM      6  C   UNL     1       1.145   2.906  20.205  0.00  0.00    +0.000 C 
ATOM      7  S   UNL     1       1.625   4.619  20.516  0.00  0.00    +0.000 S 
ATOM      8  C   UNL     1       3.102   4.652  19.521  0.00  0.00    +0.000 A 
ATOM      9  C   UNL     1       4.118   5.550  19.869  0.00  0.00    +0.000 A 
ATOM     10  C   UNL     1       5.282   5.632  19.103  0.00  0.00    +0.000 A 
ATOM     11  C   UNL     1       5.414   4.834  17.963  0.00  0.00    +0.000 A 
ATOM     12  C   UNL     1       4.397   3.947  17.590  0.00  0.00    +0.000 A 
ATOM     13  C   UNL     1       3.245   3.846  18.380  0.00  0.00    +0.000 A 
ATOM     14  N   UNL     1       2.243   2.946  17.982  0.00  0.00    +0.000 N 
ATOM     15  H   UNL     1       2.280   2.531  17.059  0.00  0.00    +0.000 HD
ENDBRANCH   1  11
BRANCH   1  16
ATOM     16  C   UNL     1       7.273   6.602  16.829  0.00  0.00    +0.000 C 
BRANCH  16  17
ATOM     17  C   UNL     1       8.001   7.206  18.024  0.00  0.00    +0.000 C 
BRANCH  17  18
ATOM     18  C   UNL     1       7.999   8.718  17.896  0.00  0.00    +0.000 C 
ATOM     19  O   UNL     1       7.263   9.300  17.105  0.00  0.00    +0.000 OA
ATOM     20  N   UNL     1       8.894   9.363  18.712  0.00  0.00    +0.000 N 
ATOM     21  H   UNL     1       9.487   8.791  19.301  0.00  0.00    +0.000 HD
BRANCH  20  22
ATOM     22  C   UNL     1       9.194  10.798  18.698  0.00  0.00    +0.000 C 
ATOM     23  C   UNL     1       9.144  11.424  20.100  0.00  0.00    +0.000 C 
ATOM     24  C   UNL     1      10.499  11.680  20.745  0.00  0.00    +0.000 C 
ATOM     25  C   UNL     1      11.403  12.457  19.805  0.00  0.00    +0.000 C 
ATOM     26  C   UNL     1      11.673  11.649  18.548  0.00  0.00    +0.000 C 
ATOM     27  C   UNL     1      10.396  11.208  17.824  0.00  0.00    +0.000 C 
ENDBRANCH  20  22
ENDBRANCH  17  18
ENDBRANCH  16  17
ENDBRANCH   1  16
TORSDOF 5
ENDMDL
MODEL 5
REMARK VINA RESULT:      -8.1      1.027      1.150
REMARK  Name = 
REMARK  5 active torsions:
REMARK  status: ('A' for Active; 'I' for Inactive)
REMARK    1  A    between atoms: C_8  and  S_9
REMARK    2  A    between atoms: S_9  and  C_12
REMARK    3  A    between atoms: C_12  and  C_13
REMARK    4  A    between atoms: C_13  and  C_14
REMARK    5  A    between atoms: N_16  and  C_17
REMARK                            x       y       z     vdW  Elec       q    Type
REMARK                         _______ _______ _______ _____ _____    ______ ____
ROOT
ATOM      1  S   UNL     1       6.996   5.316  18.147  0.00  0.00    +0.000 S 
ATOM      2  O   UNL     1       7.602   5.254  19.464  0.00  0.00    +0.000 OA
ATOM      3  O   UNL     1       7.691   4.790  16.987  0.00  0.00    +0.000 OA
ENDROOT
BRANCH   1  11
ATOM      4  O   UNL     1       1.550   2.494  22.286  0.00  0.00    +0.000 OA
ATOM      5  C   UNL     1       1.838   2.849  21.144  0.00  0.00    +0.000 C 
ATOM      6  C   UNL     1       0.776   3.070  20.088  0.00  0.00    +0.000 C 
ATOM      7  S   UNL     1       1.295   2.519  18.449  0.00  0.00    +0.000 S 
ATOM      8  C   UNL     1       2.892   3.307  18.411  0.00  0.00    +0.000 A 
ATOM      9  C   UNL     1       3.436   3.648  17.168  0.00  0.00    +0.000 A 
ATOM     10  C   UNL     1       4.697   4.241  17.086  0.00  0.00    +0.000 A 
ATOM     11  C   UNL     1       5.431   4.463  18.255  0.00  0.00    +0.000 A 
ATOM     12  C   UNL     1       4.909   4.107  19.504  0.00  0.00    +0.000 A 
ATOM     13  C   UNL     1       3.630   3.541  19.583  0.00  0.00    +0.000 A 
ATOM     14  N   UNL     1       3.132   3.197  20.851  0.00  0.00    +0.000 N 
ATOM     15  H   UNL     1       3.756   3.188  21.648  0.00  0.00    +0.000 HD
ENDBRANCH   1  11
BRANCH   1  16
ATOM     16  C   UNL     1       6.545   7.000  17.821  0.00  0.00    +0.000 C 
BRANCH  16  17
ATOM     17  C   UNL     1       7.654   7.761  17.105  0.00  0.00    +0.000 C 
BRANCH  17  18
ATOM     18  C   UNL     1       8.351   8.675  18.097  0.00  0.00    +0.000 C 
ATOM     19  O   UNL     1       8.742   8.268  19.188  0.00  0.00    +0.000 OA
ATOM     20  N   UNL     1       8.483   9.976  17.683  0.00  0.00    +0.000 N 
ATOM     21  H   UNL     1       8.091  10.222  16.781  0.00  0.00    +0.000 HD
BRANCH  20  22
ATOM     22  C   UNL     1       8.993  11.089  18.488  0.00  0.00    +0.000 C 
ATOM     23  C   UNL     1      10.453  10.885  18.921  0.00  0.00    +0.000 C 
ATOM     24  C   UNL     1      11.482  11.674  18.125  0.00  0.00    +0.000 C 
ATOM     25  C   UNL     1      11.106  13.144  18.068  0.00  0.00    +0.000 C 
ATOM     26  C   UNL     1       9.781  13.319  17.346  0.00  0.00    +0.000 C 
ATOM     27  C   UNL     1       8.643  12.495  17.958  0.00  0.00    +0.000 C 
ENDBRANCH  20  22
ENDBRANCH  17  18
ENDBRANCH  16  17
ENDBRANCH   1  16
TORSDOF 5
ENDMDL
MODEL 6
REMARK VINA RESULT:      -7.9      5.117      7.107
REMARK  Name = 
REMARK  5 active torsions:
REMARK  status: ('A' for Active; 'I' for Inactive)
REMARK    1  A    between atoms: C_8  and  S_9
REMARK    2  A    between atoms: S_9  and  C_12
REMARK    3  A    between atoms: C_12  and  C_13
REMARK    4  A    between atoms: C_13  and  C_14
REMARK    5  A    between atoms: N_16  and  C_17
REMARK                            x       y       z     vdW  Elec       q    Type
REMARK                         _______ _______ _______ _____ _____    ______ ____
ROOT
ATOM      1  S   UNL     1       3.385   6.038  18.473  0.00  0.00    +0.000 S 
ATOM      2  O   UNL     1       4.370   5.939  19.533  0.00  0.00    +0.000 OA
ATOM      3  O   UNL     1       2.517   4.918  18.162  0.00  0.00    +0.000 OA
ENDROOT
BRANCH   1  11
ATOM      4  O   UNL     1      -0.186  10.084  23.537  0.00  0.00    +0.000 OA
ATOM      5  C   UNL     1       0.221  10.091  22.375  0.00  0.00    +0.000 C 
ATOM      6  C   UNL     1       0.314  11.373  21.574  0.00  0.00    +0.000 C 
ATOM      7  S   UNL     1      -0.142  11.148  19.842  0.00  0.00    +0.000 S 
ATOM      8  C   UNL     1       0.850   9.707  19.504  0.00  0.00    +0.000 A 
ATOM      9  C   UNL     1       1.277   9.486  18.190  0.00  0.00    +0.000 A 
ATOM     10  C   UNL     1       2.032   8.356  17.872  0.00  0.00    +0.000 A 
ATOM     11  C   UNL     1       2.332   7.425  18.869  0.00  0.00    +0.000 A 
ATOM     12  C   UNL     1       1.893   7.621  20.185  0.00  0.00    +0.000 A 
ATOM     13  C   UNL     1       1.163   8.772  20.505  0.00  0.00    +0.000 A 
ATOM     14  N   UNL     1       0.739   8.943  21.833  0.00  0.00    +0.000 N 
ATOM     15  H   UNL     1       0.801   8.168  22.482  0.00  0.00    +0.000 HD
ENDBRANCH   1  11
BRANCH   1  16
ATOM     16  C   UNL     1       4.215   6.540  16.988  0.00  0.00    +0.000 C 
BRANCH  16  17
ATOM     17  C   UNL     1       5.643   6.999  17.257  0.00  0.00    +0.000 C 
BRANCH  17  18
ATOM     18  C   UNL     1       6.609   5.992  16.661  0.00  0.00    +0.000 C 
ATOM     19  O   UNL     1       7.653   5.682  17.228  0.00  0.00    +0.000 OA
ATOM     20  N   UNL     1       6.230   5.485  15.444  0.00  0.00    +0.000 N 
ATOM     21  H   UNL     1       5.369   5.834  15.039  0.00  0.00    +0.000 HD
BRANCH  20  22
ATOM     22  C   UNL     1       7.031   4.604  14.590  0.00  0.00    +0.000 C 
ATOM     23  C   UNL     1       6.218   3.428  14.027  0.00  0.00    +0.000 C 
ATOM     24  C   UNL     1       5.785   3.575  12.575  0.00  0.00    +0.000 C 
ATOM     25  C   UNL     1       6.971   3.921  11.694  0.00  0.00    +0.000 C 
ATOM     26  C   UNL     1       7.556   5.262  12.103  0.00  0.00    +0.000 C 
ATOM     27  C   UNL     1       7.949   5.326  13.582  0.00  0.00    +0.000 C 
ENDBRANCH  20  22
ENDBRANCH  17  18
ENDBRANCH  16  17
ENDBRANCH   1  16
TORSDOF 5
ENDMDL
MODEL 7
REMARK VINA RESULT:      -7.8      1.765      2.034
REMARK  Name = 
REMARK  5 active torsions:
REMARK  status: ('A' for Active; 'I' for Inactive)
REMARK    1  A    between atoms: C_8  and  S_9
REMARK    2  A    between atoms: S_9  and  C_12
REMARK    3  A    between atoms: C_12  and  C_13
REMARK    4  A    between atoms: C_13  and  C_14
REMARK    5  A    between atoms: N_16  and  C_17
REMARK                            x       y       z     vdW  Elec       q    Type
REMARK                         _______ _______ _______ _____ _____    ______ ____
ROOT
ATOM      1  S   UNL     1       6.845   6.043  16.931  0.00  0.00    +0.000 S 
ATOM      2  O   UNL     1       7.716   4.958  16.522  0.00  0.00    +0.000 OA
ATOM      3  O   UNL     1       6.105   6.810  15.946  0.00  0.00    +0.000 OA
ENDROOT
BRANCH   1  11
ATOM      4  O   UNL     1       0.858   6.914  21.193  0.00  0.00    +0.000 OA
ATOM      5  C   UNL     1       1.571   6.068  20.654  0.00  0.00    +0.000 C 
ATOM      6  C   UNL     1       1.125   4.629  20.507  0.00  0.00    +0.000 C 
ATOM      7  S   UNL     1       2.472   3.451  20.750  0.00  0.00    +0.000 S 
ATOM      8  C   UNL     1       3.673   4.218  19.681  0.00  0.00    +0.000 A 
ATOM      9  C   UNL     1       4.656   3.410  19.097  0.00  0.00    +0.000 A 
ATOM     10  C   UNL     1       5.635   3.970  18.276  0.00  0.00    +0.000 A 
ATOM     11  C   UNL     1       5.651   5.352  18.065  0.00  0.00    +0.000 A 
ATOM     12  C   UNL     1       4.688   6.176  18.661  0.00  0.00    +0.000 A 
ATOM     13  C   UNL     1       3.689   5.605  19.459  0.00  0.00    +0.000 A 
ATOM     14  N   UNL     1       2.735   6.456  20.040  0.00  0.00    +0.000 N 
ATOM     15  H   UNL     1       2.885   7.457  20.030  0.00  0.00    +0.000 HD
ENDBRANCH   1  11
BRANCH   1  16
ATOM     16  C   UNL     1       7.786   7.165  17.931  0.00  0.00    +0.000 C 
BRANCH  16  17
ATOM     17  C   UNL     1       7.442   8.620  17.637  0.00  0.00    +0.000 C 
BRANCH  17  18
ATOM     18  C   UNL     1       8.505   9.516  18.246  0.00  0.00    +0.000 C 
ATOM     19  O   UNL     1       9.226   9.134  19.164  0.00  0.00    +0.000 OA
ATOM     20  N   UNL     1       8.573  10.775  17.705  0.00  0.00    +0.000 N 
ATOM     21  H   UNL     1       7.907  11.008  16.978  0.00  0.00    +0.000 HD
BRANCH  20  22
ATOM     22  C   UNL     1       9.410  11.877  18.188  0.00  0.00    +0.000 C 
ATOM     23  C   UNL     1       9.125  12.237  19.654  0.00  0.00    +0.000 C 
ATOM     24  C   UNL     1      10.142  11.717  20.659  0.00  0.00    +0.000 C 
ATOM     25  C   UNL     1      11.551  12.097  20.243  0.00  0.00    +0.000 C 
ATOM     26  C   UNL     1      11.898  11.453  18.911  0.00  0.00    +0.000 C 
ATOM     27  C   UNL     1      10.899  11.787  17.798  0.00  0.00    +0.000 C 
ENDBRANCH  20  22
ENDBRANCH  17  18
ENDBRANCH  16  17
ENDBRANCH   1  16
TORSDOF 5
ENDMDL
MODEL 8
REMARK VINA RESULT:      -7.8      4.180      7.600
REMARK  Name = 
REMARK  5 active torsions:
REMARK  status: ('A' for Active; 'I' for Inactive)
REMARK    1  A    between atoms: C_8  and  S_9
REMARK    2  A    between atoms: S_9  and  C_12
REMARK    3  A    between atoms: C_12  and  C_13
REMARK    4  A    between atoms: C_13  and  C_14
REMARK    5  A    between atoms: N_16  and  C_17
REMARK                            x       y       z     vdW  Elec       q    Type
REMARK                         _______ _______ _______ _____ _____    ______ ____
ROOT
ATOM      1  S   UNL     1       2.694   3.040  20.595  0.00  0.00    +0.000 S 
ATOM      2  O   UNL     1       1.490   2.294  20.278  0.00  0.00    +0.000 OA
ATOM      3  O   UNL     1       3.738   2.448  21.409  0.00  0.00    +0.000 OA
ENDROOT
BRANCH   1  11
ATOM      4  O   UNL     1       7.781   6.927  16.885  0.00  0.00    +0.000 OA
ATOM      5  C   UNL     1       6.997   5.983  16.789  0.00  0.00    +0.000 C 
ATOM      6  C   UNL     1       7.092   4.983  15.657  0.00  0.00    +0.000 C 
ATOM      7  S   UNL     1       5.475   4.453  15.055  0.00  0.00    +0.000 S 
ATOM      8  C   UNL     1       4.728   4.083  16.629  0.00  0.00    +0.000 A 
ATOM      9  C   UNL     1       3.706   3.127  16.673  0.00  0.00    +0.000 A 
ATOM     10  C   UNL     1       3.072   2.825  17.879  0.00  0.00    +0.000 A 
ATOM     11  C   UNL     1       3.439   3.508  19.041  0.00  0.00    +0.000 A 
ATOM     12  C   UNL     1       4.444   4.482  19.009  0.00  0.00    +0.000 A 
ATOM     13  C   UNL     1       5.100   4.760  17.803  0.00  0.00    +0.000 A 
ATOM     14  N   UNL     1       6.106   5.740  17.803  0.00  0.00    +0.000 N 
ATOM     15  H   UNL     1       6.212   6.347  18.605  0.00  0.00    +0.000 HD
ENDBRANCH   1  11
BRANCH   1  16
ATOM     16  C   UNL     1       2.215   4.584  21.323  0.00  0.00    +0.000 C 
BRANCH  16  17
ATOM     17  C   UNL     1       1.252   5.362  20.435  0.00  0.00    +0.000 C 
BRANCH  17  18
ATOM     18  C   UNL     1       1.607   6.836  20.488  0.00  0.00    +0.000 C 
ATOM     19  O   UNL     1       2.527   7.306  19.824  0.00  0.00    +0.000 OA
ATOM     20  N   UNL     1       0.837   7.581  21.346  0.00  0.00    +0.000 N 
ATOM     21  H   UNL     1       0.128   7.093  21.880  0.00  0.00    +0.000 HD
BRANCH  20  22
ATOM     22  C   UNL     1       1.045   8.990  21.690  0.00  0.00    +0.000 C 
ATOM     23  C   UNL     1       0.761   9.934  20.511  0.00  0.00    +0.000 C 
ATOM     24  C   UNL     1      -0.576  10.659  20.568  0.00  0.00    +0.000 C 
ATOM     25  C   UNL     1      -0.754  11.351  21.907  0.00  0.00    +0.000 C 
ATOM     26  C   UNL     1      -0.776  10.327  23.029  0.00  0.00    +0.000 C 
ATOM     27  C   UNL     1       0.464   9.426  23.050  0.00  0.00    +0.000 C 
ENDBRANCH  20  22
ENDBRANCH  17  18
ENDBRANCH  16  17
ENDBRANCH   1  16
TORSDOF 5
ENDMDL
MODEL 9
REMARK VINA RESULT:      -7.7      0.841      1.464
REMARK  Name = 
REMARK  5 active torsions:
REMARK  status: ('A' for Active; 'I' for Inactive)
REMARK    1  A    between atoms: C_8  and  S_9
REMARK    2  A    between atoms: S_9  and  C_12
REMARK    3  A    between atoms: C_12  and  C_13
REMARK    4  A    between atoms: C_13  and  C_14
REMARK    5  A    between atoms: N_16  and  C_17
REMARK                            x       y       z     vdW  Elec       q    Type
REMARK                         _______ _______ _______ _____ _____    ______ ____
ROOT
ATOM      1  S   UNL     1       7.207   5.007  17.188  0.00  0.00    +0.000 S 
ATOM      2  O   UNL     1       8.113   4.498  18.201  0.00  0.00    +0.000 OA
ATOM      3  O   UNL     1       7.438   4.732  15.783  0.00  0.00    +0.000 OA
ENDROOT
BRANCH   1  11
ATOM      4  O   UNL     1       2.205   3.044  22.276  0.00  0.00    +0.000 OA
ATOM      5  C   UNL     1       2.342   3.338  21.088  0.00  0.00    +0.000 C 
ATOM      6  C   UNL     1       1.156   3.690  20.215  0.00  0.00    +0.000 C 
ATOM      7  S   UNL     1       1.311   3.047  18.535  0.00  0.00    +0.000 S 
ATOM      8  C   UNL     1       2.971   3.601  18.204  0.00  0.00    +0.000 A 
ATOM      9  C   UNL     1       3.339   3.843  16.875  0.00  0.00    +0.000 A 
ATOM     10  C   UNL     1       4.637   4.252  16.564  0.00  0.00    +0.000 A 
ATOM     11  C   UNL     1       5.581   4.385  17.586  0.00  0.00    +0.000 A 
ATOM     12  C   UNL     1       5.234   4.125  18.917  0.00  0.00    +0.000 A 
ATOM     13  C   UNL     1       3.922   3.746  19.228  0.00  0.00    +0.000 A 
ATOM     14  N   UNL     1       3.603   3.495  20.572  0.00  0.00    +0.000 N 
ATOM     15  H   UNL     1       4.345   3.410  21.255  0.00  0.00    +0.000 HD
ENDBRANCH   1  11
BRANCH   1  16
ATOM     16  C   UNL     1       7.060   6.761  17.405  0.00  0.00    +0.000 C 
BRANCH  16  17
ATOM     17  C   UNL     1       7.905   7.267  18.567  0.00  0.00    +0.000 C 
BRANCH  17  18
ATOM     18  C   UNL     1       8.366   8.682  18.269  0.00  0.00    +0.000 C 
ATOM     19  O   UNL     1       8.074   9.251  17.220  0.00  0.00    +0.000 OA
ATOM     20  N   UNL     1       9.143   9.250  19.246  0.00  0.00    +0.000 N 
ATOM     21  H   UNL     1       9.361   8.684  20.057  0.00  0.00    +0.000 HD
BRANCH  20  22
ATOM     22  C   UNL     1       9.826  10.544  19.161  0.00  0.00    +0.000 C 
ATOM     23  C   UNL     1       9.675  11.202  17.782  0.00  0.00    +0.000 C 
ATOM     24  C   UNL     1       8.653  12.328  17.709  0.00  0.00    +0.000 C 
ATOM     25  C   UNL     1       8.900  13.350  18.804  0.00  0.00    +0.000 C 
ATOM     26  C   UNL     1       8.731  12.707  20.170  0.00  0.00    +0.000 C 
ATOM     27  C   UNL     1       9.619  11.475  20.373  0.00  0.00    +0.000 C 
ENDBRANCH  20  22
ENDBRANCH  17  18
ENDBRANCH  16  17
ENDBRANCH   1  16
TORSDOF 5
ENDMDL
