MODEL 1
REMARK VINA RESULT:      -7.7      0.000      0.000
REMARK  Name = 
REMARK  3 active torsions:
REMARK  status: ('A' for Active; 'I' for Inactive)
REMARK    1  A    between atoms: C_2  and  C_3
REMARK    2  A    between atoms: C_3  and  C_12
REMARK    3  A    between atoms: C_4  and  C_5
REMARK                            x       y       z     vdW  Elec       q    Type
REMARK                         _______ _______ _______ _____ _____    ______ ____
ROOT
ATOM      1  C   UNL     1       5.057   4.096  17.507  0.00  0.00    +0.000 C 
ATOM      2  C   UNL     1       3.864   3.461  17.610  0.00  0.00    +0.000 C 
ENDROOT
BRANCH   1   3
ATOM      3  C   UNL     1       5.655   4.241  16.216  0.00  0.00    +0.000 A 
ATOM      4  N   UNL     1       5.305   3.556  15.140  0.00  0.00    +0.000 NA
ATOM      5  C   UNL     1       6.046   3.931  14.037  0.00  0.00    +0.000 A 
ATOM      6  C   UNL     1       5.916   3.402  12.738  0.00  0.00    +0.000 A 
ATOM      7  C   UNL     1       6.743   3.869  11.714  0.00  0.00    +0.000 A 
ATOM      8  C   UNL     1       7.694   4.851  11.971  0.00  0.00    +0.000 A 
ATOM      9  C   UNL     1       7.837   5.396  13.251  0.00  0.00    +0.000 A 
ATOM     10  C   UNL     1       6.997   4.921  14.272  0.00  0.00    +0.000 A 
ATOM     11  S   UNL     1       6.922   5.384  15.925  0.00  0.00    +0.000 S 
ENDBRANCH   1   3
BRANCH   2  12
ATOM     12  C   UNL     1       3.093   3.320  18.858  0.00  0.00    +0.000 A 
ATOM     13  C   UNL     1       3.620   2.592  19.934  0.00  0.00    +0.000 A 
ATOM     14  C   UNL     1       2.864   2.405  21.094  0.00  0.00    +0.000 A 
ATOM     15  C   UNL     1       1.591   2.954  21.181  0.00  0.00    +0.000 A 
ATOM     16  F   UNL     1       0.863   2.764  22.289  0.00  0.00    +0.000 F 
ATOM     17  C   UNL     1       1.064   3.698  20.132  0.00  0.00    +0.000 A 
ATOM     18  C   UNL     1       1.814   3.881  18.966  0.00  0.00    +0.000 A 
ENDBRANCH   2  12
BRANCH   1  20
ATOM     19  N   UNL     1       6.148   5.211  19.810  0.00  0.00    +0.000 NA
ATOM     20  C   UNL     1       5.653   4.706  18.766  0.00  0.00    +0.000 C 
ENDBRANCH   1  20
TORSDOF 3
ENDMDL
MODEL 2
REMARK VINA RESULT:      -7.5      0.095      1.086
REMARK  Name = 
REMARK  3 active torsions:
REMARK  status: ('A' for Active; 'I' for Inactive)
REMARK    1  A    between atoms: C_2  and  C_3
REMARK    2  A    between atoms: C_3  and  C_12
REMARK    3  A    between atoms: C_4  and  C_5
REMARK                            x       y       z     vdW  Elec       q    Type
REMARK                         _______ _______ _______ _____ _____    ______ ____
ROOT
ATOM      1  C   UNL     1       5.044   4.030  17.462  0.00  0.00    +0.000 C 
ATOM      2  C   UNL     1       3.869   3.359  17.540  0.00  0.00    +0.000 C 
ENDROOT
BRANCH   1   3
ATOM      3  C   UNL     1       5.658   4.203  16.182  0.00  0.00    +0.000 A 
ATOM      4  N   UNL     1       5.352   3.512  15.097  0.00  0.00    +0.000 NA
ATOM      5  C   UNL     1       6.098   3.920  14.008  0.00  0.00    +0.000 A 
ATOM      6  C   UNL     1       6.007   3.394  12.705  0.00  0.00    +0.000 A 
ATOM      7  C   UNL     1       6.836   3.895  11.697  0.00  0.00    +0.000 A 
ATOM      8  C   UNL     1       7.747   4.908  11.976  0.00  0.00    +0.000 A 
ATOM      9  C   UNL     1       7.849   5.450  13.261  0.00  0.00    +0.000 A 
ATOM     10  C   UNL     1       7.009   4.940  14.265  0.00  0.00    +0.000 A 
ATOM     11  S   UNL     1       6.890   5.392  15.919  0.00  0.00    +0.000 S 
ENDBRANCH   1   3
BRANCH   2  12
ATOM     12  C   UNL     1       3.083   3.186  18.774  0.00  0.00    +0.000 A 
ATOM     13  C   UNL     1       1.803   3.748  18.881  0.00  0.00    +0.000 A 
ATOM     14  C   UNL     1       1.083   3.637  20.074  0.00  0.00    +0.000 A 
ATOM     15  C   UNL     1       1.637   2.958  21.150  0.00  0.00    +0.000 A 
ATOM     16  F   UNL     1       0.951   2.862  22.297  0.00  0.00    +0.000 F 
ATOM     17  C   UNL     1       2.895   2.374  21.053  0.00  0.00    +0.000 A 
ATOM     18  C   UNL     1       3.623   2.489  19.864  0.00  0.00    +0.000 A 
ENDBRANCH   2  12
BRANCH   1  20
ATOM     19  N   UNL     1       6.064   5.158  19.791  0.00  0.00    +0.000 NA
ATOM     20  C   UNL     1       5.601   4.647  18.735  0.00  0.00    +0.000 C 
ENDBRANCH   1  20
TORSDOF 3
ENDMDL
MODEL 3
REMARK VINA RESULT:      -7.3      1.002      1.018
REMARK  Name = 
REMARK  3 active torsions:
REMARK  status: ('A' for Active; 'I' for Inactive)
REMARK    1  A    between atoms: C_2  and  C_3
REMARK    2  A    between atoms: C_3  and  C_12
REMARK    3  A    between atoms: C_4  and  C_5
REMARK                            x       y       z     vdW  Elec       q    Type
REMARK                         _______ _______ _______ _____ _____    ______ ____
ROOT
ATOM      1  C   UNL     1       4.357   4.499  17.320  0.00  0.00    +0.000 C 
ATOM      2  C   UNL     1       4.024   3.302  17.863  0.00  0.00    +0.000 C 
ENDROOT
BRANCH   1   3
ATOM      3  C   UNL     1       5.143   4.521  16.125  0.00  0.00    +0.000 A 
ATOM      4  N   UNL     1       4.892   3.805  15.042  0.00  0.00    +0.000 NA
ATOM      5  C   UNL     1       5.812   4.058  14.043  0.00  0.00    +0.000 A 
ATOM      6  C   UNL     1       5.822   3.467  12.765  0.00  0.00    +0.000 A 
ATOM      7  C   UNL     1       6.824   3.808  11.853  0.00  0.00    +0.000 A 
ATOM      8  C   UNL     1       7.811   4.724  12.202  0.00  0.00    +0.000 A 
ATOM      9  C   UNL     1       7.817   5.329  13.463  0.00  0.00    +0.000 A 
ATOM     10  C   UNL     1       6.802   4.981  14.370  0.00  0.00    +0.000 A 
ATOM     11  S   UNL     1       6.533   5.542  15.972  0.00  0.00    +0.000 S 
ENDBRANCH   1   3
BRANCH   2  12
ATOM     12  C   UNL     1       3.148   3.128  19.036  0.00  0.00    +0.000 A 
ATOM     13  C   UNL     1       3.697   2.810  20.285  0.00  0.00    +0.000 A 
ATOM     14  C   UNL     1       2.863   2.583  21.383  0.00  0.00    +0.000 A 
ATOM     15  C   UNL     1       1.486   2.685  21.233  0.00  0.00    +0.000 A 
ATOM     16  F   UNL     1       0.687   2.456  22.283  0.00  0.00    +0.000 F 
ATOM     17  C   UNL     1       0.927   3.022  20.006  0.00  0.00    +0.000 A 
ATOM     18  C   UNL     1       1.758   3.243  18.902  0.00  0.00    +0.000 A 
ENDBRANCH   2  12
BRANCH   1  20
ATOM     19  N   UNL     1       3.331   6.801  18.497  0.00  0.00    +0.000 NA
ATOM     20  C   UNL     1       3.796   5.757  17.963  0.00  0.00    +0.000 C 
ENDBRANCH   1  20
TORSDOF 3
ENDMDL
MODEL 4
REMARK VINA RESULT:      -6.9      5.034      7.521
REMARK  Name = 
REMARK  3 active torsions:
REMARK  status: ('A' for Active; 'I' for Inactive)
REMARK    1  A    between atoms: C_2  and  C_3
REMARK    2  A    between atoms: C_3  and  C_12
REMARK    3  A    between atoms: C_4  and  C_5
REMARK                            x       y       z     vdW  Elec       q    Type
REMARK                         _______ _______ _______ _____ _____    ______ ____
ROOT
ATOM      1  C   UNL     1       2.498   6.932  18.640  0.00  0.00    +0.000 C 
ATOM      2  C   UNL     1       1.999   5.783  19.156  0.00  0.00    +0.000 C 
ENDROOT
BRANCH   1   3
ATOM      3  C   UNL     1       1.918   8.179  19.037  0.00  0.00    +0.000 A 
ATOM      4  N   UNL     1       1.435   8.438  20.241  0.00  0.00    +0.000 NA
ATOM      5  C   UNL     1       0.964   9.733  20.329  0.00  0.00    +0.000 A 
ATOM      6  C   UNL     1       0.396  10.325  21.474  0.00  0.00    +0.000 A 
ATOM      7  C   UNL     1      -0.052  11.648  21.418  0.00  0.00    +0.000 A 
ATOM      8  C   UNL     1       0.059  12.379  20.240  0.00  0.00    +0.000 A 
ATOM      9  C   UNL     1       0.626  11.814  19.094  0.00  0.00    +0.000 A 
ATOM     10  C   UNL     1       1.076  10.484  19.162  0.00  0.00    +0.000 A 
ATOM     11  S   UNL     1       1.813   9.519  17.946  0.00  0.00    +0.000 S 
ENDBRANCH   1   3
BRANCH   2  12
ATOM     12  C   UNL     1       2.554   4.441  18.906  0.00  0.00    +0.000 A 
ATOM     13  C   UNL     1       2.031   3.641  17.881  0.00  0.00    +0.000 A 
ATOM     14  C   UNL     1       2.515   2.344  17.684  0.00  0.00    +0.000 A 
ATOM     15  C   UNL     1       3.524   1.856  18.503  0.00  0.00    +0.000 A 
ATOM     16  F   UNL     1       3.979   0.609  18.321  0.00  0.00    +0.000 F 
ATOM     17  C   UNL     1       4.069   2.645  19.509  0.00  0.00    +0.000 A 
ATOM     18  C   UNL     1       3.584   3.940  19.715  0.00  0.00    +0.000 A 
ENDBRANCH   2  12
BRANCH   1  20
ATOM     19  N   UNL     1       4.723   6.763  16.980  0.00  0.00    +0.000 NA
ATOM     20  C   UNL     1       3.714   6.840  17.732  0.00  0.00    +0.000 C 
ENDBRANCH   1  20
TORSDOF 3
ENDMDL
MODEL 5
REMARK VINA RESULT:      -6.8      4.952      8.091
REMARK  Name = 
REMARK  3 active torsions:
REMARK  status: ('A' for Active; 'I' for Inactive)
REMARK    1  A    between atoms: C_2  and  C_3
REMARK    2  A    between atoms: C_3  and  C_12
REMARK    3  A    between atoms: C_4  and  C_5
REMARK                            x       y       z     vdW  Elec       q    Type
REMARK                         _______ _______ _______ _____ _____    ______ ____
ROOT
ATOM      1  C   UNL     1       2.100   6.721  19.432  0.00  0.00    +0.000 C 
ATOM      2  C   UNL     1       1.772   5.474  19.848  0.00  0.00    +0.000 C 
ENDROOT
BRANCH   1   3
ATOM      3  C   UNL     1       1.474   7.846  20.057  0.00  0.00    +0.000 A 
ATOM      4  N   UNL     1       0.953   7.842  21.272  0.00  0.00    +0.000 NA
ATOM      5  C   UNL     1       0.442   9.081  21.608  0.00  0.00    +0.000 A 
ATOM      6  C   UNL     1      -0.173   9.413  22.831  0.00  0.00    +0.000 A 
ATOM      7  C   UNL     1      -0.658  10.709  23.032  0.00  0.00    +0.000 A 
ATOM      8  C   UNL     1      -0.538  11.667  22.031  0.00  0.00    +0.000 A 
ATOM      9  C   UNL     1       0.075  11.361  20.812  0.00  0.00    +0.000 A 
ATOM     10  C   UNL     1       0.561  10.057  20.622  0.00  0.00    +0.000 A 
ATOM     11  S   UNL     1       1.357   9.378  19.258  0.00  0.00    +0.000 S 
ENDBRANCH   1   3
BRANCH   2  12
ATOM     12  C   UNL     1       2.401   4.234  19.359  0.00  0.00    +0.000 A 
ATOM     13  C   UNL     1       1.882   3.575  18.236  0.00  0.00    +0.000 A 
ATOM     14  C   UNL     1       2.439   2.366  17.809  0.00  0.00    +0.000 A 
ATOM     15  C   UNL     1       3.517   1.826  18.498  0.00  0.00    +0.000 A 
ATOM     16  F   UNL     1       4.043   0.661  18.096  0.00  0.00    +0.000 F 
ATOM     17  C   UNL     1       4.058   2.478  19.600  0.00  0.00    +0.000 A 
ATOM     18  C   UNL     1       3.499   3.684  20.034  0.00  0.00    +0.000 A 
ENDBRANCH   2  12
BRANCH   1  20
ATOM     19  N   UNL     1       4.095   6.977  17.512  0.00  0.00    +0.000 NA
ATOM     20  C   UNL     1       3.191   6.861  18.382  0.00  0.00    +0.000 C 
ENDBRANCH   1  20
TORSDOF 3
ENDMDL
MODEL 6
REMARK VINA RESULT:      -6.8      5.341      8.648
REMARK  Name = 
REMARK  3 active torsions:
REMARK  status: ('A' for Active; 'I' for Inactive)
REMARK    1  A    between atoms: C_2  and  C_3
REMARK    2  A    between atoms: C_3  and  C_12
REMARK    3  A    between atoms: C_4  and  C_5
REMARK                            x       y       z     vdW  Elec       q    Type
REMARK                         _______ _______ _______ _____ _____    ______ ____
ROOT
ATOM      1  C   UNL     1       2.229   7.006  19.811  0.00  0.00    +0.000 C 
ATOM      2  C   UNL     1       2.850   7.165  18.617  0.00  0.00    +0.000 C 
ENDROOT
BRANCH   1   3
ATOM      3  C   UNL     1       1.440   8.081  20.328  0.00  0.00    +0.000 A 
ATOM      4  N   UNL     1       0.958   8.142  21.558  0.00  0.00    +0.000 NA
ATOM      5  C   UNL     1       0.255   9.311  21.771  0.00  0.00    +0.000 A 
ATOM      6  C   UNL     1      -0.374   9.687  22.973  0.00  0.00    +0.000 A 
ATOM      7  C   UNL     1      -1.064  10.900  23.044  0.00  0.00    +0.000 A 
ATOM      8  C   UNL     1      -1.132  11.735  21.934  0.00  0.00    +0.000 A 
ATOM      9  C   UNL     1      -0.509  11.386  20.732  0.00  0.00    +0.000 A 
ATOM     10  C   UNL     1       0.184  10.166  20.673  0.00  0.00    +0.000 A 
ATOM     11  S   UNL     1       1.047   9.464  19.363  0.00  0.00    +0.000 S 
ENDBRANCH   1   3
BRANCH   2  12
ATOM     12  C   UNL     1       3.618   6.114  17.925  0.00  0.00    +0.000 A 
ATOM     13  C   UNL     1       4.946   6.347  17.540  0.00  0.00    +0.000 A 
ATOM     14  C   UNL     1       5.653   5.375  16.828  0.00  0.00    +0.000 A 
ATOM     15  C   UNL     1       5.038   4.170  16.513  0.00  0.00    +0.000 A 
ATOM     16  F   UNL     1       5.713   3.243  15.821  0.00  0.00    +0.000 F 
ATOM     17  C   UNL     1       3.730   3.914  16.907  0.00  0.00    +0.000 A 
ATOM     18  C   UNL     1       3.015   4.887  17.613  0.00  0.00    +0.000 A 
ENDBRANCH   2  12
BRANCH   1  20
ATOM     19  N   UNL     1       2.414   4.529  21.063  0.00  0.00    +0.000 NA
ATOM     20  C   UNL     1       2.330   5.652  20.495  0.00  0.00    +0.000 C 
ENDBRANCH   1  20
TORSDOF 3
ENDMDL
MODEL 7
REMARK VINA RESULT:      -6.8      5.014      7.425
REMARK  Name = 
REMARK  3 active torsions:
REMARK  status: ('A' for Active; 'I' for Inactive)
REMARK    1  A    between atoms: C_2  and  C_3
REMARK    2  A    between atoms: C_3  and  C_12
REMARK    3  A    between atoms: C_4  and  C_5
REMARK                            x       y       z     vdW  Elec       q    Type
REMARK                         _______ _______ _______ _____ _____    ______ ____
ROOT
ATOM      1  C   UNL     1       2.472   6.858  18.689  0.00  0.00    +0.000 C 
ATOM      2  C   UNL     1       1.929   5.732  19.211  0.00  0.00    +0.000 C 
ENDROOT
BRANCH   1   3
ATOM      3  C   UNL     1       1.921   8.126  19.057  0.00  0.00    +0.000 A 
ATOM      4  N   UNL     1       1.442   8.424  20.253  0.00  0.00    +0.000 NA
ATOM      5  C   UNL     1       1.001   9.732  20.312  0.00  0.00    +0.000 A 
ATOM      6  C   UNL     1       0.445  10.363  21.441  0.00  0.00    +0.000 A 
ATOM      7  C   UNL     1       0.029  11.694  21.355  0.00  0.00    +0.000 A 
ATOM      8  C   UNL     1       0.160  12.396  20.161  0.00  0.00    +0.000 A 
ATOM      9  C   UNL     1       0.715  11.791  19.029  0.00  0.00    +0.000 A 
ATOM     10  C   UNL     1       1.133  10.454  19.128  0.00  0.00    +0.000 A 
ATOM     11  S   UNL     1       1.849   9.444  17.936  0.00  0.00    +0.000 S 
ENDBRANCH   1   3
BRANCH   2  12
ATOM     12  C   UNL     1       2.449   4.370  18.992  0.00  0.00    +0.000 A 
ATOM     13  C   UNL     1       3.457   3.858  19.821  0.00  0.00    +0.000 A 
ATOM     14  C   UNL     1       3.995   2.591  19.574  0.00  0.00    +0.000 A 
ATOM     15  C   UNL     1       3.519   1.838  18.509  0.00  0.00    +0.000 A 
ATOM     16  F   UNL     1       4.042   0.630  18.266  0.00  0.00    +0.000 F 
ATOM     17  C   UNL     1       2.504   2.323  17.691  0.00  0.00    +0.000 A 
ATOM     18  C   UNL     1       1.968   3.592  17.930  0.00  0.00    +0.000 A 
ENDBRANCH   2  12
BRANCH   1  20
ATOM     19  N   UNL     1       4.723   6.600  17.076  0.00  0.00    +0.000 NA
ATOM     20  C   UNL     1       3.702   6.717  17.808  0.00  0.00    +0.000 C 
ENDBRANCH   1  20
TORSDOF 3
ENDMDL
MODEL 8
REMARK VINA RESULT:      -6.8      5.018      8.350
REMARK  Name = 
REMARK  3 active torsions:
REMARK  status: ('A' for Active; 'I' for Inactive)
REMARK    1  A    between atoms: C_2  and  C_3
REMARK    2  A    between atoms: C_3  and  C_12
REMARK    3  A    between atoms: C_4  and  C_5
REMARK                            x       y       z     vdW  Elec       q    Type
REMARK                         _______ _______ _______ _____ _____    ______ ____
ROOT
ATOM      1  C   UNL     1       2.829   6.807  18.398  0.00  0.00    +0.000 C 
ATOM      2  C   UNL     1       4.059   7.132  17.931  0.00  0.00    +0.000 C 
ENDROOT
BRANCH   1   3
ATOM      3  C   UNL     1       2.090   7.784  19.137  0.00  0.00    +0.000 A 
ATOM      4  N   UNL     1       1.772   7.683  20.417  0.00  0.00    +0.000 NA
ATOM      5  C   UNL     1       1.076   8.792  20.855  0.00  0.00    +0.000 A 
ATOM      6  C   UNL     1       0.601   9.001  22.164  0.00  0.00    +0.000 A 
ATOM      7  C   UNL     1      -0.101  10.170  22.468  0.00  0.00    +0.000 A 
ATOM      8  C   UNL     1      -0.333  11.126  21.484  0.00  0.00    +0.000 A 
ATOM      9  C   UNL     1       0.135  10.943  20.179  0.00  0.00    +0.000 A 
ATOM     10  C   UNL     1       0.843   9.765  19.887  0.00  0.00    +0.000 A 
ATOM     11  S   UNL     1       1.543   9.254  18.403  0.00  0.00    +0.000 S 
ENDBRANCH   1   3
BRANCH   2  12
ATOM     12  C   UNL     1       4.891   6.259  17.083  0.00  0.00    +0.000 A 
ATOM     13  C   UNL     1       4.916   6.442  15.693  0.00  0.00    +0.000 A 
ATOM     14  C   UNL     1       5.655   5.576  14.882  0.00  0.00    +0.000 A 
ATOM     15  C   UNL     1       6.374   4.539  15.461  0.00  0.00    +0.000 A 
ATOM     16  F   UNL     1       7.072   3.703  14.682  0.00  0.00    +0.000 F 
ATOM     17  C   UNL     1       6.378   4.358  16.839  0.00  0.00    +0.000 A 
ATOM     18  C   UNL     1       5.634   5.218  17.654  0.00  0.00    +0.000 A 
ENDBRANCH   2  12
BRANCH   1  20
ATOM     19  N   UNL     1       1.789   4.317  17.725  0.00  0.00    +0.000 NA
ATOM     20  C   UNL     1       2.261   5.446  18.030  0.00  0.00    +0.000 C 
ENDBRANCH   1  20
TORSDOF 3
ENDMDL
MODEL 9
REMARK VINA RESULT:      -6.8      5.350      8.679
REMARK  Name = 
REMARK  3 active torsions:
REMARK  status: ('A' for Active; 'I' for Inactive)
REMARK    1  A    between atoms: C_2  and  C_3
REMARK    2  A    between atoms: C_3  and  C_12
REMARK    3  A    between atoms: C_4  and  C_5
REMARK                            x       y       z     vdW  Elec       q    Type
REMARK                         _______ _______ _______ _____ _____    ______ ____
ROOT
ATOM      1  C   UNL     1       2.217   7.059  19.740  0.00  0.00    +0.000 C 
ATOM      2  C   UNL     1       2.792   7.234  18.525  0.00  0.00    +0.000 C 
ENDROOT
BRANCH   1   3
ATOM      3  C   UNL     1       1.431   8.120  20.292  0.00  0.00    +0.000 A 
ATOM      4  N   UNL     1       0.963   8.149  21.529  0.00  0.00    +0.000 NA
ATOM      5  C   UNL     1       0.259   9.311  21.777  0.00  0.00    +0.000 A 
ATOM      6  C   UNL     1      -0.357   9.655  22.995  0.00  0.00    +0.000 A 
ATOM      7  C   UNL     1      -1.050  10.864  23.103  0.00  0.00    +0.000 A 
ATOM      8  C   UNL     1      -1.133  11.726  22.014  0.00  0.00    +0.000 A 
ATOM      9  C   UNL     1      -0.523  11.408  20.797  0.00  0.00    +0.000 A 
ATOM     10  C   UNL     1       0.173  10.191  20.702  0.00  0.00    +0.000 A 
ATOM     11  S   UNL     1       1.023   9.524  19.365  0.00  0.00    +0.000 S 
ENDBRANCH   1   3
BRANCH   2  12
ATOM     12  C   UNL     1       3.550   6.199  17.800  0.00  0.00    +0.000 A 
ATOM     13  C   UNL     1       2.986   4.935  17.581  0.00  0.00    +0.000 A 
ATOM     14  C   UNL     1       3.728   3.933  16.948  0.00  0.00    +0.000 A 
ATOM     15  C   UNL     1       5.024   4.199  16.528  0.00  0.00    +0.000 A 
ATOM     16  F   UNL     1       5.738   3.236  15.933  0.00  0.00    +0.000 F 
ATOM     17  C   UNL     1       5.590   5.455  16.717  0.00  0.00    +0.000 A 
ATOM     18  C   UNL     1       4.854   6.458  17.356  0.00  0.00    +0.000 A 
ENDBRANCH   2  12
BRANCH   1  20
ATOM     19  N   UNL     1       2.486   4.580  20.971  0.00  0.00    +0.000 NA
ATOM     20  C   UNL     1       2.364   5.704  20.413  0.00  0.00    +0.000 C 
ENDBRANCH   1  20
TORSDOF 3
ENDMDL
