MODEL 1
REMARK VINA RESULT:      -6.5      0.000      0.000
REMARK  Name = 
REMARK  6 active torsions:
REMARK  status: ('A' for Active; 'I' for Inactive)
REMARK    1  A    between atoms: C_1  and  C_2
REMARK    2  A    between atoms: C_2  and  O_3
REMARK    3  A    between atoms: O_3  and  C_4
REMARK    4  A    between atoms: C_4  and  C_6
REMARK    5  A    between atoms: C_6  and  O_7
REMARK    6  A    between atoms: O_7  and  C_8
REMARK                            x       y       z     vdW  Elec       q    Type
REMARK                         _______ _______ _______ _____ _____    ______ ____
ROOT
ATOM      1  C   UNL     1       4.057   4.841  17.188  0.00  0.00    +0.000 A 
ATOM      2  C   UNL     1       4.210   3.447  17.091  0.00  0.00    +0.000 A 
ATOM      3  C   UNL     1       3.502   2.598  17.938  0.00  0.00    +0.000 A 
ATOM      4  C   UNL     1       2.656   3.137  18.900  0.00  0.00    +0.000 A 
ATOM      5  C   UNL     1       2.502   4.518  19.030  0.00  0.00    +0.000 A 
ATOM      6  C   UNL     1       3.203   5.382  18.174  0.00  0.00    +0.000 A 
ATOM      7 CL   UNL     1       3.008   7.107  18.291  0.00  0.00    +0.000 Cl
ATOM      8  N   UNL     1       1.650   4.832  20.025  0.00  0.00    +0.000 NA
ATOM      9  S   UNL     1       1.202   3.491  20.604  0.00  0.00    +0.000 S 
ATOM     10  N   UNL     1       1.929   2.435  19.778  0.00  0.00    +0.000 NA
ENDROOT
BRANCH   1  11
ATOM     11  O   UNL     1       4.753   5.714  16.370  0.00  0.00    +0.000 OA
BRANCH  11  12
ATOM     12  C   UNL     1       5.869   5.120  15.733  0.00  0.00    +0.000 C 
BRANCH  12  13
ATOM     13  C   UNL     1       7.160   5.280  16.517  0.00  0.00    +0.000 C 
ATOM     14  O   UNL     1       7.811   4.408  17.073  0.00  0.00    +0.000 OA
BRANCH  13  15
ATOM     15  O   UNL     1       7.473   6.617  16.548  0.00  0.00    +0.000 OA
BRANCH  15  17
ATOM     16  C   UNL     1       7.892   8.648  17.722  0.00  0.00    +0.000 C 
ATOM     17  C   UNL     1       7.706   7.148  17.855  0.00  0.00    +0.000 C 
ENDBRANCH  15  17
ENDBRANCH  13  15
ENDBRANCH  12  13
ENDBRANCH  11  12
ENDBRANCH   1  11
TORSDOF 5
ENDMDL
MODEL 2
REMARK VINA RESULT:      -6.4      1.192      1.444
REMARK  Name = 
REMARK  6 active torsions:
REMARK  status: ('A' for Active; 'I' for Inactive)
REMARK    1  A    between atoms: C_1  and  C_2
REMARK    2  A    between atoms: C_2  and  O_3
REMARK    3  A    between atoms: O_3  and  C_4
REMARK    4  A    between atoms: C_4  and  C_6
REMARK    5  A    between atoms: C_6  and  O_7
REMARK    6  A    between atoms: O_7  and  C_8
REMARK                            x       y       z     vdW  Elec       q    Type
REMARK                         _______ _______ _______ _____ _____    ______ ____
ROOT
ATOM      1  C   UNL     1       4.094   3.941  17.178  0.00  0.00    +0.000 A 
ATOM      2  C   UNL     1       3.928   2.554  17.333  0.00  0.00    +0.000 A 
ATOM      3  C   UNL     1       3.314   2.038  18.472  0.00  0.00    +0.000 A 
ATOM      4  C   UNL     1       2.883   2.904  19.470  0.00  0.00    +0.000 A 
ATOM      5  C   UNL     1       3.053   4.283  19.351  0.00  0.00    +0.000 A 
ATOM      6  C   UNL     1       3.662   4.814  18.201  0.00  0.00    +0.000 A 
ATOM      7 CL   UNL     1       3.859   6.531  18.008  0.00  0.00    +0.000 Cl
ATOM      8  N   UNL     1       2.579   4.939  20.427  0.00  0.00    +0.000 NA
ATOM      9  S   UNL     1       2.038   3.849  21.351  0.00  0.00    +0.000 S 
ATOM     10  N   UNL     1       2.289   2.538  20.614  0.00  0.00    +0.000 NA
ENDROOT
BRANCH   1  11
ATOM     11  O   UNL     1       4.709   4.487  16.065  0.00  0.00    +0.000 OA
BRANCH  11  12
ATOM     12  C   UNL     1       5.911   3.830  15.708  0.00  0.00    +0.000 C 
BRANCH  12  13
ATOM     13  C   UNL     1       7.110   4.758  15.665  0.00  0.00    +0.000 C 
ATOM     14  O   UNL     1       7.562   5.354  14.698  0.00  0.00    +0.000 OA
BRANCH  13  15
ATOM     15  O   UNL     1       7.665   4.792  16.921  0.00  0.00    +0.000 OA
BRANCH  15  17
ATOM     16  C   UNL     1       7.320   5.629  19.126  0.00  0.00    +0.000 C 
ATOM     17  C   UNL     1       7.414   5.993  17.656  0.00  0.00    +0.000 C 
ENDBRANCH  15  17
ENDBRANCH  13  15
ENDBRANCH  12  13
ENDBRANCH  11  12
ENDBRANCH   1  11
TORSDOF 5
ENDMDL
MODEL 3
REMARK VINA RESULT:      -6.4      4.130      5.471
REMARK  Name = 
REMARK  6 active torsions:
REMARK  status: ('A' for Active; 'I' for Inactive)
REMARK    1  A    between atoms: C_1  and  C_2
REMARK    2  A    between atoms: C_2  and  O_3
REMARK    3  A    between atoms: O_3  and  C_4
REMARK    4  A    between atoms: C_4  and  C_6
REMARK    5  A    between atoms: C_6  and  O_7
REMARK    6  A    between atoms: O_7  and  C_8
REMARK                            x       y       z     vdW  Elec       q    Type
REMARK                         _______ _______ _______ _____ _____    ______ ____
ROOT
ATOM      1  C   UNL     1       3.302   2.902  18.273  0.00  0.00    +0.000 A 
ATOM      2  C   UNL     1       3.109   3.652  17.101  0.00  0.00    +0.000 A 
ATOM      3  C   UNL     1       4.015   4.646  16.740  0.00  0.00    +0.000 A 
ATOM      4  C   UNL     1       5.107   4.909  17.559  0.00  0.00    +0.000 A 
ATOM      5  C   UNL     1       5.311   4.192  18.738  0.00  0.00    +0.000 A 
ATOM      6  C   UNL     1       4.408   3.181  19.106  0.00  0.00    +0.000 A 
ATOM      7 CL   UNL     1       4.654   2.248  20.553  0.00  0.00    +0.000 Cl
ATOM      8  N   UNL     1       6.415   4.607  19.389  0.00  0.00    +0.000 NA
ATOM      9  S   UNL     1       6.990   5.727  18.523  0.00  0.00    +0.000 S 
ATOM     10  N   UNL     1       6.043   5.839  17.332  0.00  0.00    +0.000 NA
ENDROOT
BRANCH   1  11
ATOM     11  O   UNL     1       2.415   1.915  18.668  0.00  0.00    +0.000 OA
BRANCH  11  12
ATOM     12  C   UNL     1       1.147   2.417  19.045  0.00  0.00    +0.000 C 
BRANCH  12  13
ATOM     13  C   UNL     1       1.139   3.047  20.426  0.00  0.00    +0.000 C 
ATOM     14  O   UNL     1       1.289   2.490  21.504  0.00  0.00    +0.000 OA
BRANCH  13  15
ATOM     15  O   UNL     1       0.880   4.388  20.279  0.00  0.00    +0.000 OA
BRANCH  15  17
ATOM     16  C   UNL     1       2.299   6.225  19.739  0.00  0.00    +0.000 C 
ATOM     17  C   UNL     1       1.876   5.255  20.827  0.00  0.00    +0.000 C 
ENDBRANCH  15  17
ENDBRANCH  13  15
ENDBRANCH  12  13
ENDBRANCH  11  12
ENDBRANCH   1  11
TORSDOF 5
ENDMDL
MODEL 4
REMARK VINA RESULT:      -6.3      4.226      5.981
REMARK  Name = 
REMARK  6 active torsions:
REMARK  status: ('A' for Active; 'I' for Inactive)
REMARK    1  A    between atoms: C_1  and  C_2
REMARK    2  A    between atoms: C_2  and  O_3
REMARK    3  A    between atoms: O_3  and  C_4
REMARK    4  A    between atoms: C_4  and  C_6
REMARK    5  A    between atoms: C_6  and  O_7
REMARK    6  A    between atoms: O_7  and  C_8
REMARK                            x       y       z     vdW  Elec       q    Type
REMARK                         _______ _______ _______ _____ _____    ______ ____
ROOT
ATOM      1  C   UNL     1       5.233   4.535  18.514  0.00  0.00    +0.000 A 
ATOM      2  C   UNL     1       6.534   5.028  18.713  0.00  0.00    +0.000 A 
ATOM      3  C   UNL     1       7.373   5.267  17.628  0.00  0.00    +0.000 A 
ATOM      4  C   UNL     1       6.924   4.996  16.341  0.00  0.00    +0.000 A 
ATOM      5  C   UNL     1       5.644   4.488  16.117  0.00  0.00    +0.000 A 
ATOM      6  C   UNL     1       4.786   4.253  17.204  0.00  0.00    +0.000 A 
ATOM      7 CL   UNL     1       3.173   3.651  16.955  0.00  0.00    +0.000 Cl
ATOM      8  N   UNL     1       5.410   4.285  14.806  0.00  0.00    +0.000 NA
ATOM      9  S   UNL     1       6.696   4.714  14.102  0.00  0.00    +0.000 S 
ATOM     10  N   UNL     1       7.631   5.172  15.217  0.00  0.00    +0.000 NA
ENDROOT
BRANCH   1  11
ATOM     11  O   UNL     1       4.376   4.276  19.570  0.00  0.00    +0.000 OA
BRANCH  11  12
ATOM     12  C   UNL     1       4.353   2.913  19.953  0.00  0.00    +0.000 C 
BRANCH  12  13
ATOM     13  C   UNL     1       3.112   2.534  20.741  0.00  0.00    +0.000 C 
ATOM     14  O   UNL     1       3.011   2.373  21.948  0.00  0.00    +0.000 OA
BRANCH  13  15
ATOM     15  O   UNL     1       2.085   2.345  19.848  0.00  0.00    +0.000 OA
BRANCH  15  17
ATOM     16  C   UNL     1       0.988   4.432  20.197  0.00  0.00    +0.000 C 
ATOM     17  C   UNL     1       0.837   2.923  20.238  0.00  0.00    +0.000 C 
ENDBRANCH  15  17
ENDBRANCH  13  15
ENDBRANCH  12  13
ENDBRANCH  11  12
ENDBRANCH   1  11
TORSDOF 5
ENDMDL
MODEL 5
REMARK VINA RESULT:      -6.3      1.088      1.965
REMARK  Name = 
REMARK  6 active torsions:
REMARK  status: ('A' for Active; 'I' for Inactive)
REMARK    1  A    between atoms: C_1  and  C_2
REMARK    2  A    between atoms: C_2  and  O_3
REMARK    3  A    between atoms: O_3  and  C_4
REMARK    4  A    between atoms: C_4  and  C_6
REMARK    5  A    between atoms: C_6  and  O_7
REMARK    6  A    between atoms: O_7  and  C_8
REMARK                            x       y       z     vdW  Elec       q    Type
REMARK                         _______ _______ _______ _____ _____    ______ ____
ROOT
ATOM      1  C   UNL     1       3.988   4.985  17.382  0.00  0.00    +0.000 A 
ATOM      2  C   UNL     1       4.206   3.622  17.118  0.00  0.00    +0.000 A 
ATOM      3  C   UNL     1       3.516   2.644  17.831  0.00  0.00    +0.000 A 
ATOM      4  C   UNL     1       2.622   3.023  18.824  0.00  0.00    +0.000 A 
ATOM      5  C   UNL     1       2.401   4.368  19.119  0.00  0.00    +0.000 A 
ATOM      6  C   UNL     1       3.084   5.362  18.399  0.00  0.00    +0.000 A 
ATOM      7 CL   UNL     1       2.806   7.049  18.722  0.00  0.00    +0.000 Cl
ATOM      8  N   UNL     1       1.509   4.520  20.117  0.00  0.00    +0.000 NA
ATOM      9  S   UNL     1       1.108   3.099  20.511  0.00  0.00    +0.000 S 
ATOM     10  N   UNL     1       1.904   2.186  19.585  0.00  0.00    +0.000 NA
ENDROOT
BRANCH   1  11
ATOM     11  O   UNL     1       4.664   5.982  16.701  0.00  0.00    +0.000 OA
BRANCH  11  12
ATOM     12  C   UNL     1       5.958   6.237  17.216  0.00  0.00    +0.000 C 
BRANCH  12  13
ATOM     13  C   UNL     1       7.039   5.400  16.557  0.00  0.00    +0.000 C 
ATOM     14  O   UNL     1       7.807   4.613  17.092  0.00  0.00    +0.000 OA
BRANCH  13  15
ATOM     15  O   UNL     1       7.057   5.709  15.219  0.00  0.00    +0.000 OA
BRANCH  15  17
ATOM     16  C   UNL     1       5.855   4.125  13.905  0.00  0.00    +0.000 C 
ATOM     17  C   UNL     1       7.230   4.589  14.347  0.00  0.00    +0.000 C 
ENDBRANCH  15  17
ENDBRANCH  13  15
ENDBRANCH  12  13
ENDBRANCH  11  12
ENDBRANCH   1  11
TORSDOF 5
ENDMDL
MODEL 6
REMARK VINA RESULT:      -6.3      2.390      3.666
REMARK  Name = 
REMARK  6 active torsions:
REMARK  status: ('A' for Active; 'I' for Inactive)
REMARK    1  A    between atoms: C_1  and  C_2
REMARK    2  A    between atoms: C_2  and  O_3
REMARK    3  A    between atoms: O_3  and  C_4
REMARK    4  A    between atoms: C_4  and  C_6
REMARK    5  A    between atoms: C_6  and  O_7
REMARK    6  A    between atoms: O_7  and  C_8
REMARK                            x       y       z     vdW  Elec       q    Type
REMARK                         _______ _______ _______ _____ _____    ______ ____
ROOT
ATOM      1  C   UNL     1       4.524   4.297  17.157  0.00  0.00    +0.000 A 
ATOM      2  C   UNL     1       4.511   5.696  17.281  0.00  0.00    +0.000 A 
ATOM      3  C   UNL     1       3.717   6.313  18.246  0.00  0.00    +0.000 A 
ATOM      4  C   UNL     1       2.919   5.536  19.076  0.00  0.00    +0.000 A 
ATOM      5  C   UNL     1       2.899   4.146  18.961  0.00  0.00    +0.000 A 
ATOM      6  C   UNL     1       3.703   3.514  17.998  0.00  0.00    +0.000 A 
ATOM      7 CL   UNL     1       3.724   1.781  17.852  0.00  0.00    +0.000 Cl
ATOM      8  N   UNL     1       2.055   3.584  19.848  0.00  0.00    +0.000 NA
ATOM      9  S   UNL     1       1.459   4.756  20.627  0.00  0.00    +0.000 S 
ATOM     10  N   UNL     1       2.107   6.003  20.034  0.00  0.00    +0.000 NA
ENDROOT
BRANCH   1  11
ATOM     11  O   UNL     1       5.292   3.651  16.203  0.00  0.00    +0.000 OA
BRANCH  11  12
ATOM     12  C   UNL     1       6.554   4.256  15.994  0.00  0.00    +0.000 C 
BRANCH  12  13
ATOM     13  C   UNL     1       6.785   4.678  14.554  0.00  0.00    +0.000 C 
ATOM     14  O   UNL     1       7.674   5.394  14.117  0.00  0.00    +0.000 OA
BRANCH  13  15
ATOM     15  O   UNL     1       5.772   4.150  13.791  0.00  0.00    +0.000 OA
BRANCH  15  17
ATOM     16  C   UNL     1       4.971   3.195  11.760  0.00  0.00    +0.000 C 
ATOM     17  C   UNL     1       6.201   3.492  12.596  0.00  0.00    +0.000 C 
ENDBRANCH  15  17
ENDBRANCH  13  15
ENDBRANCH  12  13
ENDBRANCH  11  12
ENDBRANCH   1  11
TORSDOF 5
ENDMDL
MODEL 7
REMARK VINA RESULT:      -6.3      1.769      2.325
REMARK  Name = 
REMARK  6 active torsions:
REMARK  status: ('A' for Active; 'I' for Inactive)
REMARK    1  A    between atoms: C_1  and  C_2
REMARK    2  A    between atoms: C_2  and  O_3
REMARK    3  A    between atoms: O_3  and  C_4
REMARK    4  A    between atoms: C_4  and  C_6
REMARK    5  A    between atoms: C_6  and  O_7
REMARK    6  A    between atoms: O_7  and  C_8
REMARK                            x       y       z     vdW  Elec       q    Type
REMARK                         _______ _______ _______ _____ _____    ______ ____
ROOT
ATOM      1  C   UNL     1       3.922   4.295  17.414  0.00  0.00    +0.000 A 
ATOM      2  C   UNL     1       3.596   5.605  17.803  0.00  0.00    +0.000 A 
ATOM      3  C   UNL     1       2.850   5.835  18.957  0.00  0.00    +0.000 A 
ATOM      4  C   UNL     1       2.408   4.756  19.714  0.00  0.00    +0.000 A 
ATOM      5  C   UNL     1       2.701   3.445  19.338  0.00  0.00    +0.000 A 
ATOM      6  C   UNL     1       3.462   3.203  18.182  0.00  0.00    +0.000 A 
ATOM      7 CL   UNL     1       3.870   1.581  17.706  0.00  0.00    +0.000 Cl
ATOM      8  N   UNL     1       2.174   2.551  20.197  0.00  0.00    +0.000 NA
ATOM      9  S   UNL     1       1.454   3.390  21.252  0.00  0.00    +0.000 S 
ATOM     10  N   UNL     1       1.679   4.839  20.834  0.00  0.00    +0.000 NA
ENDROOT
BRANCH   1  11
ATOM     11  O   UNL     1       4.652   4.030  16.268  0.00  0.00    +0.000 OA
BRANCH  11  12
ATOM     12  C   UNL     1       6.048   4.188  16.441  0.00  0.00    +0.000 C 
BRANCH  12  13
ATOM     13  C   UNL     1       6.708   4.952  15.307  0.00  0.00    +0.000 C 
ATOM     14  O   UNL     1       6.630   4.727  14.108  0.00  0.00    +0.000 OA
BRANCH  13  15
ATOM     15  O   UNL     1       7.478   5.947  15.858  0.00  0.00    +0.000 OA
BRANCH  15  17
ATOM     16  C   UNL     1       7.597   7.585  17.585  0.00  0.00    +0.000 C 
ATOM     17  C   UNL     1       7.302   6.132  17.265  0.00  0.00    +0.000 C 
ENDBRANCH  15  17
ENDBRANCH  13  15
ENDBRANCH  12  13
ENDBRANCH  11  12
ENDBRANCH   1  11
TORSDOF 5
ENDMDL
MODEL 8
REMARK VINA RESULT:      -6.2      1.740      2.865
REMARK  Name = 
REMARK  6 active torsions:
REMARK  status: ('A' for Active; 'I' for Inactive)
REMARK    1  A    between atoms: C_1  and  C_2
REMARK    2  A    between atoms: C_2  and  O_3
REMARK    3  A    between atoms: O_3  and  C_4
REMARK    4  A    between atoms: C_4  and  C_6
REMARK    5  A    between atoms: C_6  and  O_7
REMARK    6  A    between atoms: O_7  and  C_8
REMARK                            x       y       z     vdW  Elec       q    Type
REMARK                         _______ _______ _______ _____ _____    ______ ____
ROOT
ATOM      1  C   UNL     1       4.103   4.507  17.017  0.00  0.00    +0.000 A 
ATOM      2  C   UNL     1       4.130   3.107  17.137  0.00  0.00    +0.000 A 
ATOM      3  C   UNL     1       3.401   2.469  18.137  0.00  0.00    +0.000 A 
ATOM      4  C   UNL     1       2.658   3.227  19.034  0.00  0.00    +0.000 A 
ATOM      5  C   UNL     1       2.629   4.619  18.949  0.00  0.00    +0.000 A 
ATOM      6  C   UNL     1       3.353   5.271  17.938  0.00  0.00    +0.000 A 
ATOM      7 CL   UNL     1       3.311   7.004  17.786  0.00  0.00    +0.000 Cl
ATOM      8  N   UNL     1       1.861   5.162  19.914  0.00  0.00    +0.000 NA
ATOM      9  S   UNL     1       1.334   3.974  20.718  0.00  0.00    +0.000 S 
ATOM     10  N   UNL     1       1.922   2.740  20.042  0.00  0.00    +0.000 NA
ENDROOT
BRANCH   1  11
ATOM     11  O   UNL     1       4.824   5.174  16.043  0.00  0.00    +0.000 OA
BRANCH  11  12
ATOM     12  C   UNL     1       6.220   4.949  16.123  0.00  0.00    +0.000 C 
BRANCH  12  13
ATOM     13  C   UNL     1       6.877   4.780  14.765  0.00  0.00    +0.000 C 
ATOM     14  O   UNL     1       7.778   5.450  14.281  0.00  0.00    +0.000 OA
BRANCH  13  15
ATOM     15  O   UNL     1       6.248   3.747  14.115  0.00  0.00    +0.000 OA
BRANCH  15  17
ATOM     16  C   UNL     1       5.225   3.158  12.044  0.00  0.00    +0.000 C 
ATOM     17  C   UNL     1       6.481   3.694  12.705  0.00  0.00    +0.000 C 
ENDBRANCH  15  17
ENDBRANCH  13  15
ENDBRANCH  12  13
ENDBRANCH  11  12
ENDBRANCH   1  11
TORSDOF 5
ENDMDL
MODEL 9
REMARK VINA RESULT:      -6.2      2.211      3.039
REMARK  Name = 
REMARK  6 active torsions:
REMARK  status: ('A' for Active; 'I' for Inactive)
REMARK    1  A    between atoms: C_1  and  C_2
REMARK    2  A    between atoms: C_2  and  O_3
REMARK    3  A    between atoms: O_3  and  C_4
REMARK    4  A    between atoms: C_4  and  C_6
REMARK    5  A    between atoms: C_6  and  O_7
REMARK    6  A    between atoms: O_7  and  C_8
REMARK                            x       y       z     vdW  Elec       q    Type
REMARK                         _______ _______ _______ _____ _____    ______ ____
ROOT
ATOM      1  C   UNL     1       4.763   4.551  19.253  0.00  0.00    +0.000 A 
ATOM      2  C   UNL     1       4.062   5.513  18.506  0.00  0.00    +0.000 A 
ATOM      3  C   UNL     1       2.752   5.274  18.097  0.00  0.00    +0.000 A 
ATOM      4  C   UNL     1       2.144   4.065  18.415  0.00  0.00    +0.000 A 
ATOM      5  C   UNL     1       2.824   3.085  19.139  0.00  0.00    +0.000 A 
ATOM      6  C   UNL     1       4.142   3.321  19.565  0.00  0.00    +0.000 A 
ATOM      7 CL   UNL     1       5.005   2.132  20.496  0.00  0.00    +0.000 Cl
ATOM      8  N   UNL     1       2.064   1.990  19.331  0.00  0.00    +0.000 NA
ATOM      9  S   UNL     1       0.735   2.303  18.648  0.00  0.00    +0.000 S 
ATOM     10  N   UNL     1       0.898   3.708  18.077  0.00  0.00    +0.000 NA
ENDROOT
BRANCH   1  11
ATOM     11  O   UNL     1       6.069   4.750  19.665  0.00  0.00    +0.000 OA
BRANCH  11  12
ATOM     12  C   UNL     1       6.802   5.612  18.814  0.00  0.00    +0.000 C 
BRANCH  12  13
ATOM     13  C   UNL     1       7.471   4.885  17.661  0.00  0.00    +0.000 C 
ATOM     14  O   UNL     1       8.390   4.081  17.715  0.00  0.00    +0.000 OA
BRANCH  13  15
ATOM     15  O   UNL     1       6.895   5.322  16.494  0.00  0.00    +0.000 OA
BRANCH  15  17
ATOM     16  C   UNL     1       5.679   4.559  14.591  0.00  0.00    +0.000 C 
ATOM     17  C   UNL     1       6.942   4.386  15.414  0.00  0.00    +0.000 C 
ENDBRANCH  15  17
ENDBRANCH  13  15
ENDBRANCH  12  13
ENDBRANCH  11  12
ENDBRANCH   1  11
TORSDOF 5
ENDMDL
