MODEL 1
REMARK VINA RESULT:      -7.7      0.000      0.000
REMARK  Name = 
REMARK  8 active torsions:
REMARK  status: ('A' for Active; 'I' for Inactive)
REMARK    1  A    between atoms: C_2  and  C_3
REMARK    2  A    between atoms: C_6  and  C_7
REMARK    3  A    between atoms: C_7  and  O_9
REMARK    4  A    between atoms: O_9  and  C_10
REMARK    5  A    between atoms: C_10  and  C_11
REMARK    6  A    between atoms: N_13  and  C_14
REMARK    7  A    between atoms: C_14  and  C_15
REMARK    8  A    between atoms: C_15  and  C_16
REMARK                            x       y       z     vdW  Elec       q    Type
REMARK                         _______ _______ _______ _____ _____    ______ ____
ROOT
ATOM      1  C   UNL     1       6.762   5.662  16.264  0.00  0.00    +0.000 C 
ENDROOT
BRANCH   1   2
ATOM      2  C   UNL     1       7.419   6.439  17.403  0.00  0.00    +0.000 C 
ATOM      3  O   UNL     1       7.826   5.879  18.419  0.00  0.00    +0.000 OA
ATOM      4  N   UNL     1       7.525   7.803  17.197  0.00  0.00    +0.000 N 
ATOM      5  H   UNL     1       7.401   8.148  16.248  0.00  0.00    +0.000 HD
BRANCH   4   6
ATOM      6  C   UNL     1       8.219   8.618  18.181  0.00  0.00    +0.000 C 
BRANCH   6   7
ATOM      7  C   UNL     1       8.361  10.089  17.779  0.00  0.00    +0.000 C 
BRANCH   7   8
ATOM      8  C   UNL     1       9.451  10.808  18.557  0.00  0.00    +0.000 C 
ATOM      9  C   UNL     1       9.416  10.908  19.900  0.00  0.00    +0.000 C 
ATOM     10  C   UNL     1      10.450  11.637  20.713  0.00  0.00    +0.000 C 
ATOM     11  C   UNL     1      11.356  12.536  19.873  0.00  0.00    +0.000 C 
ATOM     12  C   UNL     1      11.796  11.822  18.602  0.00  0.00    +0.000 C 
ATOM     13  C   UNL     1      10.590  11.403  17.755  0.00  0.00    +0.000 C 
ENDBRANCH   7   8
ENDBRANCH   6   7
ENDBRANCH   4   6
ENDBRANCH   1   2
BRANCH   1  14
ATOM     14  O   UNL     1       5.628   4.907  16.695  0.00  0.00    +0.000 OA
BRANCH  14  15
ATOM     15  C   UNL     1       4.598   5.649  17.155  0.00  0.00    +0.000 C 
ATOM     16  O   UNL     1       4.352   6.801  16.820  0.00  0.00    +0.000 OA
BRANCH  15  20
ATOM     17  C   UNL     1       2.195   3.548  20.024  0.00  0.00    +0.000 A 
ATOM     18  C   UNL     1       2.224   4.945  20.001  0.00  0.00    +0.000 A 
ATOM     19  C   UNL     1       3.013   5.609  19.062  0.00  0.00    +0.000 A 
ATOM     20  C   UNL     1       3.780   4.883  18.136  0.00  0.00    +0.000 A 
ATOM     21  C   UNL     1       3.750   3.480  18.167  0.00  0.00    +0.000 A 
ATOM     22  C   UNL     1       2.958   2.811  19.110  0.00  0.00    +0.000 A 
BRANCH  17  24
ATOM     23  O   UNL     1       1.649   2.796  22.203  0.00  0.00    +0.000 OA
ATOM     24  C   UNL     1       1.355   2.843  21.013  0.00  0.00    +0.000 C 
ENDBRANCH  17  24
ENDBRANCH  15  20
ENDBRANCH  14  15
ENDBRANCH   1  14
TORSDOF 8
ENDMDL
MODEL 2
REMARK VINA RESULT:      -7.6      4.417      8.104
REMARK  Name = 
REMARK  8 active torsions:
REMARK  status: ('A' for Active; 'I' for Inactive)
REMARK    1  A    between atoms: C_2  and  C_3
REMARK    2  A    between atoms: C_6  and  C_7
REMARK    3  A    between atoms: C_7  and  O_9
REMARK    4  A    between atoms: O_9  and  C_10
REMARK    5  A    between atoms: C_10  and  C_11
REMARK    6  A    between atoms: N_13  and  C_14
REMARK    7  A    between atoms: C_14  and  C_15
REMARK    8  A    between atoms: C_15  and  C_16
REMARK                            x       y       z     vdW  Elec       q    Type
REMARK                         _______ _______ _______ _____ _____    ______ ____
ROOT
ATOM      1  C   UNL     1       7.699   4.830  18.158  0.00  0.00    +0.000 C 
ENDROOT
BRANCH   1   2
ATOM      2  C   UNL     1       6.244   4.937  18.610  0.00  0.00    +0.000 C 
ATOM      3  O   UNL     1       5.736   4.107  19.362  0.00  0.00    +0.000 OA
ATOM      4  N   UNL     1       5.556   6.032  18.118  0.00  0.00    +0.000 N 
ATOM      5  H   UNL     1       6.103   6.791  17.718  0.00  0.00    +0.000 HD
BRANCH   4   6
ATOM      6  C   UNL     1       4.194   6.274  18.562  0.00  0.00    +0.000 C 
BRANCH   6   7
ATOM      7  C   UNL     1       3.133   5.522  17.753  0.00  0.00    +0.000 C 
BRANCH   7   8
ATOM      8  C   UNL     1       2.333   4.544  18.597  0.00  0.00    +0.000 C 
ATOM      9  C   UNL     1       1.690   3.495  18.049  0.00  0.00    +0.000 C 
ATOM     10  C   UNL     1       0.858   2.518  18.834  0.00  0.00    +0.000 C 
ATOM     11  C   UNL     1       0.527   3.004  20.245  0.00  0.00    +0.000 C 
ATOM     12  C   UNL     1       1.755   3.617  20.907  0.00  0.00    +0.000 C 
ATOM     13  C   UNL     1       2.296   4.795  20.090  0.00  0.00    +0.000 C 
ENDBRANCH   7   8
ENDBRANCH   6   7
ENDBRANCH   4   6
ENDBRANCH   1   2
BRANCH   1  14
ATOM     14  O   UNL     1       7.825   4.405  16.800  0.00  0.00    +0.000 OA
BRANCH  14  15
ATOM     15  C   UNL     1       7.494   5.339  15.884  0.00  0.00    +0.000 C 
ATOM     16  O   UNL     1       7.677   6.544  16.005  0.00  0.00    +0.000 OA
BRANCH  15  20
ATOM     17  C   UNL     1       5.592   3.524  12.491  0.00  0.00    +0.000 A 
ATOM     18  C   UNL     1       4.967   3.535  13.741  0.00  0.00    +0.000 A 
ATOM     19  C   UNL     1       5.602   4.129  14.832  0.00  0.00    +0.000 A 
ATOM     20  C   UNL     1       6.869   4.717  14.683  0.00  0.00    +0.000 A 
ATOM     21  C   UNL     1       7.493   4.698  13.426  0.00  0.00    +0.000 A 
ATOM     22  C   UNL     1       6.857   4.102  12.329  0.00  0.00    +0.000 A 
BRANCH  17  24
ATOM     23  O   UNL     1       3.740   3.117  11.071  0.00  0.00    +0.000 OA
ATOM     24  C   UNL     1       4.918   2.901  11.333  0.00  0.00    +0.000 C 
ENDBRANCH  17  24
ENDBRANCH  15  20
ENDBRANCH  14  15
ENDBRANCH   1  14
TORSDOF 8
ENDMDL
MODEL 3
REMARK VINA RESULT:      -7.3      0.465      1.098
REMARK  Name = 
REMARK  8 active torsions:
REMARK  status: ('A' for Active; 'I' for Inactive)
REMARK    1  A    between atoms: C_2  and  C_3
REMARK    2  A    between atoms: C_6  and  C_7
REMARK    3  A    between atoms: C_7  and  O_9
REMARK    4  A    between atoms: O_9  and  C_10
REMARK    5  A    between atoms: C_10  and  C_11
REMARK    6  A    between atoms: N_13  and  C_14
REMARK    7  A    between atoms: C_14  and  C_15
REMARK    8  A    between atoms: C_15  and  C_16
REMARK                            x       y       z     vdW  Elec       q    Type
REMARK                         _______ _______ _______ _____ _____    ______ ____
ROOT
ATOM      1  C   UNL     1       7.017   5.618  16.564  0.00  0.00    +0.000 C 
ENDROOT
BRANCH   1   2
ATOM      2  C   UNL     1       7.482   6.587  17.649  0.00  0.00    +0.000 C 
ATOM      3  O   UNL     1       7.762   6.203  18.783  0.00  0.00    +0.000 OA
ATOM      4  N   UNL     1       7.567   7.911  17.256  0.00  0.00    +0.000 N 
ATOM      5  H   UNL     1       7.563   8.107  16.257  0.00  0.00    +0.000 HD
BRANCH   4   6
ATOM      6  C   UNL     1       8.087   8.897  18.188  0.00  0.00    +0.000 C 
BRANCH   6   7
ATOM      7  C   UNL     1       8.753  10.099  17.513  0.00  0.00    +0.000 C 
BRANCH   7   8
ATOM      8  C   UNL     1       9.638  10.891  18.462  0.00  0.00    +0.000 C 
ATOM      9  C   UNL     1       9.471  10.836  19.798  0.00  0.00    +0.000 C 
ATOM     10  C   UNL     1      10.297  11.625  20.777  0.00  0.00    +0.000 C 
ATOM     11  C   UNL     1      11.109  12.741  20.122  0.00  0.00    +0.000 C 
ATOM     12  C   UNL     1      11.769  12.248  18.841  0.00  0.00    +0.000 C 
ATOM     13  C   UNL     1      10.726  11.740  17.840  0.00  0.00    +0.000 C 
ENDBRANCH   7   8
ENDBRANCH   6   7
ENDBRANCH   4   6
ENDBRANCH   1   2
BRANCH   1  14
ATOM     14  O   UNL     1       5.853   4.882  16.943  0.00  0.00    +0.000 OA
BRANCH  14  15
ATOM     15  C   UNL     1       4.770   5.641  17.214  0.00  0.00    +0.000 C 
ATOM     16  O   UNL     1       4.459   6.667  16.621  0.00  0.00    +0.000 OA
BRANCH  15  20
ATOM     17  C   UNL     1       2.560   3.890  20.450  0.00  0.00    +0.000 A 
ATOM     18  C   UNL     1       3.474   3.131  19.714  0.00  0.00    +0.000 A 
ATOM     19  C   UNL     1       4.181   3.718  18.664  0.00  0.00    +0.000 A 
ATOM     20  C   UNL     1       3.982   5.070  18.341  0.00  0.00    +0.000 A 
ATOM     21  C   UNL     1       3.059   5.826  19.081  0.00  0.00    +0.000 A 
ATOM     22  C   UNL     1       2.348   5.238  20.136  0.00  0.00    +0.000 A 
BRANCH  17  24
ATOM     23  O   UNL     1       2.054   2.135  21.958  0.00  0.00    +0.000 OA
ATOM     24  C   UNL     1       1.815   3.272  21.565  0.00  0.00    +0.000 C 
ENDBRANCH  17  24
ENDBRANCH  15  20
ENDBRANCH  14  15
ENDBRANCH   1  14
TORSDOF 8
ENDMDL
MODEL 4
REMARK VINA RESULT:      -7.2      4.206      8.114
REMARK  Name = 
REMARK  8 active torsions:
REMARK  status: ('A' for Active; 'I' for Inactive)
REMARK    1  A    between atoms: C_2  and  C_3
REMARK    2  A    between atoms: C_6  and  C_7
REMARK    3  A    between atoms: C_7  and  O_9
REMARK    4  A    between atoms: O_9  and  C_10
REMARK    5  A    between atoms: C_10  and  C_11
REMARK    6  A    between atoms: N_13  and  C_14
REMARK    7  A    between atoms: C_14  and  C_15
REMARK    8  A    between atoms: C_15  and  C_16
REMARK                            x       y       z     vdW  Elec       q    Type
REMARK                         _______ _______ _______ _____ _____    ______ ____
ROOT
ATOM      1  C   UNL     1       7.014   5.480  18.698  0.00  0.00    +0.000 C 
ENDROOT
BRANCH   1   2
ATOM      2  C   UNL     1       5.525   5.589  19.019  0.00  0.00    +0.000 C 
ATOM      3  O   UNL     1       5.017   4.970  19.952  0.00  0.00    +0.000 OA
ATOM      4  N   UNL     1       4.807   6.435  18.193  0.00  0.00    +0.000 N 
ATOM      5  H   UNL     1       5.333   7.091  17.620  0.00  0.00    +0.000 HD
BRANCH   4   6
ATOM      6  C   UNL     1       3.403   6.680  18.474  0.00  0.00    +0.000 C 
BRANCH   6   7
ATOM      7  C   UNL     1       2.448   5.738  17.733  0.00  0.00    +0.000 C 
BRANCH   7   8
ATOM      8  C   UNL     1       1.943   4.605  18.610  0.00  0.00    +0.000 C 
ATOM      9  C   UNL     1       1.668   4.787  19.917  0.00  0.00    +0.000 C 
ATOM     10  C   UNL     1       1.199   3.692  20.835  0.00  0.00    +0.000 C 
ATOM     11  C   UNL     1       1.382   2.292  20.249  0.00  0.00    +0.000 C 
ATOM     12  C   UNL     1       0.950   2.257  18.789  0.00  0.00    +0.000 C 
ATOM     13  C   UNL     1       1.752   3.256  17.949  0.00  0.00    +0.000 C 
ENDBRANCH   7   8
ENDBRANCH   6   7
ENDBRANCH   4   6
ENDBRANCH   1   2
BRANCH   1  14
ATOM     14  O   UNL     1       7.262   4.831  17.449  0.00  0.00    +0.000 OA
BRANCH  14  15
ATOM     15  C   UNL     1       7.230   5.648  16.374  0.00  0.00    +0.000 C 
ATOM     16  O   UNL     1       7.607   6.814  16.360  0.00  0.00    +0.000 OA
BRANCH  15  20
ATOM     17  C   UNL     1       5.731   3.647  12.885  0.00  0.00    +0.000 A 
ATOM     18  C   UNL     1       6.992   4.249  12.879  0.00  0.00    +0.000 A 
ATOM     19  C   UNL     1       7.461   4.896  14.022  0.00  0.00    +0.000 A 
ATOM     20  C   UNL     1       6.673   4.947  15.183  0.00  0.00    +0.000 A 
ATOM     21  C   UNL     1       5.405   4.345  15.182  0.00  0.00    +0.000 A 
ATOM     22  C   UNL     1       4.933   3.694  14.035  0.00  0.00    +0.000 A 
BRANCH  17  24
ATOM     23  O   UNL     1       5.566   1.808  11.402  0.00  0.00    +0.000 OA
ATOM     24  C   UNL     1       5.236   2.956  11.677  0.00  0.00    +0.000 C 
ENDBRANCH  17  24
ENDBRANCH  15  20
ENDBRANCH  14  15
ENDBRANCH   1  14
TORSDOF 8
ENDMDL
MODEL 5
REMARK VINA RESULT:      -7.2      1.131      1.469
REMARK  Name = 
REMARK  8 active torsions:
REMARK  status: ('A' for Active; 'I' for Inactive)
REMARK    1  A    between atoms: C_2  and  C_3
REMARK    2  A    between atoms: C_6  and  C_7
REMARK    3  A    between atoms: C_7  and  O_9
REMARK    4  A    between atoms: O_9  and  C_10
REMARK    5  A    between atoms: C_10  and  C_11
REMARK    6  A    between atoms: N_13  and  C_14
REMARK    7  A    between atoms: C_14  and  C_15
REMARK    8  A    between atoms: C_15  and  C_16
REMARK                            x       y       z     vdW  Elec       q    Type
REMARK                         _______ _______ _______ _____ _____    ______ ____
ROOT
ATOM      1  C   UNL     1       5.873   6.064  15.905  0.00  0.00    +0.000 C 
ENDROOT
BRANCH   1   2
ATOM      2  C   UNL     1       6.285   7.008  17.034  0.00  0.00    +0.000 C 
ATOM      3  O   UNL     1       5.492   7.361  17.904  0.00  0.00    +0.000 OA
ATOM      4  N   UNL     1       7.605   7.420  17.001  0.00  0.00    +0.000 N 
ATOM      5  H   UNL     1       8.248   6.896  16.411  0.00  0.00    +0.000 HD
BRANCH   4   6
ATOM      6  C   UNL     1       8.119   8.244  18.082  0.00  0.00    +0.000 C 
BRANCH   6   7
ATOM      7  C   UNL     1       8.126   9.743  17.771  0.00  0.00    +0.000 C 
BRANCH   7   8
ATOM      8  C   UNL     1       9.179  10.503  18.560  0.00  0.00    +0.000 C 
ATOM      9  C   UNL     1       9.177  10.526  19.907  0.00  0.00    +0.000 C 
ATOM     10  C   UNL     1      10.175  11.290  20.734  0.00  0.00    +0.000 C 
ATOM     11  C   UNL     1      10.984  12.301  19.923  0.00  0.00    +0.000 C 
ATOM     12  C   UNL     1      11.440  11.694  18.602  0.00  0.00    +0.000 C 
ATOM     13  C   UNL     1      10.244  11.228  17.764  0.00  0.00    +0.000 C 
ENDBRANCH   7   8
ENDBRANCH   6   7
ENDBRANCH   4   6
ENDBRANCH   1   2
BRANCH   1  14
ATOM     14  O   UNL     1       4.633   5.403  16.165  0.00  0.00    +0.000 OA
BRANCH  14  15
ATOM     15  C   UNL     1       4.752   4.115  16.551  0.00  0.00    +0.000 C 
ATOM     16  O   UNL     1       5.474   3.281  16.019  0.00  0.00    +0.000 OA
BRANCH  15  20
ATOM     17  C   UNL     1       2.162   3.233  19.858  0.00  0.00    +0.000 A 
ATOM     18  C   UNL     1       1.731   3.045  18.542  0.00  0.00    +0.000 A 
ATOM     19  C   UNL     1       2.587   3.340  17.481  0.00  0.00    +0.000 A 
ATOM     20  C   UNL     1       3.882   3.824  17.725  0.00  0.00    +0.000 A 
ATOM     21  C   UNL     1       4.307   4.015  19.049  0.00  0.00    +0.000 A 
ATOM     22  C   UNL     1       3.449   3.720  20.117  0.00  0.00    +0.000 A 
BRANCH  17  24
ATOM     23  O   UNL     1       1.682   2.579  22.084  0.00  0.00    +0.000 OA
ATOM     24  C   UNL     1       1.259   2.916  20.983  0.00  0.00    +0.000 C 
ENDBRANCH  17  24
ENDBRANCH  15  20
ENDBRANCH  14  15
ENDBRANCH   1  14
TORSDOF 8
ENDMDL
MODEL 6
REMARK VINA RESULT:      -7.1      1.423      2.262
REMARK  Name = 
REMARK  8 active torsions:
REMARK  status: ('A' for Active; 'I' for Inactive)
REMARK    1  A    between atoms: C_2  and  C_3
REMARK    2  A    between atoms: C_6  and  C_7
REMARK    3  A    between atoms: C_7  and  O_9
REMARK    4  A    between atoms: O_9  and  C_10
REMARK    5  A    between atoms: C_10  and  C_11
REMARK    6  A    between atoms: N_13  and  C_14
REMARK    7  A    between atoms: C_14  and  C_15
REMARK    8  A    between atoms: C_15  and  C_16
REMARK                            x       y       z     vdW  Elec       q    Type
REMARK                         _______ _______ _______ _____ _____    ______ ____
ROOT
ATOM      1  C   UNL     1       6.329   5.144  16.844  0.00  0.00    +0.000 C 
ENDROOT
BRANCH   1   2
ATOM      2  C   UNL     1       6.431   6.653  17.057  0.00  0.00    +0.000 C 
ATOM      3  O   UNL     1       5.431   7.367  17.121  0.00  0.00    +0.000 OA
ATOM      4  N   UNL     1       7.718   7.143  17.178  0.00  0.00    +0.000 N 
ATOM      5  H   UNL     1       8.461   6.473  17.365  0.00  0.00    +0.000 HD
BRANCH   4   6
ATOM      6  C   UNL     1       7.918   8.551  17.476  0.00  0.00    +0.000 C 
BRANCH   6   7
ATOM      7  C   UNL     1       8.674   8.809  18.783  0.00  0.00    +0.000 C 
BRANCH   7   8
ATOM      8  C   UNL     1       9.119  10.254  18.929  0.00  0.00    +0.000 C 
ATOM      9  C   UNL     1       8.873  11.172  17.974  0.00  0.00    +0.000 C 
ATOM     10  C   UNL     1       9.321  12.606  18.054  0.00  0.00    +0.000 C 
ATOM     11  C   UNL     1      10.364  12.853  19.143  0.00  0.00    +0.000 C 
ATOM     12  C   UNL     1       9.982  12.134  20.430  0.00  0.00    +0.000 C 
ATOM     13  C   UNL     1       9.848  10.624  20.203  0.00  0.00    +0.000 C 
ENDBRANCH   7   8
ENDBRANCH   6   7
ENDBRANCH   4   6
ENDBRANCH   1   2
BRANCH   1  14
ATOM     14  O   UNL     1       6.782   4.396  17.975  0.00  0.00    +0.000 OA
BRANCH  14  15
ATOM     15  C   UNL     1       6.292   4.815  19.161  0.00  0.00    +0.000 C 
ATOM     16  O   UNL     1       6.918   5.452  20.000  0.00  0.00    +0.000 OA
BRANCH  15  20
ATOM     17  C   UNL     1       2.230   3.515  19.637  0.00  0.00    +0.000 A 
ATOM     18  C   UNL     1       3.249   2.596  19.373  0.00  0.00    +0.000 A 
ATOM     19  C   UNL     1       4.563   3.039  19.219  0.00  0.00    +0.000 A 
ATOM     20  C   UNL     1       4.870   4.405  19.329  0.00  0.00    +0.000 A 
ATOM     21  C   UNL     1       3.841   5.323  19.592  0.00  0.00    +0.000 A 
ATOM     22  C   UNL     1       2.521   4.880  19.746  0.00  0.00    +0.000 A 
BRANCH  17  24
ATOM     23  O   UNL     1       0.284   2.338  18.975  0.00  0.00    +0.000 OA
ATOM     24  C   UNL     1       0.839   3.047  19.807  0.00  0.00    +0.000 C 
ENDBRANCH  17  24
ENDBRANCH  15  20
ENDBRANCH  14  15
ENDBRANCH   1  14
TORSDOF 8
ENDMDL
MODEL 7
REMARK VINA RESULT:      -7.1      4.539      7.096
REMARK  Name = 
REMARK  8 active torsions:
REMARK  status: ('A' for Active; 'I' for Inactive)
REMARK    1  A    between atoms: C_2  and  C_3
REMARK    2  A    between atoms: C_6  and  C_7
REMARK    3  A    between atoms: C_7  and  O_9
REMARK    4  A    between atoms: O_9  and  C_10
REMARK    5  A    between atoms: C_10  and  C_11
REMARK    6  A    between atoms: N_13  and  C_14
REMARK    7  A    between atoms: C_14  and  C_15
REMARK    8  A    between atoms: C_15  and  C_16
REMARK                            x       y       z     vdW  Elec       q    Type
REMARK                         _______ _______ _______ _____ _____    ______ ____
ROOT
ATOM      1  C   UNL     1       2.349   2.828  21.384  0.00  0.00    +0.000 C 
ENDROOT
BRANCH   1   2
ATOM      2  C   UNL     1       1.683   4.103  20.871  0.00  0.00    +0.000 C 
ATOM      3  O   UNL     1       0.605   4.077  20.280  0.00  0.00    +0.000 OA
ATOM      4  N   UNL     1       2.376   5.272  21.127  0.00  0.00    +0.000 N 
ATOM      5  H   UNL     1       3.115   5.237  21.827  0.00  0.00    +0.000 HD
BRANCH   4   6
ATOM      6  C   UNL     1       1.781   6.546  20.761  0.00  0.00    +0.000 C 
BRANCH   6   7
ATOM      7  C   UNL     1       2.254   7.087  19.408  0.00  0.00    +0.000 C 
BRANCH   7   8
ATOM      8  C   UNL     1       1.808   8.518  19.159  0.00  0.00    +0.000 C 
ATOM      9  C   UNL     1       2.177   9.194  18.053  0.00  0.00    +0.000 C 
ATOM     10  C   UNL     1       1.792  10.621  17.776  0.00  0.00    +0.000 C 
ATOM     11  C   UNL     1       1.234  11.345  19.001  0.00  0.00    +0.000 C 
ATOM     12  C   UNL     1       0.253  10.457  19.754  0.00  0.00    +0.000 C 
ATOM     13  C   UNL     1       0.920   9.154  20.208  0.00  0.00    +0.000 C 
ENDBRANCH   7   8
ENDBRANCH   6   7
ENDBRANCH   4   6
ENDBRANCH   1   2
BRANCH   1  14
ATOM     14  O   UNL     1       3.527   2.489  20.651  0.00  0.00    +0.000 OA
BRANCH  14  15
ATOM     15  C   UNL     1       3.341   2.344  19.321  0.00  0.00    +0.000 C 
ATOM     16  O   UNL     1       2.564   1.556  18.797  0.00  0.00    +0.000 OA
BRANCH  15  20
ATOM     17  C   UNL     1       5.783   5.010  17.006  0.00  0.00    +0.000 A 
ATOM     18  C   UNL     1       4.809   4.216  16.393  0.00  0.00    +0.000 A 
ATOM     19  C   UNL     1       4.027   3.355  17.163  0.00  0.00    +0.000 A 
ATOM     20  C   UNL     1       4.210   3.279  18.553  0.00  0.00    +0.000 A 
ATOM     21  C   UNL     1       5.192   4.075  19.162  0.00  0.00    +0.000 A 
ATOM     22  C   UNL     1       5.979   4.941  18.391  0.00  0.00    +0.000 A 
BRANCH  17  24
ATOM     23  O   UNL     1       7.569   6.527  16.662  0.00  0.00    +0.000 OA
ATOM     24  C   UNL     1       6.608   5.927  16.194  0.00  0.00    +0.000 C 
ENDBRANCH  17  24
ENDBRANCH  15  20
ENDBRANCH  14  15
ENDBRANCH   1  14
TORSDOF 8
ENDMDL
MODEL 8
REMARK VINA RESULT:      -7.1      0.963      1.728
REMARK  Name = 
REMARK  8 active torsions:
REMARK  status: ('A' for Active; 'I' for Inactive)
REMARK    1  A    between atoms: C_2  and  C_3
REMARK    2  A    between atoms: C_6  and  C_7
REMARK    3  A    between atoms: C_7  and  O_9
REMARK    4  A    between atoms: O_9  and  C_10
REMARK    5  A    between atoms: C_10  and  C_11
REMARK    6  A    between atoms: N_13  and  C_14
REMARK    7  A    between atoms: C_14  and  C_15
REMARK    8  A    between atoms: C_15  and  C_16
REMARK                            x       y       z     vdW  Elec       q    Type
REMARK                         _______ _______ _______ _____ _____    ______ ____
ROOT
ATOM      1  C   UNL     1       6.117   6.368  17.005  0.00  0.00    +0.000 C 
ENDROOT
BRANCH   1   2
ATOM      2  C   UNL     1       7.207   6.999  17.868  0.00  0.00    +0.000 C 
ATOM      3  O   UNL     1       7.659   6.429  18.860  0.00  0.00    +0.000 OA
ATOM      4  N   UNL     1       7.644   8.241  17.446  0.00  0.00    +0.000 N 
ATOM      5  H   UNL     1       7.410   8.526  16.497  0.00  0.00    +0.000 HD
BRANCH   4   6
ATOM      6  C   UNL     1       8.744   8.884  18.146  0.00  0.00    +0.000 C 
BRANCH   6   7
ATOM      7  C   UNL     1       8.492  10.357  18.479  0.00  0.00    +0.000 C 
BRANCH   7   8
ATOM      8  C   UNL     1       9.768  11.107  18.826  0.00  0.00    +0.000 C 
ATOM      9  C   UNL     1      10.634  11.511  17.876  0.00  0.00    +0.000 C 
ATOM     10  C   UNL     1      11.925  12.225  18.169  0.00  0.00    +0.000 C 
ATOM     11  C   UNL     1      12.333  12.157  19.640  0.00  0.00    +0.000 C 
ATOM     12  C   UNL     1      11.136  12.412  20.546  0.00  0.00    +0.000 C 
ATOM     13  C   UNL     1      10.022  11.391  20.292  0.00  0.00    +0.000 C 
ENDBRANCH   7   8
ENDBRANCH   6   7
ENDBRANCH   4   6
ENDBRANCH   1   2
BRANCH   1  14
ATOM     14  O   UNL     1       6.238   4.947  16.915  0.00  0.00    +0.000 OA
BRANCH  14  15
ATOM     15  C   UNL     1       5.095   4.304  16.594  0.00  0.00    +0.000 C 
ATOM     16  O   UNL     1       4.811   3.879  15.481  0.00  0.00    +0.000 OA
BRANCH  15  20
ATOM     17  C   UNL     1       2.600   3.824  20.053  0.00  0.00    +0.000 A 
ATOM     18  C   UNL     1       3.680   2.968  19.826  0.00  0.00    +0.000 A 
ATOM     19  C   UNL     1       4.478   3.139  18.695  0.00  0.00    +0.000 A 
ATOM     20  C   UNL     1       4.204   4.168  17.780  0.00  0.00    +0.000 A 
ATOM     21  C   UNL     1       3.115   5.022  18.012  0.00  0.00    +0.000 A 
ATOM     22  C   UNL     1       2.311   4.852  19.147  0.00  0.00    +0.000 A 
BRANCH  17  24
ATOM     23  O   UNL     1       1.941   2.735  22.051  0.00  0.00    +0.000 OA
ATOM     24  C   UNL     1       1.757   3.648  21.254  0.00  0.00    +0.000 C 
ENDBRANCH  17  24
ENDBRANCH  15  20
ENDBRANCH  14  15
ENDBRANCH   1  14
TORSDOF 8
ENDMDL
MODEL 9
REMARK VINA RESULT:      -7.0      3.664      8.084
REMARK  Name = 
REMARK  8 active torsions:
REMARK  status: ('A' for Active; 'I' for Inactive)
REMARK    1  A    between atoms: C_2  and  C_3
REMARK    2  A    between atoms: C_6  and  C_7
REMARK    3  A    between atoms: C_7  and  O_9
REMARK    4  A    between atoms: O_9  and  C_10
REMARK    5  A    between atoms: C_10  and  C_11
REMARK    6  A    between atoms: N_13  and  C_14
REMARK    7  A    between atoms: C_14  and  C_15
REMARK    8  A    between atoms: C_15  and  C_16
REMARK                            x       y       z     vdW  Elec       q    Type
REMARK                         _______ _______ _______ _____ _____    ______ ____
ROOT
ATOM      1  C   UNL     1       7.190   7.031  17.582  0.00  0.00    +0.000 C 
ENDROOT
BRANCH   1   2
ATOM      2  C   UNL     1       5.911   6.427  18.160  0.00  0.00    +0.000 C 
ATOM      3  O   UNL     1       5.930   5.688  19.142  0.00  0.00    +0.000 OA
ATOM      4  N   UNL     1       4.747   6.781  17.503  0.00  0.00    +0.000 N 
ATOM      5  H   UNL     1       4.785   7.579  16.872  0.00  0.00    +0.000 HD
BRANCH   4   6
ATOM      6  C   UNL     1       3.469   6.334  18.031  0.00  0.00    +0.000 C 
BRANCH   6   7
ATOM      7  C   UNL     1       3.059   4.934  17.565  0.00  0.00    +0.000 C 
BRANCH   7   8
ATOM      8  C   UNL     1       2.418   4.111  18.670  0.00  0.00    +0.000 C 
ATOM      9  C   UNL     1       1.354   3.317  18.437  0.00  0.00    +0.000 C 
ATOM     10  C   UNL     1       0.662   2.510  19.501  0.00  0.00    +0.000 C 
ATOM     11  C   UNL     1       1.050   2.922  20.920  0.00  0.00    +0.000 C 
ATOM     12  C   UNL     1       2.554   3.137  21.028  0.00  0.00    +0.000 C 
ATOM     13  C   UNL     1       3.032   4.215  20.050  0.00  0.00    +0.000 C 
ENDBRANCH   7   8
ENDBRANCH   6   7
ENDBRANCH   4   6
ENDBRANCH   1   2
BRANCH   1  14
ATOM     14  O   UNL     1       7.533   6.480  16.309  0.00  0.00    +0.000 OA
BRANCH  14  15
ATOM     15  C   UNL     1       7.575   5.131  16.272  0.00  0.00    +0.000 C 
ATOM     16  O   UNL     1       8.133   4.417  17.097  0.00  0.00    +0.000 OA
BRANCH  15  20
ATOM     17  C   UNL     1       5.571   3.632  12.785  0.00  0.00    +0.000 A 
ATOM     18  C   UNL     1       6.849   4.188  12.692  0.00  0.00    +0.000 A 
ATOM     19  C   UNL     1       7.483   4.672  13.837  0.00  0.00    +0.000 A 
ATOM     20  C   UNL     1       6.845   4.603  15.086  0.00  0.00    +0.000 A 
ATOM     21  C   UNL     1       5.559   4.047  15.172  0.00  0.00    +0.000 A 
ATOM     22  C   UNL     1       4.920   3.561  14.023  0.00  0.00    +0.000 A 
BRANCH  17  24
ATOM     23  O   UNL     1       5.068   1.967  11.177  0.00  0.00    +0.000 OA
ATOM     24  C   UNL     1       4.900   3.114  11.575  0.00  0.00    +0.000 C 
ENDBRANCH  17  24
ENDBRANCH  15  20
ENDBRANCH  14  15
ENDBRANCH   1  14
TORSDOF 8
ENDMDL
