MODEL 1
REMARK VINA RESULT:      -6.9      0.000      0.000
REMARK  Name = 
REMARK  6 active torsions:
REMARK  status: ('A' for Active; 'I' for Inactive)
REMARK    1  A    between atoms: C_1  and  N_2
REMARK    2  A    between atoms: N_2  and  C_3
REMARK    3  A    between atoms: N_2  and  C_4
REMARK    4  A    between atoms: N_7  and  C_8
REMARK    5  A    between atoms: C_8  and  C_9
REMARK    6  A    between atoms: C_9  and  C_10
REMARK                            x       y       z     vdW  Elec       q    Type
REMARK                         _______ _______ _______ _____ _____    ______ ____
ROOT
ATOM      1  C   UNL     1       6.238   3.636  12.962  0.00  0.00    +0.000 A 
ATOM      2  N   UNL     1       5.986   3.549  14.293  0.00  0.00    +0.000 NA
ATOM      3  C   UNL     1       6.648   4.363  15.141  0.00  0.00    +0.000 A 
ATOM      4  N   UNL     1       6.370   4.204  16.489  0.00  0.00    +0.000 N 
ATOM      5  N   UNL     1       7.542   5.282  14.750  0.00  0.00    +0.000 NA
ATOM      6  C   UNL     1       7.777   5.364  13.431  0.00  0.00    +0.000 A 
ATOM      7  C   UNL     1       7.163   4.562  12.501  0.00  0.00    +0.000 A 
ATOM      8  F   UNL     1       7.457   4.727  11.204  0.00  0.00    +0.000 F 
ATOM      9  H   UNL     1       5.981   3.274  16.600  0.00  0.00    +0.000 HD
ENDROOT
BRANCH   1  11
ATOM     10  C   UNL     1       4.331   3.322  11.436  0.00  0.00    +0.000 C 
ATOM     11  N   UNL     1       5.524   2.806  12.089  0.00  0.00    +0.000 N 
ATOM     12  C   UNL     1       6.261   1.739  11.434  0.00  0.00    +0.000 C 
ENDBRANCH   1  11
BRANCH   4  13
ATOM     13  C   UNL     1       7.445   4.552  17.418  0.00  0.00    +0.000 C 
BRANCH  13  14
ATOM     14  C   UNL     1       6.908   5.330  18.624  0.00  0.00    +0.000 C 
BRANCH  14  15
ATOM     15  C   UNL     1       5.529   4.863  19.020  0.00  0.00    +0.000 A 
ATOM     16  C   UNL     1       4.460   5.759  19.058  0.00  0.00    +0.000 A 
ATOM     17  C   UNL     1       3.195   5.285  19.401  0.00  0.00    +0.000 A 
ATOM     18  C   UNL     1       3.028   3.938  19.691  0.00  0.00    +0.000 A 
ATOM     19  C   UNL     1       4.139   3.115  19.629  0.00  0.00    +0.000 A 
ATOM     20  N   UNL     1       5.377   3.547  19.302  0.00  0.00    +0.000 NA
ENDBRANCH  14  15
ENDBRANCH  13  14
ENDBRANCH   4  13
TORSDOF 4
ENDMDL
MODEL 2
REMARK VINA RESULT:      -6.9      2.977      7.103
REMARK  Name = 
REMARK  6 active torsions:
REMARK  status: ('A' for Active; 'I' for Inactive)
REMARK    1  A    between atoms: C_1  and  N_2
REMARK    2  A    between atoms: N_2  and  C_3
REMARK    3  A    between atoms: N_2  and  C_4
REMARK    4  A    between atoms: N_7  and  C_8
REMARK    5  A    between atoms: C_8  and  C_9
REMARK    6  A    between atoms: C_9  and  C_10
REMARK                            x       y       z     vdW  Elec       q    Type
REMARK                         _______ _______ _______ _____ _____    ______ ____
ROOT
ATOM      1  C   UNL     1       2.435   3.677  19.420  0.00  0.00    +0.000 A 
ATOM      2  N   UNL     1       3.558   4.410  19.213  0.00  0.00    +0.000 NA
ATOM      3  C   UNL     1       4.261   4.228  18.076  0.00  0.00    +0.000 A 
ATOM      4  N   UNL     1       5.414   4.983  17.938  0.00  0.00    +0.000 N 
ATOM      5  N   UNL     1       3.910   3.368  17.110  0.00  0.00    +0.000 NA
ATOM      6  C   UNL     1       2.793   2.654  17.323  0.00  0.00    +0.000 A 
ATOM      7  C   UNL     1       2.030   2.763  18.459  0.00  0.00    +0.000 A 
ATOM      8  F   UNL     1       0.925   2.012  18.574  0.00  0.00    +0.000 F 
ATOM      9  H   UNL     1       5.688   5.272  18.870  0.00  0.00    +0.000 HD
ENDROOT
BRANCH   1  11
ATOM     10  C   UNL     1       1.680   2.869  21.620  0.00  0.00    +0.000 C 
ATOM     11  N   UNL     1       1.698   3.895  20.590  0.00  0.00    +0.000 N 
ATOM     12  C   UNL     1       1.477   5.275  20.989  0.00  0.00    +0.000 C 
ENDBRANCH   1  11
BRANCH   4  13
ATOM     13  C   UNL     1       6.478   4.400  17.121  0.00  0.00    +0.000 C 
BRANCH  13  14
ATOM     14  C   UNL     1       7.062   5.430  16.149  0.00  0.00    +0.000 C 
BRANCH  14  15
ATOM     15  C   UNL     1       7.014   4.940  14.722  0.00  0.00    +0.000 A 
ATOM     16  C   UNL     1       6.107   3.952  14.342  0.00  0.00    +0.000 A 
ATOM     17  C   UNL     1       6.072   3.545  13.009  0.00  0.00    +0.000 A 
ATOM     18  C   UNL     1       6.934   4.135  12.095  0.00  0.00    +0.000 A 
ATOM     19  C   UNL     1       7.802   5.110  12.553  0.00  0.00    +0.000 A 
ATOM     20  N   UNL     1       7.860   5.522  13.839  0.00  0.00    +0.000 NA
ENDBRANCH  14  15
ENDBRANCH  13  14
ENDBRANCH   4  13
TORSDOF 4
ENDMDL
MODEL 3
REMARK VINA RESULT:      -6.9      3.675      6.527
REMARK  Name = 
REMARK  6 active torsions:
REMARK  status: ('A' for Active; 'I' for Inactive)
REMARK    1  A    between atoms: C_1  and  N_2
REMARK    2  A    between atoms: N_2  and  C_3
REMARK    3  A    between atoms: N_2  and  C_4
REMARK    4  A    between atoms: N_7  and  C_8
REMARK    5  A    between atoms: C_8  and  C_9
REMARK    6  A    between atoms: C_9  and  C_10
REMARK                            x       y       z     vdW  Elec       q    Type
REMARK                         _______ _______ _______ _____ _____    ______ ____
ROOT
ATOM      1  C   UNL     1       2.249   3.991  19.370  0.00  0.00    +0.000 A 
ATOM      2  N   UNL     1       3.087   3.397  18.484  0.00  0.00    +0.000 NA
ATOM      3  C   UNL     1       3.983   4.154  17.817  0.00  0.00    +0.000 A 
ATOM      4  N   UNL     1       4.787   3.493  16.903  0.00  0.00    +0.000 N 
ATOM      5  N   UNL     1       4.115   5.476  17.986  0.00  0.00    +0.000 NA
ATOM      6  C   UNL     1       3.287   6.052  18.872  0.00  0.00    +0.000 A 
ATOM      7  C   UNL     1       2.334   5.360  19.578  0.00  0.00    +0.000 A 
ATOM      8  F   UNL     1       1.559   6.024  20.447  0.00  0.00    +0.000 F 
ATOM      9  H   UNL     1       4.312   2.630  16.665  0.00  0.00    +0.000 HD
ENDROOT
BRANCH   1  11
ATOM     10  C   UNL     1       0.488   2.270  19.346  0.00  0.00    +0.000 C 
ATOM     11  N   UNL     1       1.343   3.191  20.077  0.00  0.00    +0.000 N 
ATOM     12  C   UNL     1       1.669   2.880  21.459  0.00  0.00    +0.000 C 
ENDBRANCH   1  11
BRANCH   4  13
ATOM     13  C   UNL     1       5.265   4.283  15.769  0.00  0.00    +0.000 C 
BRANCH  13  14
ATOM     14  C   UNL     1       6.791   4.420  15.790  0.00  0.00    +0.000 C 
BRANCH  14  15
ATOM     15  C   UNL     1       7.250   5.400  16.842  0.00  0.00    +0.000 A 
ATOM     16  C   UNL     1       7.642   4.954  18.103  0.00  0.00    +0.000 A 
ATOM     17  C   UNL     1       8.087   5.885  19.040  0.00  0.00    +0.000 A 
ATOM     18  C   UNL     1       8.133   7.229  18.694  0.00  0.00    +0.000 A 
ATOM     19  C   UNL     1       7.728   7.589  17.421  0.00  0.00    +0.000 A 
ATOM     20  N   UNL     1       7.290   6.708  16.494  0.00  0.00    +0.000 NA
ENDBRANCH  14  15
ENDBRANCH  13  14
ENDBRANCH   4  13
TORSDOF 4
ENDMDL
MODEL 4
REMARK VINA RESULT:      -6.7      1.027      1.557
REMARK  Name = 
REMARK  6 active torsions:
REMARK  status: ('A' for Active; 'I' for Inactive)
REMARK    1  A    between atoms: C_1  and  N_2
REMARK    2  A    between atoms: N_2  and  C_3
REMARK    3  A    between atoms: N_2  and  C_4
REMARK    4  A    between atoms: N_7  and  C_8
REMARK    5  A    between atoms: C_8  and  C_9
REMARK    6  A    between atoms: C_9  and  C_10
REMARK                            x       y       z     vdW  Elec       q    Type
REMARK                         _______ _______ _______ _____ _____    ______ ____
ROOT
ATOM      1  C   UNL     1       6.271   3.654  12.896  0.00  0.00    +0.000 A 
ATOM      2  N   UNL     1       6.067   3.565  14.235  0.00  0.00    +0.000 NA
ATOM      3  C   UNL     1       6.772   4.365  15.061  0.00  0.00    +0.000 A 
ATOM      4  N   UNL     1       6.541   4.204  16.417  0.00  0.00    +0.000 N 
ATOM      5  N   UNL     1       7.664   5.272  14.641  0.00  0.00    +0.000 NA
ATOM      6  C   UNL     1       7.852   5.356  13.314  0.00  0.00    +0.000 A 
ATOM      7  C   UNL     1       7.192   4.567  12.404  0.00  0.00    +0.000 A 
ATOM      8  F   UNL     1       7.441   4.733  11.098  0.00  0.00    +0.000 F 
ATOM      9  H   UNL     1       6.143   3.281  16.539  0.00  0.00    +0.000 HD
ENDROOT
BRANCH   1  11
ATOM     10  C   UNL     1       4.310   3.378  11.433  0.00  0.00    +0.000 C 
ATOM     11  N   UNL     1       5.513   2.839  12.046  0.00  0.00    +0.000 N 
ATOM     12  C   UNL     1       6.207   1.757  11.369  0.00  0.00    +0.000 C 
ENDBRANCH   1  11
BRANCH   4  13
ATOM     13  C   UNL     1       7.654   4.533  17.308  0.00  0.00    +0.000 C 
BRANCH  13  14
ATOM     14  C   UNL     1       7.209   5.471  18.434  0.00  0.00    +0.000 C 
BRANCH  14  15
ATOM     15  C   UNL     1       5.741   5.807  18.332  0.00  0.00    +0.000 A 
ATOM     16  C   UNL     1       4.815   5.202  19.180  0.00  0.00    +0.000 A 
ATOM     17  C   UNL     1       3.471   5.559  19.076  0.00  0.00    +0.000 A 
ATOM     18  C   UNL     1       3.090   6.507  18.137  0.00  0.00    +0.000 A 
ATOM     19  C   UNL     1       4.071   7.062  17.335  0.00  0.00    +0.000 A 
ATOM     20  N   UNL     1       5.380   6.733  17.412  0.00  0.00    +0.000 NA
ENDBRANCH  14  15
ENDBRANCH  13  14
ENDBRANCH   4  13
TORSDOF 4
ENDMDL
MODEL 5
REMARK VINA RESULT:      -6.7      3.514      6.286
REMARK  Name = 
REMARK  6 active torsions:
REMARK  status: ('A' for Active; 'I' for Inactive)
REMARK    1  A    between atoms: C_1  and  N_2
REMARK    2  A    between atoms: N_2  and  C_3
REMARK    3  A    between atoms: N_2  and  C_4
REMARK    4  A    between atoms: N_7  and  C_8
REMARK    5  A    between atoms: C_8  and  C_9
REMARK    6  A    between atoms: C_9  and  C_10
REMARK                            x       y       z     vdW  Elec       q    Type
REMARK                         _______ _______ _______ _____ _____    ______ ____
ROOT
ATOM      1  C   UNL     1       2.602   3.681  19.208  0.00  0.00    +0.000 A 
ATOM      2  N   UNL     1       3.523   3.172  18.350  0.00  0.00    +0.000 NA
ATOM      3  C   UNL     1       4.232   4.015  17.572  0.00  0.00    +0.000 A 
ATOM      4  N   UNL     1       5.133   3.433  16.695  0.00  0.00    +0.000 N 
ATOM      5  N   UNL     1       4.100   5.348  17.602  0.00  0.00    +0.000 NA
ATOM      6  C   UNL     1       3.193   5.840  18.460  0.00  0.00    +0.000 A 
ATOM      7  C   UNL     1       2.415   5.053  19.273  0.00  0.00    +0.000 A 
ATOM      8  F   UNL     1       1.542   5.640  20.104  0.00  0.00    +0.000 F 
ATOM      9  H   UNL     1       4.835   2.473  16.565  0.00  0.00    +0.000 HD
ENDROOT
BRANCH   1  11
ATOM     10  C   UNL     1       2.172   2.777  21.458  0.00  0.00    +0.000 C 
ATOM     11  N   UNL     1       1.892   2.797  20.031  0.00  0.00    +0.000 N 
ATOM     12  C   UNL     1       0.575   2.383  19.581  0.00  0.00    +0.000 C 
ENDBRANCH   1  11
BRANCH   4  13
ATOM     13  C   UNL     1       5.416   4.176  15.468  0.00  0.00    +0.000 C 
BRANCH  13  14
ATOM     14  C   UNL     1       6.888   4.596  15.399  0.00  0.00    +0.000 C 
BRANCH  14  15
ATOM     15  C   UNL     1       7.325   5.307  16.656  0.00  0.00    +0.000 A 
ATOM     16  C   UNL     1       7.272   6.697  16.740  0.00  0.00    +0.000 A 
ATOM     17  C   UNL     1       7.658   7.317  17.927  0.00  0.00    +0.000 A 
ATOM     18  C   UNL     1       8.080   6.538  18.996  0.00  0.00    +0.000 A 
ATOM     19  C   UNL     1       8.101   5.164  18.832  0.00  0.00    +0.000 A 
ATOM     20  N   UNL     1       7.736   4.536  17.692  0.00  0.00    +0.000 NA
ENDBRANCH  14  15
ENDBRANCH  13  14
ENDBRANCH   4  13
TORSDOF 4
ENDMDL
MODEL 6
REMARK VINA RESULT:      -6.7      3.643      6.622
REMARK  Name = 
REMARK  6 active torsions:
REMARK  status: ('A' for Active; 'I' for Inactive)
REMARK    1  A    between atoms: C_1  and  N_2
REMARK    2  A    between atoms: N_2  and  C_3
REMARK    3  A    between atoms: N_2  and  C_4
REMARK    4  A    between atoms: N_7  and  C_8
REMARK    5  A    between atoms: C_8  and  C_9
REMARK    6  A    between atoms: C_9  and  C_10
REMARK                            x       y       z     vdW  Elec       q    Type
REMARK                         _______ _______ _______ _____ _____    ______ ____
ROOT
ATOM      1  C   UNL     1       2.668   3.910  19.386  0.00  0.00    +0.000 A 
ATOM      2  N   UNL     1       3.485   4.624  18.571  0.00  0.00    +0.000 NA
ATOM      3  C   UNL     1       3.700   4.190  17.312  0.00  0.00    +0.000 A 
ATOM      4  N   UNL     1       4.568   4.945  16.540  0.00  0.00    +0.000 N 
ATOM      5  N   UNL     1       3.136   3.089  16.795  0.00  0.00    +0.000 NA
ATOM      6  C   UNL     1       2.324   2.395  17.608  0.00  0.00    +0.000 A 
ATOM      7  C   UNL     1       2.066   2.755  18.908  0.00  0.00    +0.000 A 
ATOM      8  F   UNL     1       1.232   2.001  19.638  0.00  0.00    +0.000 F 
ATOM      9  H   UNL     1       5.139   5.482  17.183  0.00  0.00    +0.000 HD
ENDROOT
BRANCH   1  11
ATOM     10  C   UNL     1       1.714   5.639  20.856  0.00  0.00    +0.000 C 
ATOM     11  N   UNL     1       2.430   4.386  20.681  0.00  0.00    +0.000 N 
ATOM     12  C   UNL     1       2.371   3.403  21.750  0.00  0.00    +0.000 C 
ENDBRANCH   1  11
BRANCH   4  13
ATOM     13  C   UNL     1       5.299   4.227  15.497  0.00  0.00    +0.000 C 
BRANCH  13  14
ATOM     14  C   UNL     1       6.797   4.160  15.812  0.00  0.00    +0.000 C 
BRANCH  14  15
ATOM     15  C   UNL     1       7.203   5.207  16.820  0.00  0.00    +0.000 A 
ATOM     16  C   UNL     1       7.564   4.842  18.117  0.00  0.00    +0.000 A 
ATOM     17  C   UNL     1       7.960   5.834  19.011  0.00  0.00    +0.000 A 
ATOM     18  C   UNL     1       7.989   7.157  18.592  0.00  0.00    +0.000 A 
ATOM     19  C   UNL     1       7.618   7.436  17.289  0.00  0.00    +0.000 A 
ATOM     20  N   UNL     1       7.227   6.495  16.400  0.00  0.00    +0.000 NA
ENDBRANCH  14  15
ENDBRANCH  13  14
ENDBRANCH   4  13
TORSDOF 4
ENDMDL
MODEL 7
REMARK VINA RESULT:      -6.7      2.845      6.291
REMARK  Name = 
REMARK  6 active torsions:
REMARK  status: ('A' for Active; 'I' for Inactive)
REMARK    1  A    between atoms: C_1  and  N_2
REMARK    2  A    between atoms: N_2  and  C_3
REMARK    3  A    between atoms: N_2  and  C_4
REMARK    4  A    between atoms: N_7  and  C_8
REMARK    5  A    between atoms: C_8  and  C_9
REMARK    6  A    between atoms: C_9  and  C_10
REMARK                            x       y       z     vdW  Elec       q    Type
REMARK                         _______ _______ _______ _____ _____    ______ ____
ROOT
ATOM      1  C   UNL     1       2.869   4.001  19.346  0.00  0.00    +0.000 A 
ATOM      2  N   UNL     1       4.167   4.180  19.699  0.00  0.00    +0.000 NA
ATOM      3  C   UNL     1       4.892   5.134  19.080  0.00  0.00    +0.000 A 
ATOM      4  N   UNL     1       6.218   5.245  19.463  0.00  0.00    +0.000 N 
ATOM      5  N   UNL     1       4.402   5.946  18.133  0.00  0.00    +0.000 NA
ATOM      6  C   UNL     1       3.115   5.766  17.798  0.00  0.00    +0.000 A 
ATOM      7  C   UNL     1       2.312   4.806  18.363  0.00  0.00    +0.000 A 
ATOM      8  F   UNL     1       1.035   4.710  17.967  0.00  0.00    +0.000 F 
ATOM      9  H   UNL     1       6.476   4.361  19.886  0.00  0.00    +0.000 HD
ENDROOT
BRANCH   1  11
ATOM     10  C   UNL     1       1.554   1.921  19.260  0.00  0.00    +0.000 C 
ATOM     11  N   UNL     1       2.119   3.027  20.017  0.00  0.00    +0.000 N 
ATOM     12  C   UNL     1       2.403   2.823  21.427  0.00  0.00    +0.000 C 
ENDBRANCH   1  11
BRANCH   4  13
ATOM     13  C   UNL     1       7.144   5.753  18.452  0.00  0.00    +0.000 C 
BRANCH  13  14
ATOM     14  C   UNL     1       7.756   4.612  17.633  0.00  0.00    +0.000 C 
BRANCH  14  15
ATOM     15  C   UNL     1       7.096   4.478  16.282  0.00  0.00    +0.000 A 
ATOM     16  C   UNL     1       5.964   3.680  16.122  0.00  0.00    +0.000 A 
ATOM     17  C   UNL     1       5.366   3.604  14.865  0.00  0.00    +0.000 A 
ATOM     18  C   UNL     1       5.906   4.324  13.809  0.00  0.00    +0.000 A 
ATOM     19  C   UNL     1       7.030   5.093  14.052  0.00  0.00    +0.000 A 
ATOM     20  N   UNL     1       7.633   5.184  15.258  0.00  0.00    +0.000 NA
ENDBRANCH  14  15
ENDBRANCH  13  14
ENDBRANCH   4  13
TORSDOF 4
ENDMDL
MODEL 8
REMARK VINA RESULT:      -6.6      0.718      1.171
REMARK  Name = 
REMARK  6 active torsions:
REMARK  status: ('A' for Active; 'I' for Inactive)
REMARK    1  A    between atoms: C_1  and  N_2
REMARK    2  A    between atoms: N_2  and  C_3
REMARK    3  A    between atoms: N_2  and  C_4
REMARK    4  A    between atoms: N_7  and  C_8
REMARK    5  A    between atoms: C_8  and  C_9
REMARK    6  A    between atoms: C_9  and  C_10
REMARK                            x       y       z     vdW  Elec       q    Type
REMARK                         _______ _______ _______ _____ _____    ______ ____
ROOT
ATOM      1  C   UNL     1       6.293   3.682  12.647  0.00  0.00    +0.000 A 
ATOM      2  N   UNL     1       6.005   3.543  13.966  0.00  0.00    +0.000 NA
ATOM      3  C   UNL     1       6.640   4.324  14.864  0.00  0.00    +0.000 A 
ATOM      4  N   UNL     1       6.326   4.112  16.196  0.00  0.00    +0.000 N 
ATOM      5  N   UNL     1       7.542   5.260  14.534  0.00  0.00    +0.000 NA
ATOM      6  C   UNL     1       7.812   5.394  13.226  0.00  0.00    +0.000 A 
ATOM      7  C   UNL     1       7.227   4.627  12.249  0.00  0.00    +0.000 A 
ATOM      8  F   UNL     1       7.557   4.844  10.968  0.00  0.00    +0.000 F 
ATOM      9  H   UNL     1       5.938   3.178  16.260  0.00  0.00    +0.000 HD
ENDROOT
BRANCH   1  11
ATOM     10  C   UNL     1       6.039   1.514  11.509  0.00  0.00    +0.000 C 
ATOM     11  N   UNL     1       5.606   2.886  11.723  0.00  0.00    +0.000 N 
ATOM     12  C   UNL     1       4.217   3.219  11.461  0.00  0.00    +0.000 C 
ENDBRANCH   1  11
BRANCH   4  13
ATOM     13  C   UNL     1       7.373   4.426  17.167  0.00  0.00    +0.000 C 
BRANCH  13  14
ATOM     14  C   UNL     1       6.902   5.482  18.172  0.00  0.00    +0.000 C 
BRANCH  14  15
ATOM     15  C   UNL     1       5.403   5.455  18.348  0.00  0.00    +0.000 A 
ATOM     16  C   UNL     1       4.610   6.479  17.831  0.00  0.00    +0.000 A 
ATOM     17  C   UNL     1       3.228   6.406  17.988  0.00  0.00    +0.000 A 
ATOM     18  C   UNL     1       2.674   5.318  18.650  0.00  0.00    +0.000 A 
ATOM     19  C   UNL     1       3.530   4.344  19.132  0.00  0.00    +0.000 A 
ATOM     20  N   UNL     1       4.875   4.390  18.996  0.00  0.00    +0.000 NA
ENDBRANCH  14  15
ENDBRANCH  13  14
ENDBRANCH   4  13
TORSDOF 4
ENDMDL
MODEL 9
REMARK VINA RESULT:      -6.6      3.164      7.242
REMARK  Name = 
REMARK  6 active torsions:
REMARK  status: ('A' for Active; 'I' for Inactive)
REMARK    1  A    between atoms: C_1  and  N_2
REMARK    2  A    between atoms: N_2  and  C_3
REMARK    3  A    between atoms: N_2  and  C_4
REMARK    4  A    between atoms: N_7  and  C_8
REMARK    5  A    between atoms: C_8  and  C_9
REMARK    6  A    between atoms: C_9  and  C_10
REMARK                            x       y       z     vdW  Elec       q    Type
REMARK                         _______ _______ _______ _____ _____    ______ ____
ROOT
ATOM      1  C   UNL     1       2.593   3.923  19.802  0.00  0.00    +0.000 A 
ATOM      2  N   UNL     1       3.707   3.728  19.052  0.00  0.00    +0.000 NA
ATOM      3  C   UNL     1       4.377   4.799  18.579  0.00  0.00    +0.000 A 
ATOM      4  N   UNL     1       5.487   4.534  17.794  0.00  0.00    +0.000 N 
ATOM      5  N   UNL     1       4.020   6.069  18.820  0.00  0.00    +0.000 NA
ATOM      6  C   UNL     1       2.922   6.249  19.570  0.00  0.00    +0.000 A 
ATOM      7  C   UNL     1       2.170   5.216  20.073  0.00  0.00    +0.000 A 
ATOM      8  F   UNL     1       1.094   5.498  20.820  0.00  0.00    +0.000 F 
ATOM      9  H   UNL     1       5.379   3.589  17.444  0.00  0.00    +0.000 HD
ENDROOT
BRANCH   1  11
ATOM     10  C   UNL     1       1.923   2.568  21.746  0.00  0.00    +0.000 C 
ATOM     11  N   UNL     1       1.923   2.804  20.311  0.00  0.00    +0.000 N 
ATOM     12  C   UNL     1       0.821   2.275  19.525  0.00  0.00    +0.000 C 
ENDBRANCH   1  11
BRANCH   4  13
ATOM     13  C   UNL     1       5.828   5.542  16.791  0.00  0.00    +0.000 C 
BRANCH  13  14
ATOM     14  C   UNL     1       7.202   5.268  16.171  0.00  0.00    +0.000 C 
BRANCH  14  15
ATOM     15  C   UNL     1       7.088   4.851  14.725  0.00  0.00    +0.000 A 
ATOM     16  C   UNL     1       6.122   3.927  14.327  0.00  0.00    +0.000 A 
ATOM     17  C   UNL     1       6.029   3.588  12.979  0.00  0.00    +0.000 A 
ATOM     18  C   UNL     1       6.894   4.178  12.067  0.00  0.00    +0.000 A 
ATOM     19  C   UNL     1       7.822   5.087  12.543  0.00  0.00    +0.000 A 
ATOM     20  N   UNL     1       7.937   5.433  13.844  0.00  0.00    +0.000 NA
ENDBRANCH  14  15
ENDBRANCH  13  14
ENDBRANCH   4  13
TORSDOF 4
ENDMDL
