MODEL 1
REMARK VINA RESULT:      -7.7      0.000      0.000
REMARK  Name = 
REMARK  5 active torsions:
REMARK  status: ('A' for Active; 'I' for Inactive)
REMARK    1  A    between atoms: C_1  and  C_2
REMARK    2  A    between atoms: C_5  and  C_6
REMARK    3  A    between atoms: C_7  and  C_8
REMARK    4  A    between atoms: C_8  and  N_9
REMARK    5  A    between atoms: C_13  and  C_14
REMARK                            x       y       z     vdW  Elec       q    Type
REMARK                         _______ _______ _______ _____ _____    ______ ____
ROOT
ATOM      1  N   UNL     1       3.767   4.460  17.057  0.00  0.00    +0.000 NA
ATOM      2  C   UNL     1       3.392   5.555  17.958  0.00  0.00    +0.000 C 
ATOM      3  C   UNL     1       2.326   5.031  18.902  0.00  0.00    +0.000 C 
ATOM      4  C   UNL     1       2.842   4.375  20.170  0.00  0.00    +0.000 C 
ATOM      5  C   UNL     1       2.166   3.015  20.236  0.00  0.00    +0.000 C 
ATOM      6  C   UNL     1       1.352   2.821  21.507  0.00  0.00    +0.000 C 
ATOM      7  O   UNL     1       1.314   2.896  19.090  0.00  0.00    +0.000 OA
ATOM      8  C   UNL     1       1.656   3.911  18.143  0.00  0.00    +0.000 C 
ATOM      9  C   UNL     1       2.691   3.452  17.109  0.00  0.00    +0.000 C 
ENDROOT
BRANCH   1  10
ATOM     10  C   UNL     1       5.108   3.917  17.286  0.00  0.00    +0.000 C 
BRANCH  10  17
ATOM     11  C   UNL     1       5.838   3.819  14.020  0.00  0.00    +0.000 C 
ATOM     12  C   UNL     1       6.411   4.660  15.098  0.00  0.00    +0.000 A 
ATOM     13  N   UNL     1       7.361   5.545  14.773  0.00  0.00    +0.000 NA
ATOM     14  O   UNL     1       7.719   6.165  15.946  0.00  0.00    +0.000 OA
ATOM     15  C   UNL     1       6.986   5.661  16.970  0.00  0.00    +0.000 A 
ATOM     16  C   UNL     1       7.281   6.231  18.295  0.00  0.00    +0.000 C 
ATOM     17  C   UNL     1       6.121   4.689  16.497  0.00  0.00    +0.000 A 
ENDBRANCH  10  17
ENDBRANCH   1  10
TORSDOF 2
ENDMDL
MODEL 2
REMARK VINA RESULT:      -7.6      0.511      1.974
REMARK  Name = 
REMARK  5 active torsions:
REMARK  status: ('A' for Active; 'I' for Inactive)
REMARK    1  A    between atoms: C_1  and  C_2
REMARK    2  A    between atoms: C_5  and  C_6
REMARK    3  A    between atoms: C_7  and  C_8
REMARK    4  A    between atoms: C_8  and  N_9
REMARK    5  A    between atoms: C_13  and  C_14
REMARK                            x       y       z     vdW  Elec       q    Type
REMARK                         _______ _______ _______ _____ _____    ______ ____
ROOT
ATOM      1  N   UNL     1       3.640   4.284  17.034  0.00  0.00    +0.000 NA
ATOM      2  C   UNL     1       3.292   5.399  17.921  0.00  0.00    +0.000 C 
ATOM      3  C   UNL     1       2.267   4.893  18.918  0.00  0.00    +0.000 C 
ATOM      4  C   UNL     1       2.836   4.272  20.182  0.00  0.00    +0.000 C 
ATOM      5  C   UNL     1       2.171   2.910  20.307  0.00  0.00    +0.000 C 
ATOM      6  C   UNL     1       1.409   2.743  21.613  0.00  0.00    +0.000 C 
ATOM      7  O   UNL     1       1.278   2.757  19.198  0.00  0.00    +0.000 OA
ATOM      8  C   UNL     1       1.576   3.749  18.213  0.00  0.00    +0.000 C 
ATOM      9  C   UNL     1       2.574   3.271  17.152  0.00  0.00    +0.000 C 
ENDROOT
BRANCH   1  10
ATOM     10  C   UNL     1       4.992   3.755  17.225  0.00  0.00    +0.000 C 
BRANCH  10  17
ATOM     11  C   UNL     1       7.086   6.028  18.514  0.00  0.00    +0.000 C 
ATOM     12  C   UNL     1       6.903   5.593  17.110  0.00  0.00    +0.000 A 
ATOM     13  N   UNL     1       7.677   6.148  16.169  0.00  0.00    +0.000 NA
ATOM     14  O   UNL     1       7.289   5.583  14.977  0.00  0.00    +0.000 OA
ATOM     15  C   UNL     1       6.293   4.689  15.199  0.00  0.00    +0.000 A 
ATOM     16  C   UNL     1       5.771   4.017  13.997  0.00  0.00    +0.000 C 
ATOM     17  C   UNL     1       5.995   4.641  16.550  0.00  0.00    +0.000 A 
ENDBRANCH  10  17
ENDBRANCH   1  10
TORSDOF 2
ENDMDL
MODEL 3
REMARK VINA RESULT:      -7.2      1.254      1.459
REMARK  Name = 
REMARK  5 active torsions:
REMARK  status: ('A' for Active; 'I' for Inactive)
REMARK    1  A    between atoms: C_1  and  C_2
REMARK    2  A    between atoms: C_5  and  C_6
REMARK    3  A    between atoms: C_7  and  C_8
REMARK    4  A    between atoms: C_8  and  N_9
REMARK    5  A    between atoms: C_13  and  C_14
REMARK                            x       y       z     vdW  Elec       q    Type
REMARK                         _______ _______ _______ _____ _____    ______ ____
ROOT
ATOM      1  N   UNL     1       3.425   3.853  16.984  0.00  0.00    +0.000 NA
ATOM      2  C   UNL     1       1.970   3.976  17.129  0.00  0.00    +0.000 C 
ATOM      3  C   UNL     1       1.570   3.245  18.396  0.00  0.00    +0.000 C 
ATOM      4  C   UNL     1       1.608   4.073  19.668  0.00  0.00    +0.000 C 
ATOM      5  C   UNL     1       2.447   3.276  20.653  0.00  0.00    +0.000 C 
ATOM      6  C   UNL     1       1.695   2.940  21.933  0.00  0.00    +0.000 C 
ATOM      7  O   UNL     1       2.860   2.070  20.000  0.00  0.00    +0.000 OA
ATOM      8  C   UNL     1       2.642   2.200  18.593  0.00  0.00    +0.000 C 
ATOM      9  C   UNL     1       3.864   2.731  17.836  0.00  0.00    +0.000 C 
ENDROOT
BRANCH   1  10
ATOM     10  C   UNL     1       4.165   5.097  17.204  0.00  0.00    +0.000 C 
BRANCH  10  17
ATOM     11  C   UNL     1       5.809   4.214  14.423  0.00  0.00    +0.000 C 
ATOM     12  C   UNL     1       6.327   4.523  15.777  0.00  0.00    +0.000 A 
ATOM     13  N   UNL     1       7.650   4.473  15.975  0.00  0.00    +0.000 NA
ATOM     14  O   UNL     1       7.847   4.782  17.299  0.00  0.00    +0.000 OA
ATOM     15  C   UNL     1       6.652   5.023  17.894  0.00  0.00    +0.000 A 
ATOM     16  C   UNL     1       6.718   5.354  19.327  0.00  0.00    +0.000 C 
ATOM     17  C   UNL     1       5.629   4.877  16.973  0.00  0.00    +0.000 A 
ENDBRANCH  10  17
ENDBRANCH   1  10
TORSDOF 2
ENDMDL
MODEL 4
REMARK VINA RESULT:      -7.1      1.325      2.413
REMARK  Name = 
REMARK  5 active torsions:
REMARK  status: ('A' for Active; 'I' for Inactive)
REMARK    1  A    between atoms: C_1  and  C_2
REMARK    2  A    between atoms: C_5  and  C_6
REMARK    3  A    between atoms: C_7  and  C_8
REMARK    4  A    between atoms: C_8  and  N_9
REMARK    5  A    between atoms: C_13  and  C_14
REMARK                            x       y       z     vdW  Elec       q    Type
REMARK                         _______ _______ _______ _____ _____    ______ ____
ROOT
ATOM      1  N   UNL     1       3.323   3.981  17.075  0.00  0.00    +0.000 NA
ATOM      2  C   UNL     1       1.873   4.118  17.249  0.00  0.00    +0.000 C 
ATOM      3  C   UNL     1       1.473   3.299  18.461  0.00  0.00    +0.000 C 
ATOM      4  C   UNL     1       1.542   4.025  19.792  0.00  0.00    +0.000 C 
ATOM      5  C   UNL     1       2.378   3.140  20.702  0.00  0.00    +0.000 C 
ATOM      6  C   UNL     1       1.635   2.719  21.962  0.00  0.00    +0.000 C 
ATOM      7  O   UNL     1       2.760   1.981  19.952  0.00  0.00    +0.000 OA
ATOM      8  C   UNL     1       2.528   2.223  18.563  0.00  0.00    +0.000 C 
ATOM      9  C   UNL     1       3.751   2.790  17.833  0.00  0.00    +0.000 C 
ENDROOT
BRANCH   1  10
ATOM     10  C   UNL     1       4.088   5.192  17.381  0.00  0.00    +0.000 C 
BRANCH  10  17
ATOM     11  C   UNL     1       6.767   5.376  19.381  0.00  0.00    +0.000 C 
ATOM     12  C   UNL     1       6.676   5.034  17.942  0.00  0.00    +0.000 A 
ATOM     13  N   UNL     1       7.806   4.729  17.292  0.00  0.00    +0.000 NA
ATOM     14  O   UNL     1       7.439   4.475  15.992  0.00  0.00    +0.000 OA
ATOM     15  C   UNL     1       6.096   4.621  15.861  0.00  0.00    +0.000 A 
ATOM     16  C   UNL     1       5.568   4.391  14.506  0.00  0.00    +0.000 C 
ATOM     17  C   UNL     1       5.540   4.978  17.078  0.00  0.00    +0.000 A 
ENDBRANCH  10  17
ENDBRANCH   1  10
TORSDOF 2
ENDMDL
MODEL 5
REMARK VINA RESULT:      -7.0      1.419      2.001
REMARK  Name = 
REMARK  5 active torsions:
REMARK  status: ('A' for Active; 'I' for Inactive)
REMARK    1  A    between atoms: C_1  and  C_2
REMARK    2  A    between atoms: C_5  and  C_6
REMARK    3  A    between atoms: C_7  and  C_8
REMARK    4  A    between atoms: C_8  and  N_9
REMARK    5  A    between atoms: C_13  and  C_14
REMARK                            x       y       z     vdW  Elec       q    Type
REMARK                         _______ _______ _______ _____ _____    ______ ____
ROOT
ATOM      1  N   UNL     1       4.601   5.786  18.790  0.00  0.00    +0.000 NA
ATOM      2  C   UNL     1       5.059   4.395  18.874  0.00  0.00    +0.000 C 
ATOM      3  C   UNL     1       3.885   3.549  19.329  0.00  0.00    +0.000 C 
ATOM      4  C   UNL     1       2.992   3.022  18.221  0.00  0.00    +0.000 C 
ATOM      5  C   UNL     1       1.577   3.424  18.606  0.00  0.00    +0.000 C 
ATOM      6  C   UNL     1       0.639   2.233  18.738  0.00  0.00    +0.000 C 
ATOM      7  O   UNL     1       1.647   4.129  19.850  0.00  0.00    +0.000 OA
ATOM      8  C   UNL     1       3.004   4.499  20.105  0.00  0.00    +0.000 C 
ATOM      9  C   UNL     1       3.361   5.896  19.582  0.00  0.00    +0.000 C 
ENDROOT
BRANCH   1  10
ATOM     10  C   UNL     1       4.487   6.306  17.425  0.00  0.00    +0.000 C 
BRANCH  10  17
ATOM     11  C   UNL     1       5.227   4.162  14.962  0.00  0.00    +0.000 C 
ATOM     12  C   UNL     1       6.072   5.190  15.613  0.00  0.00    +0.000 A 
ATOM     13  N   UNL     1       7.331   5.342  15.182  0.00  0.00    +0.000 NA
ATOM     14  O   UNL     1       7.881   6.333  15.958  0.00  0.00    +0.000 OA
ATOM     15  C   UNL     1       6.959   6.780  16.848  0.00  0.00    +0.000 A 
ATOM     16  C   UNL     1       7.425   7.841  17.757  0.00  0.00    +0.000 C 
ATOM     17  C   UNL     1       5.770   6.091  16.681  0.00  0.00    +0.000 A 
ENDBRANCH  10  17
ENDBRANCH   1  10
TORSDOF 2
ENDMDL
MODEL 6
REMARK VINA RESULT:      -6.9      1.204      1.505
REMARK  Name = 
REMARK  5 active torsions:
REMARK  status: ('A' for Active; 'I' for Inactive)
REMARK    1  A    between atoms: C_1  and  C_2
REMARK    2  A    between atoms: C_5  and  C_6
REMARK    3  A    between atoms: C_7  and  C_8
REMARK    4  A    between atoms: C_8  and  N_9
REMARK    5  A    between atoms: C_13  and  C_14
REMARK                            x       y       z     vdW  Elec       q    Type
REMARK                         _______ _______ _______ _____ _____    ______ ____
ROOT
ATOM      1  N   UNL     1       4.408   5.616  18.530  0.00  0.00    +0.000 NA
ATOM      2  C   UNL     1       3.749   5.538  19.838  0.00  0.00    +0.000 C 
ATOM      3  C   UNL     1       2.407   4.861  19.639  0.00  0.00    +0.000 C 
ATOM      4  C   UNL     1       2.418   3.346  19.731  0.00  0.00    +0.000 C 
ATOM      5  C   UNL     1       1.742   2.851  18.463  0.00  0.00    +0.000 C 
ATOM      6  C   UNL     1       0.521   1.987  18.743  0.00  0.00    +0.000 C 
ATOM      7  O   UNL     1       1.362   3.998  17.695  0.00  0.00    +0.000 OA
ATOM      8  C   UNL     1       2.039   5.150  18.203  0.00  0.00    +0.000 C 
ATOM      9  C   UNL     1       3.371   5.431  17.497  0.00  0.00    +0.000 C 
ENDROOT
BRANCH   1  10
ATOM     10  C   UNL     1       5.566   4.732  18.379  0.00  0.00    +0.000 C 
BRANCH  10  17
ATOM     11  C   UNL     1       5.801   3.552  15.254  0.00  0.00    +0.000 C 
ATOM     12  C   UNL     1       6.497   4.693  15.895  0.00  0.00    +0.000 A 
ATOM     13  N   UNL     1       7.353   5.409  15.155  0.00  0.00    +0.000 NA
ATOM     14  O   UNL     1       7.859   6.376  15.989  0.00  0.00    +0.000 OA
ATOM     15  C   UNL     1       7.308   6.248  17.222  0.00  0.00    +0.000 A 
ATOM     16  C   UNL     1       7.776   7.219  18.225  0.00  0.00    +0.000 C 
ATOM     17  C   UNL     1       6.419   5.186  17.234  0.00  0.00    +0.000 A 
ENDBRANCH  10  17
ENDBRANCH   1  10
TORSDOF 2
ENDMDL
MODEL 7
REMARK VINA RESULT:      -6.9      1.561      2.316
REMARK  Name = 
REMARK  5 active torsions:
REMARK  status: ('A' for Active; 'I' for Inactive)
REMARK    1  A    between atoms: C_1  and  C_2
REMARK    2  A    between atoms: C_5  and  C_6
REMARK    3  A    between atoms: C_7  and  C_8
REMARK    4  A    between atoms: C_8  and  N_9
REMARK    5  A    between atoms: C_13  and  C_14
REMARK                            x       y       z     vdW  Elec       q    Type
REMARK                         _______ _______ _______ _____ _____    ______ ____
ROOT
ATOM      1  N   UNL     1       3.129   3.522  17.129  0.00  0.00    +0.000 NA
ATOM      2  C   UNL     1       2.084   4.452  17.570  0.00  0.00    +0.000 C 
ATOM      3  C   UNL     1       1.350   3.805  18.729  0.00  0.00    +0.000 C 
ATOM      4  C   UNL     1       1.941   4.064  20.104  0.00  0.00    +0.000 C 
ATOM      5  C   UNL     1       2.117   2.695  20.741  0.00  0.00    +0.000 C 
ATOM      6  C   UNL     1       1.360   2.553  22.054  0.00  0.00    +0.000 C 
ATOM      7  O   UNL     1       1.656   1.715  19.805  0.00  0.00    +0.000 OA
ATOM      8  C   UNL     1       1.527   2.320  18.516  0.00  0.00    +0.000 C 
ATOM      9  C   UNL     1       2.787   2.186  17.654  0.00  0.00    +0.000 C 
ENDROOT
BRANCH   1  10
ATOM     10  C   UNL     1       4.495   3.953  17.435  0.00  0.00    +0.000 C 
BRANCH  10  17
ATOM     11  C   UNL     1       4.051   7.270  17.560  0.00  0.00    +0.000 C 
ATOM     12  C   UNL     1       4.754   6.442  16.552  0.00  0.00    +0.000 A 
ATOM     13  N   UNL     1       5.333   7.062  15.516  0.00  0.00    +0.000 NA
ATOM     14  O   UNL     1       5.887   6.070  14.742  0.00  0.00    +0.000 OA
ATOM     15  C   UNL     1       5.648   4.862  15.310  0.00  0.00    +0.000 A 
ATOM     16  C   UNL     1       6.178   3.703  14.572  0.00  0.00    +0.000 C 
ATOM     17  C   UNL     1       4.926   5.025  16.480  0.00  0.00    +0.000 A 
ENDBRANCH  10  17
ENDBRANCH   1  10
TORSDOF 2
ENDMDL
MODEL 8
REMARK VINA RESULT:      -6.8      2.066      6.142
REMARK  Name = 
REMARK  5 active torsions:
REMARK  status: ('A' for Active; 'I' for Inactive)
REMARK    1  A    between atoms: C_1  and  C_2
REMARK    2  A    between atoms: C_5  and  C_6
REMARK    3  A    between atoms: C_7  and  C_8
REMARK    4  A    between atoms: C_8  and  N_9
REMARK    5  A    between atoms: C_13  and  C_14
REMARK                            x       y       z     vdW  Elec       q    Type
REMARK                         _______ _______ _______ _____ _____    ______ ____
ROOT
ATOM      1  N   UNL     1       4.783   5.267  18.645  0.00  0.00    +0.000 NA
ATOM      2  C   UNL     1       4.610   6.437  17.777  0.00  0.00    +0.000 C 
ATOM      3  C   UNL     1       5.694   6.389  16.717  0.00  0.00    +0.000 C 
ATOM      4  C   UNL     1       5.348   5.606  15.463  0.00  0.00    +0.000 C 
ATOM      5  C   UNL     1       6.489   4.622  15.264  0.00  0.00    +0.000 C 
ATOM      6  C   UNL     1       7.181   4.784  13.918  0.00  0.00    +0.000 C 
ATOM      7  O   UNL     1       7.431   4.826  16.324  0.00  0.00    +0.000 OA
ATOM      8  C   UNL     1       6.820   5.609  17.352  0.00  0.00    +0.000 C 
ATOM      9  C   UNL     1       6.155   4.762  18.444  0.00  0.00    +0.000 C 
ENDROOT
BRANCH   1  10
ATOM     10  C   UNL     1       3.743   4.246  18.502  0.00  0.00    +0.000 C 
BRANCH  10  17
ATOM     11  C   UNL     1       1.544   5.536  20.673  0.00  0.00    +0.000 C 
ATOM     12  C   UNL     1       2.353   4.298  20.762  0.00  0.00    +0.000 A 
ATOM     13  N   UNL     1       2.215   3.527  21.848  0.00  0.00    +0.000 NA
ATOM     14  O   UNL     1       3.080   2.473  21.678  0.00  0.00    +0.000 OA
ATOM     15  C   UNL     1       3.731   2.604  20.495  0.00  0.00    +0.000 A 
ATOM     16  C   UNL     1       4.705   1.542  20.192  0.00  0.00    +0.000 C 
ATOM     17  C   UNL     1       3.311   3.755  19.850  0.00  0.00    +0.000 A 
ENDBRANCH  10  17
ENDBRANCH   1  10
TORSDOF 2
ENDMDL
MODEL 9
REMARK VINA RESULT:      -6.8      1.549      1.679
REMARK  Name = 
REMARK  5 active torsions:
REMARK  status: ('A' for Active; 'I' for Inactive)
REMARK    1  A    between atoms: C_1  and  C_2
REMARK    2  A    between atoms: C_5  and  C_6
REMARK    3  A    between atoms: C_7  and  C_8
REMARK    4  A    between atoms: C_8  and  N_9
REMARK    5  A    between atoms: C_13  and  C_14
REMARK                            x       y       z     vdW  Elec       q    Type
REMARK                         _______ _______ _______ _____ _____    ______ ____
ROOT
ATOM      1  N   UNL     1       3.155   3.539  17.190  0.00  0.00    +0.000 NA
ATOM      2  C   UNL     1       2.051   4.425  17.575  0.00  0.00    +0.000 C 
ATOM      3  C   UNL     1       1.307   3.764  18.720  0.00  0.00    +0.000 C 
ATOM      4  C   UNL     1       1.835   4.077  20.109  0.00  0.00    +0.000 C 
ATOM      5  C   UNL     1       2.053   2.730  20.780  0.00  0.00    +0.000 C 
ATOM      6  C   UNL     1       1.257   2.575  22.068  0.00  0.00    +0.000 C 
ATOM      7  O   UNL     1       1.674   1.711  19.847  0.00  0.00    +0.000 OA
ATOM      8  C   UNL     1       1.563   2.286  18.543  0.00  0.00    +0.000 C 
ATOM      9  C   UNL     1       2.859   2.198  17.728  0.00  0.00    +0.000 C 
ENDROOT
BRANCH   1  10
ATOM     10  C   UNL     1       4.486   4.042  17.535  0.00  0.00    +0.000 C 
BRANCH  10  17
ATOM     11  C   UNL     1       6.180   3.731  14.663  0.00  0.00    +0.000 C 
ATOM     12  C   UNL     1       5.621   4.941  15.311  0.00  0.00    +0.000 A 
ATOM     13  N   UNL     1       5.773   6.118  14.692  0.00  0.00    +0.000 NA
ATOM     14  O   UNL     1       5.185   7.055  15.508  0.00  0.00    +0.000 OA
ATOM     15  C   UNL     1       4.677   6.445  16.609  0.00  0.00    +0.000 A 
ATOM     16  C   UNL     1       4.027   7.341  17.581  0.00  0.00    +0.000 C 
ATOM     17  C   UNL     1       4.919   5.083  16.548  0.00  0.00    +0.000 A 
ENDBRANCH  10  17
ENDBRANCH   1  10
TORSDOF 2
ENDMDL
