MODEL 1
REMARK VINA RESULT:      -7.5      0.000      0.000
REMARK  Name = 
REMARK  9 active torsions:
REMARK  status: ('A' for Active; 'I' for Inactive)
REMARK    1  A    between atoms: C_1  and  C_2
REMARK    2  A    between atoms: C_4  and  C_5
REMARK    3  A    between atoms: C_12  and  C_13
REMARK    4  A    between atoms: N_15  and  C_16
REMARK    5  A    between atoms: C_16  and  C_17
REMARK    6  A    between atoms: C_17  and  C_18
REMARK    7  A    between atoms: C_18  and  N_19
REMARK    8  A    between atoms: C_21  and  C_22
REMARK    9  A    between atoms: C_24  and  C_25
REMARK                            x       y       z     vdW  Elec       q    Type
REMARK                         _______ _______ _______ _____ _____    ______ ____
ROOT
ATOM      1  C   UNL     1       0.298  13.583  20.026  0.00  0.00    +0.000 C 
ATOM      2  C   UNL     1       0.502  12.115  20.267  0.00  0.00    +0.000 A 
ATOM      3  C   UNL     1       0.098  11.512  21.461  0.00  0.00    +0.000 A 
ATOM      4  C   UNL     1       0.278  10.131  21.695  0.00  0.00    +0.000 A 
ATOM      5  C   UNL     1      -0.170   9.529  22.996  0.00  0.00    +0.000 C 
ATOM      6  C   UNL     1       0.875   9.353  20.672  0.00  0.00    +0.000 A 
ATOM      7  N   UNL     1       1.117   7.987  20.713  0.00  0.00    +0.000 NA
ATOM      8  C   UNL     1       1.647   7.554  19.591  0.00  0.00    +0.000 A 
ATOM      9  N   UNL     1       1.960   6.247  19.356  0.00  0.00    +0.000 N 
ATOM     10  C   UNL     1       2.153   5.687  18.027  0.00  0.00    +0.000 C 
ATOM     11  C   UNL     1       1.095   4.609  17.776  0.00  0.00    +0.000 C 
ATOM     12  C   UNL     1       1.104   3.544  18.881  0.00  0.00    +0.000 C 
ATOM     13  C   UNL     1       0.946   4.216  20.256  0.00  0.00    +0.000 C 
ATOM     14  C   UNL     1       1.996   5.306  20.473  0.00  0.00    +0.000 C 
ATOM     15  S   UNL     1       1.949   8.807  18.440  0.00  0.00    +0.000 S 
ATOM     16  C   UNL     1       1.270   9.972  19.491  0.00  0.00    +0.000 A 
ATOM     17  C   UNL     1       1.102  11.345  19.267  0.00  0.00    +0.000 A 
ENDROOT
BRANCH  12  18
ATOM     18  C   UNL     1       2.365   2.683  18.852  0.00  0.00    +0.000 C 
ATOM     19  O   UNL     1       2.688   2.005  17.881  0.00  0.00    +0.000 OA
ATOM     20  N   UNL     1       3.144   2.759  19.983  0.00  0.00    +0.000 N 
ATOM     21  H   UNL     1       2.983   3.500  20.654  0.00  0.00    +0.000 HD
BRANCH  20  22
ATOM     22  C   UNL     1       4.423   2.081  20.041  0.00  0.00    +0.000 C 
BRANCH  22  23
ATOM     23  C   UNL     1       5.581   3.015  19.691  0.00  0.00    +0.000 C 
BRANCH  23  24
ATOM     24  C   UNL     1       5.177   4.495  19.679  0.00  0.00    +0.000 C 
BRANCH  24  25
ATOM     25  N   UNL     1       5.657   5.243  18.501  0.00  0.00    +0.000 NA
ATOM     26  C   UNL     1       7.100   5.522  18.597  0.00  0.00    +0.000 C 
ATOM     27  C   UNL     1       7.624   6.323  17.396  0.00  0.00    +0.000 C 
ATOM     28  C   UNL     1       7.068   7.751  17.382  0.00  0.00    +0.000 C 
ATOM     29  C   UNL     1       7.315   5.568  16.100  0.00  0.00    +0.000 C 
ATOM     30  C   UNL     1       5.829   5.206  15.998  0.00  0.00    +0.000 C 
ATOM     31  C   UNL     1       5.577   4.337  14.765  0.00  0.00    +0.000 C 
ATOM     32  C   UNL     1       5.350   4.487  17.272  0.00  0.00    +0.000 C 
ENDBRANCH  24  25
ENDBRANCH  23  24
ENDBRANCH  22  23
ENDBRANCH  20  22
ENDBRANCH  12  18
TORSDOF 5
ENDMDL
MODEL 2
REMARK VINA RESULT:      -7.2      0.549      1.555
REMARK  Name = 
REMARK  9 active torsions:
REMARK  status: ('A' for Active; 'I' for Inactive)
REMARK    1  A    between atoms: C_1  and  C_2
REMARK    2  A    between atoms: C_4  and  C_5
REMARK    3  A    between atoms: C_12  and  C_13
REMARK    4  A    between atoms: N_15  and  C_16
REMARK    5  A    between atoms: C_16  and  C_17
REMARK    6  A    between atoms: C_17  and  C_18
REMARK    7  A    between atoms: C_18  and  N_19
REMARK    8  A    between atoms: C_21  and  C_22
REMARK    9  A    between atoms: C_24  and  C_25
REMARK                            x       y       z     vdW  Elec       q    Type
REMARK                         _______ _______ _______ _____ _____    ______ ____
ROOT
ATOM      1  C   UNL     1       0.270  13.450  20.127  0.00  0.00    +0.000 C 
ATOM      2  C   UNL     1       0.483  11.980  20.343  0.00  0.00    +0.000 A 
ATOM      3  C   UNL     1       0.081  11.354  21.526  0.00  0.00    +0.000 A 
ATOM      4  C   UNL     1       0.269   9.970  21.737  0.00  0.00    +0.000 A 
ATOM      5  C   UNL     1      -0.176   9.344  23.027  0.00  0.00    +0.000 C 
ATOM      6  C   UNL     1       0.871   9.214  20.700  0.00  0.00    +0.000 A 
ATOM      7  N   UNL     1       1.120   7.848  20.718  0.00  0.00    +0.000 NA
ATOM      8  C   UNL     1       1.653   7.438  19.589  0.00  0.00    +0.000 A 
ATOM      9  N   UNL     1       1.973   6.136  19.332  0.00  0.00    +0.000 N 
ATOM     10  C   UNL     1       2.168   5.600  17.994  0.00  0.00    +0.000 C 
ATOM     11  C   UNL     1       1.116   4.521  17.724  0.00  0.00    +0.000 C 
ATOM     12  C   UNL     1       1.131   3.438  18.810  0.00  0.00    +0.000 C 
ATOM     13  C   UNL     1       0.969   4.085  20.197  0.00  0.00    +0.000 C 
ATOM     14  C   UNL     1       2.014   5.177  20.433  0.00  0.00    +0.000 C 
ATOM     15  S   UNL     1       1.948   8.712  18.459  0.00  0.00    +0.000 S 
ATOM     16  C   UNL     1       1.262   9.855  19.531  0.00  0.00    +0.000 A 
ATOM     17  C   UNL     1       1.087  11.231  19.330  0.00  0.00    +0.000 A 
ENDROOT
BRANCH  12  18
ATOM     18  C   UNL     1       2.397   2.583  18.766  0.00  0.00    +0.000 C 
ATOM     19  O   UNL     1       2.868   2.141  17.723  0.00  0.00    +0.000 OA
ATOM     20  N   UNL     1       3.003   2.384  19.985  0.00  0.00    +0.000 N 
ATOM     21  H   UNL     1       2.734   2.954  20.778  0.00  0.00    +0.000 HD
BRANCH  20  22
ATOM     22  C   UNL     1       4.271   1.688  20.070  0.00  0.00    +0.000 C 
BRANCH  22  23
ATOM     23  C   UNL     1       5.450   2.657  20.138  0.00  0.00    +0.000 C 
BRANCH  23  24
ATOM     24  C   UNL     1       5.103   4.064  19.633  0.00  0.00    +0.000 C 
BRANCH  24  25
ATOM     25  N   UNL     1       5.976   4.548  18.546  0.00  0.00    +0.000 NA
ATOM     26  C   UNL     1       5.210   4.780  17.310  0.00  0.00    +0.000 C 
ATOM     27  C   UNL     1       6.095   5.261  16.151  0.00  0.00    +0.000 C 
ATOM     28  C   UNL     1       7.055   4.162  15.679  0.00  0.00    +0.000 C 
ATOM     29  C   UNL     1       6.835   6.537  16.564  0.00  0.00    +0.000 C 
ATOM     30  C   UNL     1       7.593   6.349  17.883  0.00  0.00    +0.000 C 
ATOM     31  C   UNL     1       8.205   7.674  18.338  0.00  0.00    +0.000 C 
ATOM     32  C   UNL     1       6.667   5.780  18.973  0.00  0.00    +0.000 C 
ENDBRANCH  24  25
ENDBRANCH  23  24
ENDBRANCH  22  23
ENDBRANCH  20  22
ENDBRANCH  12  18
TORSDOF 5
ENDMDL
MODEL 3
REMARK VINA RESULT:      -7.0      4.677      7.280
REMARK  Name = 
REMARK  9 active torsions:
REMARK  status: ('A' for Active; 'I' for Inactive)
REMARK    1  A    between atoms: C_1  and  C_2
REMARK    2  A    between atoms: C_4  and  C_5
REMARK    3  A    between atoms: C_12  and  C_13
REMARK    4  A    between atoms: N_15  and  C_16
REMARK    5  A    between atoms: C_16  and  C_17
REMARK    6  A    between atoms: C_17  and  C_18
REMARK    7  A    between atoms: C_18  and  N_19
REMARK    8  A    between atoms: C_21  and  C_22
REMARK    9  A    between atoms: C_24  and  C_25
REMARK                            x       y       z     vdW  Elec       q    Type
REMARK                         _______ _______ _______ _____ _____    ______ ____
ROOT
ATOM      1  C   UNL     1      -7.821  13.482  24.180  0.00  0.00    +0.000 C 
ATOM      2  C   UNL     1      -6.776  13.171  23.149  0.00  0.00    +0.000 A 
ATOM      3  C   UNL     1      -7.125  12.709  21.877  0.00  0.00    +0.000 A 
ATOM      4  C   UNL     1      -6.151  12.421  20.897  0.00  0.00    +0.000 A 
ATOM      5  C   UNL     1      -6.575  11.923  19.545  0.00  0.00    +0.000 C 
ATOM      6  C   UNL     1      -4.788  12.627  21.229  0.00  0.00    +0.000 A 
ATOM      7  N   UNL     1      -3.698  12.416  20.396  0.00  0.00    +0.000 NA
ATOM      8  C   UNL     1      -2.568  12.737  20.986  0.00  0.00    +0.000 A 
ATOM      9  N   UNL     1      -1.348  12.650  20.382  0.00  0.00    +0.000 N 
ATOM     10  C   UNL     1      -0.165  13.362  20.841  0.00  0.00    +0.000 C 
ATOM     11  C   UNL     1       0.295  14.333  19.750  0.00  0.00    +0.000 C 
ATOM     12  C   UNL     1       0.512  13.613  18.413  0.00  0.00    +0.000 C 
ATOM     13  C   UNL     1      -0.761  12.844  18.019  0.00  0.00    +0.000 C 
ATOM     14  C   UNL     1      -1.216  11.901  19.134  0.00  0.00    +0.000 C 
ATOM     15  S   UNL     1      -2.764  13.249  22.625  0.00  0.00    +0.000 S 
ATOM     16  C   UNL     1      -4.462  13.088  22.499  0.00  0.00    +0.000 A 
ATOM     17  C   UNL     1      -5.430  13.360  23.475  0.00  0.00    +0.000 A 
ENDROOT
BRANCH  12  18
ATOM     18  C   UNL     1       1.714  12.670  18.445  0.00  0.00    +0.000 C 
ATOM     19  O   UNL     1       2.848  13.043  18.730  0.00  0.00    +0.000 OA
ATOM     20  N   UNL     1       1.423  11.352  18.177  0.00  0.00    +0.000 N 
ATOM     21  H   UNL     1       0.459  11.039  18.188  0.00  0.00    +0.000 HD
BRANCH  20  22
ATOM     22  C   UNL     1       2.449  10.335  18.286  0.00  0.00    +0.000 C 
BRANCH  22  23
ATOM     23  C   UNL     1       1.947   8.966  17.830  0.00  0.00    +0.000 C 
BRANCH  23  24
ATOM     24  C   UNL     1       2.012   7.903  18.935  0.00  0.00    +0.000 C 
BRANCH  24  25
ATOM     25  N   UNL     1       2.960   6.805  18.663  0.00  0.00    +0.000 NA
ATOM     26  C   UNL     1       2.279   5.499  18.662  0.00  0.00    +0.000 C 
ATOM     27  C   UNL     1       3.244   4.333  18.407  0.00  0.00    +0.000 C 
ATOM     28  C   UNL     1       4.215   4.137  19.577  0.00  0.00    +0.000 C 
ATOM     29  C   UNL     1       3.974   4.551  17.078  0.00  0.00    +0.000 C 
ATOM     30  C   UNL     1       4.643   5.928  17.020  0.00  0.00    +0.000 C 
ATOM     31  C   UNL     1       5.243   6.170  15.635  0.00  0.00    +0.000 C 
ATOM     32  C   UNL     1       3.639   7.042  17.375  0.00  0.00    +0.000 C 
ENDBRANCH  24  25
ENDBRANCH  23  24
ENDBRANCH  22  23
ENDBRANCH  20  22
ENDBRANCH  12  18
TORSDOF 5
ENDMDL
MODEL 4
REMARK VINA RESULT:      -6.9      3.837      9.102
REMARK  Name = 
REMARK  9 active torsions:
REMARK  status: ('A' for Active; 'I' for Inactive)
REMARK    1  A    between atoms: C_1  and  C_2
REMARK    2  A    between atoms: C_4  and  C_5
REMARK    3  A    between atoms: C_12  and  C_13
REMARK    4  A    between atoms: N_15  and  C_16
REMARK    5  A    between atoms: C_16  and  C_17
REMARK    6  A    between atoms: C_17  and  C_18
REMARK    7  A    between atoms: C_18  and  N_19
REMARK    8  A    between atoms: C_21  and  C_22
REMARK    9  A    between atoms: C_24  and  C_25
REMARK                            x       y       z     vdW  Elec       q    Type
REMARK                         _______ _______ _______ _____ _____    ______ ____
ROOT
ATOM      1  C   UNL     1       4.953   4.084  16.667  0.00  0.00    +0.000 C 
ATOM      2  C   UNL     1       4.068   4.760  17.673  0.00  0.00    +0.000 A 
ATOM      3  C   UNL     1       3.679   4.113  18.849  0.00  0.00    +0.000 A 
ATOM      4  C   UNL     1       2.853   4.742  19.806  0.00  0.00    +0.000 A 
ATOM      5  C   UNL     1       2.458   4.003  21.053  0.00  0.00    +0.000 C 
ATOM      6  C   UNL     1       2.431   6.071  19.552  0.00  0.00    +0.000 A 
ATOM      7  N   UNL     1       1.635   6.852  20.380  0.00  0.00    +0.000 NA
ATOM      8  C   UNL     1       1.453   8.055  19.882  0.00  0.00    +0.000 A 
ATOM      9  N   UNL     1       0.732   9.031  20.506  0.00  0.00    +0.000 N 
ATOM     10  C   UNL     1       0.852  10.448  20.198  0.00  0.00    +0.000 C 
ATOM     11  C   UNL     1       1.356  11.192  21.436  0.00  0.00    +0.000 C 
ATOM     12  C   UNL     1       0.466  10.919  22.657  0.00  0.00    +0.000 C 
ATOM     13  C   UNL     1       0.348   9.403  22.889  0.00  0.00    +0.000 C 
ATOM     14  C   UNL     1      -0.131   8.678  21.630  0.00  0.00    +0.000 C 
ATOM     15  S   UNL     1       2.186   8.281  18.333  0.00  0.00    +0.000 S 
ATOM     16  C   UNL     1       2.829   6.698  18.378  0.00  0.00    +0.000 A 
ATOM     17  C   UNL     1       3.638   6.066  17.423  0.00  0.00    +0.000 A 
ENDROOT
BRANCH  12  18
ATOM     18  C   UNL     1      -0.920  11.547  22.522  0.00  0.00    +0.000 C 
ATOM     19  O   UNL     1      -1.940  11.008  22.939  0.00  0.00    +0.000 OA
ATOM     20  N   UNL     1      -0.937  12.792  21.938  0.00  0.00    +0.000 N 
ATOM     21  H   UNL     1      -0.071  13.307  21.829  0.00  0.00    +0.000 HD
BRANCH  20  22
ATOM     22  C   UNL     1      -2.171  13.547  21.852  0.00  0.00    +0.000 C 
BRANCH  22  23
ATOM     23  C   UNL     1      -2.846  13.384  20.492  0.00  0.00    +0.000 C 
BRANCH  23  24
ATOM     24  C   UNL     1      -1.952  12.691  19.454  0.00  0.00    +0.000 C 
BRANCH  24  25
ATOM     25  N   UNL     1      -2.693  11.958  18.410  0.00  0.00    +0.000 NA
ATOM     26  C   UNL     1      -2.095  10.635  18.161  0.00  0.00    +0.000 C 
ATOM     27  C   UNL     1      -2.829   9.857  17.060  0.00  0.00    +0.000 C 
ATOM     28  C   UNL     1      -2.641  10.508  15.685  0.00  0.00    +0.000 C 
ATOM     29  C   UNL     1      -4.308   9.708  17.433  0.00  0.00    +0.000 C 
ATOM     30  C   UNL     1      -4.946  11.062  17.761  0.00  0.00    +0.000 C 
ATOM     31  C   UNL     1      -6.377  10.868  18.261  0.00  0.00    +0.000 C 
ATOM     32  C   UNL     1      -4.109  11.827  18.804  0.00  0.00    +0.000 C 
ENDBRANCH  24  25
ENDBRANCH  23  24
ENDBRANCH  22  23
ENDBRANCH  20  22
ENDBRANCH  12  18
TORSDOF 5
ENDMDL
MODEL 5
REMARK VINA RESULT:      -6.6      4.683     10.278
REMARK  Name = 
REMARK  9 active torsions:
REMARK  status: ('A' for Active; 'I' for Inactive)
REMARK    1  A    between atoms: C_1  and  C_2
REMARK    2  A    between atoms: C_4  and  C_5
REMARK    3  A    between atoms: C_12  and  C_13
REMARK    4  A    between atoms: N_15  and  C_16
REMARK    5  A    between atoms: C_16  and  C_17
REMARK    6  A    between atoms: C_17  and  C_18
REMARK    7  A    between atoms: C_18  and  N_19
REMARK    8  A    between atoms: C_21  and  C_22
REMARK    9  A    between atoms: C_24  and  C_25
REMARK                            x       y       z     vdW  Elec       q    Type
REMARK                         _______ _______ _______ _____ _____    ______ ____
ROOT
ATOM      1  C   UNL     1       4.705   4.811  16.853  0.00  0.00    +0.000 C 
ATOM      2  C   UNL     1       3.797   5.682  17.671  0.00  0.00    +0.000 A 
ATOM      3  C   UNL     1       3.197   5.209  18.841  0.00  0.00    +0.000 A 
ATOM      4  C   UNL     1       2.347   6.022  19.622  0.00  0.00    +0.000 A 
ATOM      5  C   UNL     1       1.722   5.466  20.870  0.00  0.00    +0.000 C 
ATOM      6  C   UNL     1       2.122   7.355  19.197  0.00  0.00    +0.000 A 
ATOM      7  N   UNL     1       1.336   8.301  19.840  0.00  0.00    +0.000 NA
ATOM      8  C   UNL     1       1.361   9.457  19.215  0.00  0.00    +0.000 A 
ATOM      9  N   UNL     1       0.695  10.567  19.650  0.00  0.00    +0.000 N 
ATOM     10  C   UNL     1       1.022  11.921  19.232  0.00  0.00    +0.000 C 
ATOM     11  C   UNL     1       1.464  12.733  20.452  0.00  0.00    +0.000 C 
ATOM     12  C   UNL     1       0.411  12.689  21.567  0.00  0.00    +0.000 C 
ATOM     13  C   UNL     1       0.083  11.228  21.919  0.00  0.00    +0.000 C 
ATOM     14  C   UNL     1      -0.330  10.431  20.681  0.00  0.00    +0.000 C 
ATOM     15  S   UNL     1       2.292   9.438  17.760  0.00  0.00    +0.000 S 
ATOM     16  C   UNL     1       2.729   7.807  18.031  0.00  0.00    +0.000 A 
ATOM     17  C   UNL     1       3.561   6.994  17.249  0.00  0.00    +0.000 A 
ENDROOT
BRANCH  12  18
ATOM     18  C   UNL     1      -0.863  13.446  21.199  0.00  0.00    +0.000 C 
ATOM     19  O   UNL     1      -1.240  13.596  20.040  0.00  0.00    +0.000 OA
ATOM     20  N   UNL     1      -1.590  13.911  22.270  0.00  0.00    +0.000 N 
ATOM     21  H   UNL     1      -1.388  13.566  23.201  0.00  0.00    +0.000 HD
BRANCH  20  22
ATOM     22  C   UNL     1      -2.876  14.547  22.066  0.00  0.00    +0.000 C 
BRANCH  22  23
ATOM     23  C   UNL     1      -3.723  13.803  21.034  0.00  0.00    +0.000 C 
BRANCH  23  24
ATOM     24  C   UNL     1      -4.744  12.849  21.668  0.00  0.00    +0.000 C 
BRANCH  24  25
ATOM     25  N   UNL     1      -5.339  11.885  20.722  0.00  0.00    +0.000 NA
ATOM     26  C   UNL     1      -6.806  12.012  20.682  0.00  0.00    +0.000 C 
ATOM     27  C   UNL     1      -7.457  11.004  19.725  0.00  0.00    +0.000 C 
ATOM     28  C   UNL     1      -7.320   9.566  20.238  0.00  0.00    +0.000 C 
ATOM     29  C   UNL     1      -6.872  11.176  18.320  0.00  0.00    +0.000 C 
ATOM     30  C   UNL     1      -5.341  11.111  18.334  0.00  0.00    +0.000 C 
ATOM     31  C   UNL     1      -4.783  11.423  16.946  0.00  0.00    +0.000 C 
ATOM     32  C   UNL     1      -4.760  12.082  19.380  0.00  0.00    +0.000 C 
ENDBRANCH  24  25
ENDBRANCH  23  24
ENDBRANCH  22  23
ENDBRANCH  20  22
ENDBRANCH  12  18
TORSDOF 5
ENDMDL
MODEL 6
REMARK VINA RESULT:      -6.6      4.776     10.888
REMARK  Name = 
REMARK  9 active torsions:
REMARK  status: ('A' for Active; 'I' for Inactive)
REMARK    1  A    between atoms: C_1  and  C_2
REMARK    2  A    between atoms: C_4  and  C_5
REMARK    3  A    between atoms: C_12  and  C_13
REMARK    4  A    between atoms: N_15  and  C_16
REMARK    5  A    between atoms: C_16  and  C_17
REMARK    6  A    between atoms: C_17  and  C_18
REMARK    7  A    between atoms: C_18  and  N_19
REMARK    8  A    between atoms: C_21  and  C_22
REMARK    9  A    between atoms: C_24  and  C_25
REMARK                            x       y       z     vdW  Elec       q    Type
REMARK                         _______ _______ _______ _____ _____    ______ ____
ROOT
ATOM      1  C   UNL     1       3.621   2.779  20.101  0.00  0.00    +0.000 C 
ATOM      2  C   UNL     1       3.329   4.211  19.759  0.00  0.00    +0.000 A 
ATOM      3  C   UNL     1       3.986   4.856  18.708  0.00  0.00    +0.000 A 
ATOM      4  C   UNL     1       3.713   6.200  18.372  0.00  0.00    +0.000 A 
ATOM      5  C   UNL     1       4.449   6.851  17.236  0.00  0.00    +0.000 C 
ATOM      6  C   UNL     1       2.732   6.890  19.128  0.00  0.00    +0.000 A 
ATOM      7  N   UNL     1       2.320   8.202  18.936  0.00  0.00    +0.000 NA
ATOM      8  C   UNL     1       1.365   8.537  19.775  0.00  0.00    +0.000 A 
ATOM      9  N   UNL     1       0.762   9.762  19.785  0.00  0.00    +0.000 N 
ATOM     10  C   UNL     1      -0.532  10.021  20.396  0.00  0.00    +0.000 C 
ATOM     11  C   UNL     1      -1.518  10.472  19.316  0.00  0.00    +0.000 C 
ATOM     12  C   UNL     1      -0.978  11.673  18.528  0.00  0.00    +0.000 C 
ATOM     13  C   UNL     1       0.410  11.341  17.956  0.00  0.00    +0.000 C 
ATOM     14  C   UNL     1       1.370  10.867  19.049  0.00  0.00    +0.000 C 
ATOM     15  S   UNL     1       0.961   7.289  20.900  0.00  0.00    +0.000 S 
ATOM     16  C   UNL     1       2.089   6.231  20.169  0.00  0.00    +0.000 A 
ATOM     17  C   UNL     1       2.371   4.901  20.508  0.00  0.00    +0.000 A 
ENDROOT
BRANCH  12  18
ATOM     18  C   UNL     1      -0.916  12.945  19.371  0.00  0.00    +0.000 C 
ATOM     19  O   UNL     1       0.105  13.616  19.493  0.00  0.00    +0.000 OA
ATOM     20  N   UNL     1      -2.108  13.315  19.949  0.00  0.00    +0.000 N 
ATOM     21  H   UNL     1      -2.971  12.887  19.637  0.00  0.00    +0.000 HD
BRANCH  20  22
ATOM     22  C   UNL     1      -2.215  14.562  20.681  0.00  0.00    +0.000 C 
BRANCH  22  23
ATOM     23  C   UNL     1      -2.843  14.362  22.059  0.00  0.00    +0.000 C 
BRANCH  23  24
ATOM     24  C   UNL     1      -3.359  12.935  22.285  0.00  0.00    +0.000 C 
BRANCH  24  25
ATOM     25  N   UNL     1      -4.825  12.837  22.420  0.00  0.00    +0.000 NA
ATOM     26  C   UNL     1      -5.417  14.139  22.771  0.00  0.00    +0.000 C 
ATOM     27  C   UNL     1      -6.941  14.064  22.944  0.00  0.00    +0.000 C 
ATOM     28  C   UNL     1      -7.331  13.243  24.178  0.00  0.00    +0.000 C 
ATOM     29  C   UNL     1      -7.578  13.521  21.662  0.00  0.00    +0.000 C 
ATOM     30  C   UNL     1      -6.941  12.195  21.232  0.00  0.00    +0.000 C 
ATOM     31  C   UNL     1      -7.500  11.749  19.881  0.00  0.00    +0.000 C 
ATOM     32  C   UNL     1      -5.407  12.317  21.168  0.00  0.00    +0.000 C 
ENDBRANCH  24  25
ENDBRANCH  23  24
ENDBRANCH  22  23
ENDBRANCH  20  22
ENDBRANCH  12  18
TORSDOF 5
ENDMDL
MODEL 7
REMARK VINA RESULT:      -6.6      4.033     10.490
REMARK  Name = 
REMARK  9 active torsions:
REMARK  status: ('A' for Active; 'I' for Inactive)
REMARK    1  A    between atoms: C_1  and  C_2
REMARK    2  A    between atoms: C_4  and  C_5
REMARK    3  A    between atoms: C_12  and  C_13
REMARK    4  A    between atoms: N_15  and  C_16
REMARK    5  A    between atoms: C_16  and  C_17
REMARK    6  A    between atoms: C_17  and  C_18
REMARK    7  A    between atoms: C_18  and  N_19
REMARK    8  A    between atoms: C_21  and  C_22
REMARK    9  A    between atoms: C_24  and  C_25
REMARK                            x       y       z     vdW  Elec       q    Type
REMARK                         _______ _______ _______ _____ _____    ______ ____
ROOT
ATOM      1  C   UNL     1       3.785   1.442  18.415  0.00  0.00    +0.000 C 
ATOM      2  C   UNL     1       3.572   2.927  18.481  0.00  0.00    +0.000 A 
ATOM      3  C   UNL     1       4.105   3.780  17.511  0.00  0.00    +0.000 A 
ATOM      4  C   UNL     1       3.904   5.177  17.558  0.00  0.00    +0.000 A 
ATOM      5  C   UNL     1       4.499   6.054  16.494  0.00  0.00    +0.000 C 
ATOM      6  C   UNL     1       3.126   5.704  18.620  0.00  0.00    +0.000 A 
ATOM      7  N   UNL     1       2.809   7.041  18.822  0.00  0.00    +0.000 NA
ATOM      8  C   UNL     1       2.039   7.202  19.875  0.00  0.00    +0.000 A 
ATOM      9  N   UNL     1       1.560   8.413  20.283  0.00  0.00    +0.000 N 
ATOM     10  C   UNL     1       0.412   8.574  21.162  0.00  0.00    +0.000 C 
ATOM     11  C   UNL     1      -0.693   9.326  20.416  0.00  0.00    +0.000 C 
ATOM     12  C   UNL     1      -0.182  10.658  19.850  0.00  0.00    +0.000 C 
ATOM     13  C   UNL     1       1.058  10.412  18.974  0.00  0.00    +0.000 C 
ATOM     14  C   UNL     1       2.137   9.636  19.732  0.00  0.00    +0.000 C 
ATOM     15  S   UNL     1       1.713   5.734  20.726  0.00  0.00    +0.000 S 
ATOM     16  C   UNL     1       2.605   4.838  19.574  0.00  0.00    +0.000 A 
ATOM     17  C   UNL     1       2.817   3.453  19.532  0.00  0.00    +0.000 A 
ENDROOT
BRANCH  12  18
ATOM     18  C   UNL     1       0.133  11.676  20.945  0.00  0.00    +0.000 C 
ATOM     19  O   UNL     1       1.271  12.067  21.186  0.00  0.00    +0.000 OA
ATOM     20  N   UNL     1      -0.965  12.164  21.614  0.00  0.00    +0.000 N 
ATOM     21  H   UNL     1      -1.892  12.011  21.236  0.00  0.00    +0.000 HD
BRANCH  20  22
ATOM     22  C   UNL     1      -0.818  13.218  22.598  0.00  0.00    +0.000 C 
BRANCH  22  23
ATOM     23  C   UNL     1      -1.083  14.599  21.998  0.00  0.00    +0.000 C 
BRANCH  23  24
ATOM     24  C   UNL     1      -2.495  14.741  21.415  0.00  0.00    +0.000 C 
BRANCH  24  25
ATOM     25  N   UNL     1      -3.497  13.851  22.033  0.00  0.00    +0.000 NA
ATOM     26  C   UNL     1      -4.188  14.520  23.149  0.00  0.00    +0.000 C 
ATOM     27  C   UNL     1      -5.220  13.610  23.830  0.00  0.00    +0.000 C 
ATOM     28  C   UNL     1      -4.548  12.452  24.576  0.00  0.00    +0.000 C 
ATOM     29  C   UNL     1      -6.237  13.120  22.795  0.00  0.00    +0.000 C 
ATOM     30  C   UNL     1      -5.548  12.474  21.588  0.00  0.00    +0.000 C 
ATOM     31  C   UNL     1      -6.577  12.121  20.514  0.00  0.00    +0.000 C 
ATOM     32  C   UNL     1      -4.463  13.404  21.012  0.00  0.00    +0.000 C 
ENDBRANCH  24  25
ENDBRANCH  23  24
ENDBRANCH  22  23
ENDBRANCH  20  22
ENDBRANCH  12  18
TORSDOF 5
ENDMDL
MODEL 8
REMARK VINA RESULT:      -6.6      3.102      8.919
REMARK  Name = 
REMARK  9 active torsions:
REMARK  status: ('A' for Active; 'I' for Inactive)
REMARK    1  A    between atoms: C_1  and  C_2
REMARK    2  A    between atoms: C_4  and  C_5
REMARK    3  A    between atoms: C_12  and  C_13
REMARK    4  A    between atoms: N_15  and  C_16
REMARK    5  A    between atoms: C_16  and  C_17
REMARK    6  A    between atoms: C_17  and  C_18
REMARK    7  A    between atoms: C_18  and  N_19
REMARK    8  A    between atoms: C_21  and  C_22
REMARK    9  A    between atoms: C_24  and  C_25
REMARK                            x       y       z     vdW  Elec       q    Type
REMARK                         _______ _______ _______ _____ _____    ______ ____
ROOT
ATOM      1  C   UNL     1       5.590   4.337  16.328  0.00  0.00    +0.000 C 
ATOM      2  C   UNL     1       4.628   4.926  17.318  0.00  0.00    +0.000 A 
ATOM      3  C   UNL     1       4.239   4.222  18.461  0.00  0.00    +0.000 A 
ATOM      4  C   UNL     1       3.341   4.770  19.403  0.00  0.00    +0.000 A 
ATOM      5  C   UNL     1       2.951   3.973  20.614  0.00  0.00    +0.000 C 
ATOM      6  C   UNL     1       2.844   6.076  19.169  0.00  0.00    +0.000 A 
ATOM      7  N   UNL     1       1.970   6.782  19.986  0.00  0.00    +0.000 NA
ATOM      8  C   UNL     1       1.729   7.984  19.513  0.00  0.00    +0.000 A 
ATOM      9  N   UNL     1       0.925   8.895  20.135  0.00  0.00    +0.000 N 
ATOM     10  C   UNL     1       0.964  10.324  19.869  0.00  0.00    +0.000 C 
ATOM     11  C   UNL     1       1.375  11.064  21.145  0.00  0.00    +0.000 C 
ATOM     12  C   UNL     1       0.462  10.700  22.323  0.00  0.00    +0.000 C 
ATOM     13  C   UNL     1       0.433   9.173  22.511  0.00  0.00    +0.000 C 
ATOM     14  C   UNL     1       0.047   8.455  21.217  0.00  0.00    +0.000 C 
ATOM     15  S   UNL     1       2.501   8.301  17.999  0.00  0.00    +0.000 S 
ATOM     16  C   UNL     1       3.242   6.760  18.027  0.00  0.00    +0.000 A 
ATOM     17  C   UNL     1       4.123   6.209  17.086  0.00  0.00    +0.000 A 
ENDROOT
BRANCH  12  18
ATOM     18  C   UNL     1      -0.956  11.242  22.154  0.00  0.00    +0.000 C 
ATOM     19  O   UNL     1      -1.831  11.099  23.002  0.00  0.00    +0.000 OA
ATOM     20  N   UNL     1      -1.170  11.950  20.993  0.00  0.00    +0.000 N 
ATOM     21  H   UNL     1      -0.379  12.255  20.439  0.00  0.00    +0.000 HD
BRANCH  20  22
ATOM     22  C   UNL     1      -2.437  12.614  20.760  0.00  0.00    +0.000 C 
BRANCH  22  23
ATOM     23  C   UNL     1      -2.258  14.109  20.501  0.00  0.00    +0.000 C 
BRANCH  23  24
ATOM     24  C   UNL     1      -1.103  14.725  21.302  0.00  0.00    +0.000 C 
BRANCH  24  25
ATOM     25  N   UNL     1       0.233  14.476  20.726  0.00  0.00    +0.000 NA
ATOM     26  C   UNL     1       0.429  15.238  19.481  0.00  0.00    +0.000 C 
ATOM     27  C   UNL     1       1.801  14.980  18.843  0.00  0.00    +0.000 C 
ATOM     28  C   UNL     1       1.916  13.547  18.310  0.00  0.00    +0.000 C 
ATOM     29  C   UNL     1       2.907  15.314  19.849  0.00  0.00    +0.000 C 
ATOM     30  C   UNL     1       2.699  14.584  21.181  0.00  0.00    +0.000 C 
ATOM     31  C   UNL     1       3.736  15.042  22.206  0.00  0.00    +0.000 C 
ATOM     32  C   UNL     1       1.273  14.813  21.716  0.00  0.00    +0.000 C 
ENDBRANCH  24  25
ENDBRANCH  23  24
ENDBRANCH  22  23
ENDBRANCH  20  22
ENDBRANCH  12  18
TORSDOF 5
ENDMDL
MODEL 9
REMARK VINA RESULT:      -6.5      1.100      1.892
REMARK  Name = 
REMARK  9 active torsions:
REMARK  status: ('A' for Active; 'I' for Inactive)
REMARK    1  A    between atoms: C_1  and  C_2
REMARK    2  A    between atoms: C_4  and  C_5
REMARK    3  A    between atoms: C_12  and  C_13
REMARK    4  A    between atoms: N_15  and  C_16
REMARK    5  A    between atoms: C_16  and  C_17
REMARK    6  A    between atoms: C_17  and  C_18
REMARK    7  A    between atoms: C_18  and  N_19
REMARK    8  A    between atoms: C_21  and  C_22
REMARK    9  A    between atoms: C_24  and  C_25
REMARK                            x       y       z     vdW  Elec       q    Type
REMARK                         _______ _______ _______ _____ _____    ______ ____
ROOT
ATOM      1  C   UNL     1       1.225  13.662  18.327  0.00  0.00    +0.000 C 
ATOM      2  C   UNL     1       1.219  12.272  18.891  0.00  0.00    +0.000 A 
ATOM      3  C   UNL     1       0.634  11.992  20.129  0.00  0.00    +0.000 A 
ATOM      4  C   UNL     1       0.615  10.686  20.665  0.00  0.00    +0.000 A 
ATOM      5  C   UNL     1      -0.023  10.436  22.002  0.00  0.00    +0.000 C 
ATOM      6  C   UNL     1       1.201   9.644  19.904  0.00  0.00    +0.000 A 
ATOM      7  N   UNL     1       1.263   8.302  20.257  0.00  0.00    +0.000 NA
ATOM      8  C   UNL     1       1.835   7.580  19.320  0.00  0.00    +0.000 A 
ATOM      9  N   UNL     1       2.000   6.228  19.402  0.00  0.00    +0.000 N 
ATOM     10  C   UNL     1       2.242   5.371  18.251  0.00  0.00    +0.000 C 
ATOM     11  C   UNL     1       1.083   4.381  18.108  0.00  0.00    +0.000 C 
ATOM     12  C   UNL     1       0.856   3.591  19.403  0.00  0.00    +0.000 C 
ATOM     13  C   UNL     1       0.659   4.562  20.580  0.00  0.00    +0.000 C 
ATOM     14  C   UNL     1       1.814   5.559  20.687  0.00  0.00    +0.000 C 
ATOM     15  S   UNL     1       2.398   8.510  17.976  0.00  0.00    +0.000 S 
ATOM     16  C   UNL     1       1.777   9.942  18.675  0.00  0.00    +0.000 A 
ATOM     17  C   UNL     1       1.806  11.242  18.151  0.00  0.00    +0.000 A 
ENDROOT
BRANCH  12  18
ATOM     18  C   UNL     1       1.995   2.618  19.702  0.00  0.00    +0.000 C 
ATOM     19  O   UNL     1       2.248   2.213  20.833  0.00  0.00    +0.000 OA
ATOM     20  N   UNL     1       2.692   2.187  18.598  0.00  0.00    +0.000 N 
ATOM     21  H   UNL     1       2.312   2.343  17.672  0.00  0.00    +0.000 HD
BRANCH  20  22
ATOM     22  C   UNL     1       3.723   1.176  18.727  0.00  0.00    +0.000 C 
BRANCH  22  23
ATOM     23  C   UNL     1       5.121   1.790  18.771  0.00  0.00    +0.000 C 
BRANCH  23  24
ATOM     24  C   UNL     1       5.104   3.322  18.852  0.00  0.00    +0.000 C 
BRANCH  24  25
ATOM     25  N   UNL     1       5.774   3.995  17.723  0.00  0.00    +0.000 NA
ATOM     26  C   UNL     1       4.840   4.222  16.607  0.00  0.00    +0.000 C 
ATOM     27  C   UNL     1       5.514   4.898  15.405  0.00  0.00    +0.000 C 
ATOM     28  C   UNL     1       6.529   3.969  14.729  0.00  0.00    +0.000 C 
ATOM     29  C   UNL     1       6.146   6.222  15.846  0.00  0.00    +0.000 C 
ATOM     30  C   UNL     1       7.077   6.031  17.048  0.00  0.00    +0.000 C 
ATOM     31  C   UNL     1       7.582   7.384  17.550  0.00  0.00    +0.000 C 
ATOM     32  C   UNL     1       6.365   5.267  18.180  0.00  0.00    +0.000 C 
ENDBRANCH  24  25
ENDBRANCH  23  24
ENDBRANCH  22  23
ENDBRANCH  20  22
ENDBRANCH  12  18
TORSDOF 5
ENDMDL
