MODEL 1
REMARK VINA RESULT:      -8.0      0.000      0.000
REMARK  Name = 
REMARK  5 active torsions:
REMARK  status: ('A' for Active; 'I' for Inactive)
REMARK    1  A    between atoms: N_1  and  C_2
REMARK    2  A    between atoms: C_2  and  N_4
REMARK    3  A    between atoms: N_4  and  N_5
REMARK    4  A    between atoms: C_6  and  C_7
REMARK    5  A    between atoms: C_6  and  C_14
REMARK                            x       y       z     vdW  Elec       q    Type
REMARK                         _______ _______ _______ _____ _____    ______ ____
ROOT
ATOM      1  N   UNL     1       4.450   5.959  19.172  0.00  0.00    +0.000 NA
ATOM      2  C   UNL     1       3.146   5.921  19.255  0.00  0.00    +0.000 C 
ENDROOT
BRANCH   2   3
ATOM      3  C   UNL     1       2.305   4.685  19.445  0.00  0.00    +0.000 A 
ATOM      4  C   UNL     1       1.811   3.979  18.336  0.00  0.00    +0.000 A 
ATOM      5  C   UNL     1       1.040   2.825  18.504  0.00  0.00    +0.000 A 
ATOM      6  C   UNL     1       0.810   2.327  19.784  0.00  0.00    +0.000 A 
ATOM      7  C   UNL     1       1.326   3.005  20.880  0.00  0.00    +0.000 A 
ATOM      8  F   UNL     1       1.143   2.503  22.108  0.00  0.00    +0.000 F 
ATOM      9  C   UNL     1       2.043   4.190  20.729  0.00  0.00    +0.000 A 
ENDBRANCH   2   3
BRANCH   2  10
ATOM     10  C   UNL     1       2.459   7.258  19.183  0.00  0.00    +0.000 A 
ATOM     11  C   UNL     1       2.493   7.967  17.971  0.00  0.00    +0.000 A 
ATOM     12  C   UNL     1       1.834   9.192  17.851  0.00  0.00    +0.000 A 
ATOM     13  C   UNL     1       1.135   9.715  18.935  0.00  0.00    +0.000 A 
ATOM     14  C   UNL     1       1.117   9.022  20.146  0.00  0.00    +0.000 A 
ATOM     15 BR   UNL     1       0.148   9.721  21.610  0.00  0.00    +0.000 Br
ATOM     16  C   UNL     1       1.790   7.808  20.284  0.00  0.00    +0.000 A 
ENDBRANCH   2  10
BRANCH   1  17
ATOM     17  N   UNL     1       5.163   4.804  19.063  0.00  0.00    +0.000 N 
ATOM     18  H   UNL     1       5.195   4.143  19.833  0.00  0.00    +0.000 HD
BRANCH  17  19
ATOM     19  C   UNL     1       5.875   4.521  17.930  0.00  0.00    +0.000 C 
ATOM     20  S   UNL     1       5.156   4.364  16.445  0.00  0.00    +0.000 S 
BRANCH  19  21
ATOM     21  N   UNL     1       7.203   4.327  18.112  0.00  0.00    +0.000 N 
ATOM     22  H   UNL     1       7.834   5.093  18.292  0.00  0.00    +0.000 HD
ATOM     23  H   UNL     1       7.523   3.367  18.145  0.00  0.00    +0.000 HD
ENDBRANCH  19  21
ENDBRANCH  17  19
ENDBRANCH   1  17
TORSDOF 5
ENDMDL
MODEL 2
REMARK VINA RESULT:      -8.0      1.324      1.703
REMARK  Name = 
REMARK  5 active torsions:
REMARK  status: ('A' for Active; 'I' for Inactive)
REMARK    1  A    between atoms: N_1  and  C_2
REMARK    2  A    between atoms: C_2  and  N_4
REMARK    3  A    between atoms: N_4  and  N_5
REMARK    4  A    between atoms: C_6  and  C_7
REMARK    5  A    between atoms: C_6  and  C_14
REMARK                            x       y       z     vdW  Elec       q    Type
REMARK                         _______ _______ _______ _____ _____    ______ ____
ROOT
ATOM      1  N   UNL     1       4.073   6.298  18.134  0.00  0.00    +0.000 NA
ATOM      2  C   UNL     1       2.959   6.227  18.816  0.00  0.00    +0.000 C 
ENDROOT
BRANCH   2   3
ATOM      3  C   UNL     1       2.377   4.983  19.436  0.00  0.00    +0.000 A 
ATOM      4  C   UNL     1       2.564   4.709  20.800  0.00  0.00    +0.000 A 
ATOM      5  C   UNL     1       2.017   3.563  21.385  0.00  0.00    +0.000 A 
ATOM      6  C   UNL     1       1.219   2.712  20.624  0.00  0.00    +0.000 A 
ATOM      7  C   UNL     1       1.005   3.000  19.283  0.00  0.00    +0.000 A 
ATOM      8  F   UNL     1       0.202   2.207  18.562  0.00  0.00    +0.000 F 
ATOM      9  C   UNL     1       1.595   4.104  18.674  0.00  0.00    +0.000 A 
ENDBRANCH   2   3
BRANCH   2  10
ATOM     10  C   UNL     1       2.238   7.533  19.006  0.00  0.00    +0.000 A 
ATOM     11  C   UNL     1       2.078   8.380  17.897  0.00  0.00    +0.000 A 
ATOM     12  C   UNL     1       1.379   9.583  18.022  0.00  0.00    +0.000 A 
ATOM     13  C   UNL     1       0.834   9.947  19.251  0.00  0.00    +0.000 A 
ATOM     14  C   UNL     1       1.010   9.116  20.358  0.00  0.00    +0.000 A 
ATOM     15 BR   UNL     1       0.250   9.599  22.019  0.00  0.00    +0.000 Br
ATOM     16  C   UNL     1       1.725   7.923  20.250  0.00  0.00    +0.000 A 
ENDBRANCH   2  10
BRANCH   1  17
ATOM     17  N   UNL     1       4.723   5.161  17.763  0.00  0.00    +0.000 N 
ATOM     18  H   UNL     1       4.391   4.610  16.978  0.00  0.00    +0.000 HD
BRANCH  17  19
ATOM     19  C   UNL     1       5.816   4.716  18.456  0.00  0.00    +0.000 C 
ATOM     20  S   UNL     1       7.252   5.545  18.475  0.00  0.00    +0.000 S 
BRANCH  19  21
ATOM     21  N   UNL     1       5.661   3.528  19.085  0.00  0.00    +0.000 N 
ATOM     22  H   UNL     1       6.257   2.739  18.890  0.00  0.00    +0.000 HD
ATOM     23  H   UNL     1       4.971   3.492  19.826  0.00  0.00    +0.000 HD
ENDBRANCH  19  21
ENDBRANCH  17  19
ENDBRANCH   1  17
TORSDOF 5
ENDMDL
MODEL 3
REMARK VINA RESULT:      -8.0      4.445      6.445
REMARK  Name = 
REMARK  5 active torsions:
REMARK  status: ('A' for Active; 'I' for Inactive)
REMARK    1  A    between atoms: N_1  and  C_2
REMARK    2  A    between atoms: C_2  and  N_4
REMARK    3  A    between atoms: N_4  and  N_5
REMARK    4  A    between atoms: C_6  and  C_7
REMARK    5  A    between atoms: C_6  and  C_14
REMARK                            x       y       z     vdW  Elec       q    Type
REMARK                         _______ _______ _______ _____ _____    ______ ____
ROOT
ATOM      1  N   UNL     1       7.601   4.599  16.812  0.00  0.00    +0.000 NA
ATOM      2  C   UNL     1       6.469   4.569  16.160  0.00  0.00    +0.000 C 
ENDROOT
BRANCH   2   3
ATOM      3  C   UNL     1       5.092   4.628  16.769  0.00  0.00    +0.000 A 
ATOM      4  C   UNL     1       4.510   5.861  17.104  0.00  0.00    +0.000 A 
ATOM      5  C   UNL     1       3.228   5.924  17.659  0.00  0.00    +0.000 A 
ATOM      6  C   UNL     1       2.488   4.757  17.822  0.00  0.00    +0.000 A 
ATOM      7  C   UNL     1       3.048   3.539  17.460  0.00  0.00    +0.000 A 
ATOM      8  F   UNL     1       2.320   2.421  17.575  0.00  0.00    +0.000 F 
ATOM      9  C   UNL     1       4.347   3.457  16.964  0.00  0.00    +0.000 A 
ENDBRANCH   2   3
BRANCH   2  10
ATOM     10  C   UNL     1       6.593   4.504  14.662  0.00  0.00    +0.000 A 
ATOM     11  C   UNL     1       7.684   5.140  14.049  0.00  0.00    +0.000 A 
ATOM     12  C   UNL     1       7.858   5.069  12.665  0.00  0.00    +0.000 A 
ATOM     13  C   UNL     1       6.948   4.360  11.885  0.00  0.00    +0.000 A 
ATOM     14  C   UNL     1       5.851   3.745  12.490  0.00  0.00    +0.000 A 
ATOM     15 BR   UNL     1       4.629   2.764  11.434  0.00  0.00    +0.000 Br
ATOM     16  C   UNL     1       5.656   3.828  13.869  0.00  0.00    +0.000 A 
ENDBRANCH   2  10
BRANCH   1  17
ATOM     17  N   UNL     1       7.612   4.495  18.170  0.00  0.00    +0.000 N 
ATOM     18  H   UNL     1       7.384   3.615  18.621  0.00  0.00    +0.000 HD
BRANCH  17  19
ATOM     19  C   UNL     1       7.898   5.577  18.957  0.00  0.00    +0.000 C 
ATOM     20  S   UNL     1       7.906   7.126  18.367  0.00  0.00    +0.000 S 
BRANCH  19  21
ATOM     21  N   UNL     1       8.224   5.292  20.239  0.00  0.00    +0.000 N 
ATOM     22  H   UNL     1       8.264   4.344  20.582  0.00  0.00    +0.000 HD
ATOM     23  H   UNL     1       8.511   6.071  20.820  0.00  0.00    +0.000 HD
ENDBRANCH  19  21
ENDBRANCH  17  19
ENDBRANCH   1  17
TORSDOF 5
ENDMDL
MODEL 4
REMARK VINA RESULT:      -7.9      4.569      6.527
REMARK  Name = 
REMARK  5 active torsions:
REMARK  status: ('A' for Active; 'I' for Inactive)
REMARK    1  A    between atoms: N_1  and  C_2
REMARK    2  A    between atoms: C_2  and  N_4
REMARK    3  A    between atoms: N_4  and  N_5
REMARK    4  A    between atoms: C_6  and  C_7
REMARK    5  A    between atoms: C_6  and  C_14
REMARK                            x       y       z     vdW  Elec       q    Type
REMARK                         _______ _______ _______ _____ _____    ______ ____
ROOT
ATOM      1  N   UNL     1       7.585   4.597  16.810  0.00  0.00    +0.000 NA
ATOM      2  C   UNL     1       6.460   4.595  16.143  0.00  0.00    +0.000 C 
ENDROOT
BRANCH   2   3
ATOM      3  C   UNL     1       5.078   4.694  16.734  0.00  0.00    +0.000 A 
ATOM      4  C   UNL     1       4.341   3.536  17.028  0.00  0.00    +0.000 A 
ATOM      5  C   UNL     1       3.062   3.620  17.587  0.00  0.00    +0.000 A 
ATOM      6  C   UNL     1       2.534   4.864  17.921  0.00  0.00    +0.000 A 
ATOM      7  C   UNL     1       3.275   6.009  17.662  0.00  0.00    +0.000 A 
ATOM      8  F   UNL     1       2.787   7.203  18.023  0.00  0.00    +0.000 F 
ATOM      9  C   UNL     1       4.523   5.942  17.048  0.00  0.00    +0.000 A 
ENDBRANCH   2   3
BRANCH   2  10
ATOM     10  C   UNL     1       6.602   4.519  14.647  0.00  0.00    +0.000 A 
ATOM     11  C   UNL     1       7.687   5.172  14.040  0.00  0.00    +0.000 A 
ATOM     12  C   UNL     1       7.878   5.091  12.659  0.00  0.00    +0.000 A 
ATOM     13  C   UNL     1       6.990   4.357  11.876  0.00  0.00    +0.000 A 
ATOM     14  C   UNL     1       5.900   3.725  12.475  0.00  0.00    +0.000 A 
ATOM     15 BR   UNL     1       4.709   2.710  11.414  0.00  0.00    +0.000 Br
ATOM     16  C   UNL     1       5.688   3.817  13.851  0.00  0.00    +0.000 A 
ENDBRANCH   2  10
BRANCH   1  17
ATOM     17  N   UNL     1       7.574   4.500  18.168  0.00  0.00    +0.000 N 
ATOM     18  H   UNL     1       7.316   3.629  18.621  0.00  0.00    +0.000 HD
BRANCH  17  19
ATOM     19  C   UNL     1       7.882   5.577  18.954  0.00  0.00    +0.000 C 
ATOM     20  S   UNL     1       7.909   7.126  18.365  0.00  0.00    +0.000 S 
BRANCH  19  21
ATOM     21  N   UNL     1       8.209   5.287  20.235  0.00  0.00    +0.000 N 
ATOM     22  H   UNL     1       7.742   5.720  21.016  0.00  0.00    +0.000 HD
ATOM     23  H   UNL     1       8.889   4.549  20.375  0.00  0.00    +0.000 HD
ENDBRANCH  19  21
ENDBRANCH  17  19
ENDBRANCH   1  17
TORSDOF 5
ENDMDL
MODEL 5
REMARK VINA RESULT:      -7.9      0.913      1.414
REMARK  Name = 
REMARK  5 active torsions:
REMARK  status: ('A' for Active; 'I' for Inactive)
REMARK    1  A    between atoms: N_1  and  C_2
REMARK    2  A    between atoms: C_2  and  N_4
REMARK    3  A    between atoms: N_4  and  N_5
REMARK    4  A    between atoms: C_6  and  C_7
REMARK    5  A    between atoms: C_6  and  C_14
REMARK                            x       y       z     vdW  Elec       q    Type
REMARK                         _______ _______ _______ _____ _____    ______ ____
ROOT
ATOM      1  N   UNL     1       4.532   5.941  18.882  0.00  0.00    +0.000 NA
ATOM      2  C   UNL     1       3.275   5.906  19.239  0.00  0.00    +0.000 C 
ENDROOT
BRANCH   2   3
ATOM      3  C   UNL     1       2.531   4.700  19.752  0.00  0.00    +0.000 A 
ATOM      4  C   UNL     1       2.572   4.362  21.114  0.00  0.00    +0.000 A 
ATOM      5  C   UNL     1       1.874   3.251  21.600  0.00  0.00    +0.000 A 
ATOM      6  C   UNL     1       1.074   2.506  20.738  0.00  0.00    +0.000 A 
ATOM      7  C   UNL     1       1.006   2.860  19.397  0.00  0.00    +0.000 A 
ATOM      8  F   UNL     1       0.202   2.171  18.576  0.00  0.00    +0.000 F 
ATOM      9  C   UNL     1       1.744   3.926  18.889  0.00  0.00    +0.000 A 
ENDBRANCH   2   3
BRANCH   2  10
ATOM     10  C   UNL     1       2.545   7.219  19.146  0.00  0.00    +0.000 A 
ATOM     11  C   UNL     1       2.575   7.921  17.930  0.00  0.00    +0.000 A 
ATOM     12  C   UNL     1       1.877   9.122  17.790  0.00  0.00    +0.000 A 
ATOM     13  C   UNL     1       1.143   9.629  18.859  0.00  0.00    +0.000 A 
ATOM     14  C   UNL     1       1.129   8.943  20.074  0.00  0.00    +0.000 A 
ATOM     15 BR   UNL     1       0.113   9.620  21.518  0.00  0.00    +0.000 Br
ATOM     16  C   UNL     1       1.840   7.753  20.232  0.00  0.00    +0.000 A 
ENDBRANCH   2  10
BRANCH   1  17
ATOM     17  N   UNL     1       5.244   4.785  18.771  0.00  0.00    +0.000 N 
ATOM     18  H   UNL     1       5.211   4.087  19.506  0.00  0.00    +0.000 HD
BRANCH  17  19
ATOM     19  C   UNL     1       6.042   4.552  17.684  0.00  0.00    +0.000 C 
ATOM     20  S   UNL     1       5.440   4.468  16.142  0.00  0.00    +0.000 S 
BRANCH  19  21
ATOM     21  N   UNL     1       7.351   4.344  17.959  0.00  0.00    +0.000 N 
ATOM     22  H   UNL     1       8.059   5.026  17.734  0.00  0.00    +0.000 HD
ATOM     23  H   UNL     1       7.579   3.506  18.481  0.00  0.00    +0.000 HD
ENDBRANCH  19  21
ENDBRANCH  17  19
ENDBRANCH   1  17
TORSDOF 5
ENDMDL
MODEL 6
REMARK VINA RESULT:      -7.9      1.055      1.058
REMARK  Name = 
REMARK  5 active torsions:
REMARK  status: ('A' for Active; 'I' for Inactive)
REMARK    1  A    between atoms: N_1  and  C_2
REMARK    2  A    between atoms: C_2  and  N_4
REMARK    3  A    between atoms: N_4  and  N_5
REMARK    4  A    between atoms: C_6  and  C_7
REMARK    5  A    between atoms: C_6  and  C_14
REMARK                            x       y       z     vdW  Elec       q    Type
REMARK                         _______ _______ _______ _____ _____    ______ ____
ROOT
ATOM      1  N   UNL     1       4.155   6.373  18.200  0.00  0.00    +0.000 NA
ATOM      2  C   UNL     1       2.961   6.267  18.722  0.00  0.00    +0.000 C 
ENDROOT
BRANCH   2   3
ATOM      3  C   UNL     1       2.282   4.986  19.132  0.00  0.00    +0.000 A 
ATOM      4  C   UNL     1       1.625   4.189  18.181  0.00  0.00    +0.000 A 
ATOM      5  C   UNL     1       1.003   2.992  18.553  0.00  0.00    +0.000 A 
ATOM      6  C   UNL     1       1.091   2.548  19.870  0.00  0.00    +0.000 A 
ATOM      7  C   UNL     1       1.770   3.318  20.804  0.00  0.00    +0.000 A 
ATOM      8  F   UNL     1       1.892   2.870  22.060  0.00  0.00    +0.000 F 
ATOM      9  C   UNL     1       2.339   4.541  20.460  0.00  0.00    +0.000 A 
ENDBRANCH   2   3
BRANCH   2  10
ATOM     10  C   UNL     1       2.242   7.569  18.948  0.00  0.00    +0.000 A 
ATOM     11  C   UNL     1       2.071   8.442  17.860  0.00  0.00    +0.000 A 
ATOM     12  C   UNL     1       1.374   9.641  18.019  0.00  0.00    +0.000 A 
ATOM     13  C   UNL     1       0.840   9.977  19.261  0.00  0.00    +0.000 A 
ATOM     14  C   UNL     1       1.027   9.121  20.347  0.00  0.00    +0.000 A 
ATOM     15 BR   UNL     1       0.281   9.566  22.026  0.00  0.00    +0.000 Br
ATOM     16  C   UNL     1       1.740   7.930  20.205  0.00  0.00    +0.000 A 
ENDBRANCH   2  10
BRANCH   1  17
ATOM     17  N   UNL     1       4.829   5.259  17.803  0.00  0.00    +0.000 N 
ATOM     18  H   UNL     1       4.553   4.761  16.962  0.00  0.00    +0.000 HD
BRANCH  17  19
ATOM     19  C   UNL     1       5.872   4.767  18.540  0.00  0.00    +0.000 C 
ATOM     20  S   UNL     1       7.321   5.563  18.670  0.00  0.00    +0.000 S 
BRANCH  19  21
ATOM     21  N   UNL     1       5.658   3.561  19.116  0.00  0.00    +0.000 N 
ATOM     22  H   UNL     1       6.046   2.712  18.736  0.00  0.00    +0.000 HD
ATOM     23  H   UNL     1       5.160   3.560  19.998  0.00  0.00    +0.000 HD
ENDBRANCH  19  21
ENDBRANCH  17  19
ENDBRANCH   1  17
TORSDOF 5
ENDMDL
MODEL 7
REMARK VINA RESULT:      -7.7      3.565      5.340
REMARK  Name = 
REMARK  5 active torsions:
REMARK  status: ('A' for Active; 'I' for Inactive)
REMARK    1  A    between atoms: N_1  and  C_2
REMARK    2  A    between atoms: C_2  and  N_4
REMARK    3  A    between atoms: N_4  and  N_5
REMARK    4  A    between atoms: C_6  and  C_7
REMARK    5  A    between atoms: C_6  and  C_14
REMARK                            x       y       z     vdW  Elec       q    Type
REMARK                         _______ _______ _______ _____ _____    ______ ____
ROOT
ATOM      1  N   UNL     1       3.088   7.125  18.261  0.00  0.00    +0.000 NA
ATOM      2  C   UNL     1       3.439   5.880  18.456  0.00  0.00    +0.000 C 
ENDROOT
BRANCH   2   3
ATOM      3  C   UNL     1       2.641   4.839  19.197  0.00  0.00    +0.000 A 
ATOM      4  C   UNL     1       2.674   4.778  20.600  0.00  0.00    +0.000 A 
ATOM      5  C   UNL     1       1.927   3.821  21.295  0.00  0.00    +0.000 A 
ATOM      6  C   UNL     1       1.087   2.959  20.596  0.00  0.00    +0.000 A 
ATOM      7  C   UNL     1       1.027   3.041  19.212  0.00  0.00    +0.000 A 
ATOM      8  F   UNL     1       0.186   2.242  18.543  0.00  0.00    +0.000 F 
ATOM      9  C   UNL     1       1.813   3.947  18.504  0.00  0.00    +0.000 A 
ENDBRANCH   2   3
BRANCH   2  10
ATOM     10  C   UNL     1       4.752   5.480  17.840  0.00  0.00    +0.000 A 
ATOM     11  C   UNL     1       5.902   5.481  18.646  0.00  0.00    +0.000 A 
ATOM     12  C   UNL     1       7.132   5.077  18.124  0.00  0.00    +0.000 A 
ATOM     13  C   UNL     1       7.223   4.668  16.796  0.00  0.00    +0.000 A 
ATOM     14  C   UNL     1       6.086   4.686  15.987  0.00  0.00    +0.000 A 
ATOM     15 BR   UNL     1       6.206   4.108  14.192  0.00  0.00    +0.000 Br
ATOM     16  C   UNL     1       4.856   5.108  16.493  0.00  0.00    +0.000 A 
ENDBRANCH   2  10
BRANCH   1  17
ATOM     17  N   UNL     1       2.005   7.639  18.906  0.00  0.00    +0.000 N 
ATOM     18  H   UNL     1       1.433   7.051  19.504  0.00  0.00    +0.000 HD
BRANCH  17  19
ATOM     19  C   UNL     1       1.642   8.948  18.740  0.00  0.00    +0.000 C 
ATOM     20  S   UNL     1       0.794   9.786  19.891  0.00  0.00    +0.000 S 
BRANCH  19  21
ATOM     21  N   UNL     1       1.981   9.498  17.551  0.00  0.00    +0.000 N 
ATOM     22  H   UNL     1       2.096   8.941  16.718  0.00  0.00    +0.000 HD
ATOM     23  H   UNL     1       2.031  10.509  17.515  0.00  0.00    +0.000 HD
ENDBRANCH  19  21
ENDBRANCH  17  19
ENDBRANCH   1  17
TORSDOF 5
ENDMDL
MODEL 8
REMARK VINA RESULT:      -7.7      1.477      1.831
REMARK  Name = 
REMARK  5 active torsions:
REMARK  status: ('A' for Active; 'I' for Inactive)
REMARK    1  A    between atoms: N_1  and  C_2
REMARK    2  A    between atoms: C_2  and  N_4
REMARK    3  A    between atoms: N_4  and  N_5
REMARK    4  A    between atoms: C_6  and  C_7
REMARK    5  A    between atoms: C_6  and  C_14
REMARK                            x       y       z     vdW  Elec       q    Type
REMARK                         _______ _______ _______ _____ _____    ______ ____
ROOT
ATOM      1  N   UNL     1       3.964   6.436  17.902  0.00  0.00    +0.000 NA
ATOM      2  C   UNL     1       2.910   6.320  18.667  0.00  0.00    +0.000 C 
ENDROOT
BRANCH   2   3
ATOM      3  C   UNL     1       2.402   5.045  19.290  0.00  0.00    +0.000 A 
ATOM      4  C   UNL     1       2.703   4.734  20.626  0.00  0.00    +0.000 A 
ATOM      5  C   UNL     1       2.225   3.558  21.214  0.00  0.00    +0.000 A 
ATOM      6  C   UNL     1       1.386   2.715  20.491  0.00  0.00    +0.000 A 
ATOM      7  C   UNL     1       1.060   3.039  19.181  0.00  0.00    +0.000 A 
ATOM      8  F   UNL     1       0.217   2.251  18.501  0.00  0.00    +0.000 F 
ATOM      9  C   UNL     1       1.579   4.174  18.564  0.00  0.00    +0.000 A 
ENDBRANCH   2   3
BRANCH   2  10
ATOM     10  C   UNL     1       2.182   7.604  18.957  0.00  0.00    +0.000 A 
ATOM     11  C   UNL     1       1.955   8.502  17.900  0.00  0.00    +0.000 A 
ATOM     12  C   UNL     1       1.248   9.686  18.119  0.00  0.00    +0.000 A 
ATOM     13  C   UNL     1       0.760   9.981  19.389  0.00  0.00    +0.000 A 
ATOM     14  C   UNL     1       1.002   9.100  20.444  0.00  0.00    +0.000 A 
ATOM     15 BR   UNL     1       0.318   9.490  22.163  0.00  0.00    +0.000 Br
ATOM     16  C   UNL     1       1.726   7.925  20.242  0.00  0.00    +0.000 A 
ENDBRANCH   2  10
BRANCH   1  17
ATOM     17  N   UNL     1       4.603   5.325  17.444  0.00  0.00    +0.000 N 
ATOM     18  H   UNL     1       4.627   4.477  18.002  0.00  0.00    +0.000 HD
BRANCH  17  19
ATOM     19  C   UNL     1       5.251   5.332  16.239  0.00  0.00    +0.000 C 
ATOM     20  S   UNL     1       5.949   3.972  15.599  0.00  0.00    +0.000 S 
BRANCH  19  21
ATOM     21  N   UNL     1       5.327   6.537  15.627  0.00  0.00    +0.000 N 
ATOM     22  H   UNL     1       4.638   7.258  15.780  0.00  0.00    +0.000 HD
ATOM     23  H   UNL     1       6.156   6.715  15.073  0.00  0.00    +0.000 HD
ENDBRANCH  19  21
ENDBRANCH  17  19
ENDBRANCH   1  17
TORSDOF 5
ENDMDL
MODEL 9
REMARK VINA RESULT:      -7.7      1.410      1.425
REMARK  Name = 
REMARK  5 active torsions:
REMARK  status: ('A' for Active; 'I' for Inactive)
REMARK    1  A    between atoms: N_1  and  C_2
REMARK    2  A    between atoms: C_2  and  N_4
REMARK    3  A    between atoms: N_4  and  N_5
REMARK    4  A    between atoms: C_6  and  C_7
REMARK    5  A    between atoms: C_6  and  C_14
REMARK                            x       y       z     vdW  Elec       q    Type
REMARK                         _______ _______ _______ _____ _____    ______ ____
ROOT
ATOM      1  N   UNL     1       4.067   6.398  17.650  0.00  0.00    +0.000 NA
ATOM      2  C   UNL     1       3.001   6.248  18.393  0.00  0.00    +0.000 C 
ENDROOT
BRANCH   2   3
ATOM      3  C   UNL     1       2.453   4.942  18.906  0.00  0.00    +0.000 A 
ATOM      4  C   UNL     1       1.565   4.184  18.126  0.00  0.00    +0.000 A 
ATOM      5  C   UNL     1       1.061   2.964  18.591  0.00  0.00    +0.000 A 
ATOM      6  C   UNL     1       1.495   2.458  19.813  0.00  0.00    +0.000 A 
ATOM      7  C   UNL     1       2.400   3.190  20.570  0.00  0.00    +0.000 A 
ATOM      8  F   UNL     1       2.851   2.683  21.724  0.00  0.00    +0.000 F 
ATOM      9  C   UNL     1       2.860   4.434  20.147  0.00  0.00    +0.000 A 
ENDBRANCH   2   3
BRANCH   2  10
ATOM     10  C   UNL     1       2.302   7.524  18.777  0.00  0.00    +0.000 A 
ATOM     11  C   UNL     1       2.086   8.497  17.787  0.00  0.00    +0.000 A 
ATOM     12  C   UNL     1       1.405   9.677  18.093  0.00  0.00    +0.000 A 
ATOM     13  C   UNL     1       0.934   9.893  19.386  0.00  0.00    +0.000 A 
ATOM     14  C   UNL     1       1.166   8.937  20.375  0.00  0.00    +0.000 A 
ATOM     15 BR   UNL     1       0.506   9.221  22.123  0.00  0.00    +0.000 Br
ATOM     16  C   UNL     1       1.864   7.764  20.086  0.00  0.00    +0.000 A 
ENDBRANCH   2  10
BRANCH   1  17
ATOM     17  N   UNL     1       4.683   5.310  17.111  0.00  0.00    +0.000 N 
ATOM     18  H   UNL     1       4.691   4.424  17.605  0.00  0.00    +0.000 HD
BRANCH  17  19
ATOM     19  C   UNL     1       5.329   5.392  15.908  0.00  0.00    +0.000 C 
ATOM     20  S   UNL     1       6.103   4.094  15.226  0.00  0.00    +0.000 S 
BRANCH  19  21
ATOM     21  N   UNL     1       5.336   6.618  15.334  0.00  0.00    +0.000 N 
ATOM     22  H   UNL     1       6.115   6.946  14.785  0.00  0.00    +0.000 HD
ATOM     23  H   UNL     1       4.484   7.160  15.409  0.00  0.00    +0.000 HD
ENDBRANCH  19  21
ENDBRANCH  17  19
ENDBRANCH   1  17
TORSDOF 5
ENDMDL
