MODEL 1
REMARK VINA RESULT:      -7.0      0.000      0.000
REMARK  Name = 
REMARK  6 active torsions:
REMARK  status: ('A' for Active; 'I' for Inactive)
REMARK    1  A    between atoms: O5*_1  and  C5*_2
REMARK    2  A    between atoms: C5*_2  and  C4*_3
REMARK    3  A    between atoms: C1*_5  and  N_6
REMARK    4  A    between atoms: N_12  and  O_13
REMARK    5  A    between atoms: C2*_18  and  O2*_19
REMARK    6  A    between atoms: C3*_20  and  O3*_21
REMARK                            x       y       z     vdW  Elec       q    Type
REMARK                         _______ _______ _______ _____ _____    ______ ____
ROOT
ATOM      1  N   UNL     1       4.401   4.987  18.339  0.00  0.00    +0.000 N 
ATOM      2  C   UNL     1       3.518   5.990  18.668  0.00  0.00    +0.000 A 
ATOM      3  C   UNL     1       2.759   5.545  19.722  0.00  0.00    +0.000 A 
ATOM      4 BR   UNL     1       1.416   6.534  20.580  0.00  0.00    +0.000 Br
ATOM      5  C   UNL     1       3.159   4.230  20.052  0.00  0.00    +0.000 A 
ATOM      6  C   UNL     1       2.814   3.257  21.003  0.00  0.00    +0.000 A 
ATOM      7  N   UNL     1       1.870   3.473  22.018  0.00  0.00    +0.000 N 
ATOM      8  N   UNL     1       3.434   2.050  20.947  0.00  0.00    +0.000 NA
ATOM      9  C   UNL     1       4.383   1.859  20.012  0.00  0.00    +0.000 A 
ATOM     10  N   UNL     1       4.824   2.730  19.091  0.00  0.00    +0.000 NA
ATOM     11  C   UNL     1       4.168   3.899  19.151  0.00  0.00    +0.000 A 
ATOM     12  H   UNL     1       1.288   4.294  21.877  0.00  0.00    +0.000 HD
ENDROOT
BRANCH   1  15
ATOM     13  C4* UNL     1       7.738   5.554  17.844  0.00  0.00    +0.000 C 
ATOM     14  O4* UNL     1       6.699   4.559  17.969  0.00  0.00    +0.000 OA
ATOM     15  C1* UNL     1       5.480   5.073  17.360  0.00  0.00    +0.000 C 
ATOM     16  C2* UNL     1       5.782   6.495  16.866  0.00  0.00    +0.000 C 
ATOM     17  C3* UNL     1       7.295   6.449  16.694  0.00  0.00    +0.000 C 
BRANCH  16  18
ATOM     18  O2* UNL     1       5.150   6.823  15.629  0.00  0.00    +0.000 OA
ATOM     19  H2* UNL     1       4.893   7.769  15.699  0.00  0.00    +0.000 HD
ENDBRANCH  16  18
BRANCH  17  20
ATOM     20  O3* UNL     1       7.568   5.835  15.415  0.00  0.00    +0.000 OA
ATOM     21  H3* UNL     1       7.048   6.299  14.731  0.00  0.00    +0.000 HD
ENDBRANCH  17  20
BRANCH  13  22
ATOM     22  C5* UNL     1       7.911   6.297  19.173  0.00  0.00    +0.000 C 
BRANCH  22  23
ATOM     23  O5* UNL     1       7.810   5.398  20.265  0.00  0.00    +0.000 OA
ATOM     24  H5* UNL     1       6.947   5.556  20.690  0.00  0.00    +0.000 HD
ENDBRANCH  22  23
ENDBRANCH  13  22
ENDBRANCH   1  15
BRANCH   7  25
ATOM     25  O   UNL     1       1.200   2.376  22.560  0.00  0.00    +0.000 OA
ATOM     26  H   UNL     1       1.284   1.701  21.854  0.00  0.00    +0.000 HD
ENDBRANCH   7  25
TORSDOF 6
ENDMDL
MODEL 2
REMARK VINA RESULT:      -7.0      1.240      1.359
REMARK  Name = 
REMARK  6 active torsions:
REMARK  status: ('A' for Active; 'I' for Inactive)
REMARK    1  A    between atoms: O5*_1  and  C5*_2
REMARK    2  A    between atoms: C5*_2  and  C4*_3
REMARK    3  A    between atoms: C1*_5  and  N_6
REMARK    4  A    between atoms: N_12  and  O_13
REMARK    5  A    between atoms: C2*_18  and  O2*_19
REMARK    6  A    between atoms: C3*_20  and  O3*_21
REMARK                            x       y       z     vdW  Elec       q    Type
REMARK                         _______ _______ _______ _____ _____    ______ ____
ROOT
ATOM      1  N   UNL     1       3.892   4.990  17.442  0.00  0.00    +0.000 N 
ATOM      2  C   UNL     1       3.374   6.123  18.024  0.00  0.00    +0.000 A 
ATOM      3  C   UNL     1       2.733   5.741  19.176  0.00  0.00    +0.000 A 
ATOM      4 BR   UNL     1       1.873   6.905  20.370  0.00  0.00    +0.000 Br
ATOM      5  C   UNL     1       2.835   4.338  19.314  0.00  0.00    +0.000 A 
ATOM      6  C   UNL     1       2.432   3.362  20.240  0.00  0.00    +0.000 A 
ATOM      7  N   UNL     1       1.779   3.666  21.444  0.00  0.00    +0.000 N 
ATOM      8  N   UNL     1       2.698   2.060  19.962  0.00  0.00    +0.000 NA
ATOM      9  C   UNL     1       3.377   1.769  18.837  0.00  0.00    +0.000 A 
ATOM     10  N   UNL     1       3.850   2.620  17.914  0.00  0.00    +0.000 NA
ATOM     11  C   UNL     1       3.540   3.894  18.199  0.00  0.00    +0.000 A 
ATOM     12  H   UNL     1       1.412   4.613  21.491  0.00  0.00    +0.000 HD
ENDROOT
BRANCH   1  15
ATOM     13  C4* UNL     1       7.045   4.365  16.270  0.00  0.00    +0.000 C 
ATOM     14  O4* UNL     1       5.706   3.849  16.438  0.00  0.00    +0.000 OA
ATOM     15  C1* UNL     1       4.758   4.941  16.267  0.00  0.00    +0.000 C 
ATOM     16  C2* UNL     1       5.571   6.219  16.020  0.00  0.00    +0.000 C 
ATOM     17  C3* UNL     1       6.878   5.654  15.476  0.00  0.00    +0.000 C 
BRANCH  16  18
ATOM     18  O2* UNL     1       4.980   7.107  15.072  0.00  0.00    +0.000 OA
ATOM     19  H2* UNL     1       4.538   6.535  14.405  0.00  0.00    +0.000 HD
ENDBRANCH  16  18
BRANCH  17  20
ATOM     20  O3* UNL     1       6.681   5.383  14.071  0.00  0.00    +0.000 OA
ATOM     21  H3* UNL     1       6.630   6.234  13.594  0.00  0.00    +0.000 HD
ENDBRANCH  17  20
BRANCH  13  22
ATOM     22  C5* UNL     1       7.701   4.565  17.640  0.00  0.00    +0.000 C 
BRANCH  22  23
ATOM     23  O5* UNL     1       6.835   4.135  18.677  0.00  0.00    +0.000 OA
ATOM     24  H5* UNL     1       6.858   4.818  19.373  0.00  0.00    +0.000 HD
ENDBRANCH  22  23
ENDBRANCH  13  22
ENDBRANCH   1  15
BRANCH   7  25
ATOM     25  O   UNL     1       0.960   2.700  22.029  0.00  0.00    +0.000 OA
ATOM     26  H   UNL     1       1.544   2.304  22.708  0.00  0.00    +0.000 HD
ENDBRANCH   7  25
TORSDOF 6
ENDMDL
MODEL 3
REMARK VINA RESULT:      -6.7      3.337      6.458
REMARK  Name = 
REMARK  6 active torsions:
REMARK  status: ('A' for Active; 'I' for Inactive)
REMARK    1  A    between atoms: O5*_1  and  C5*_2
REMARK    2  A    between atoms: C5*_2  and  C4*_3
REMARK    3  A    between atoms: C1*_5  and  N_6
REMARK    4  A    between atoms: N_12  and  O_13
REMARK    5  A    between atoms: C2*_18  and  O2*_19
REMARK    6  A    between atoms: C3*_20  and  O3*_21
REMARK                            x       y       z     vdW  Elec       q    Type
REMARK                         _______ _______ _______ _____ _____    ______ ____
ROOT
ATOM      1  N   UNL     1       4.765   4.184  17.049  0.00  0.00    +0.000 N 
ATOM      2  C   UNL     1       5.435   5.107  17.819  0.00  0.00    +0.000 A 
ATOM      3  C   UNL     1       6.417   5.663  17.039  0.00  0.00    +0.000 A 
ATOM      4 BR   UNL     1       7.608   7.003  17.594  0.00  0.00    +0.000 Br
ATOM      5  C   UNL     1       6.378   5.068  15.758  0.00  0.00    +0.000 A 
ATOM      6  C   UNL     1       7.066   5.195  14.541  0.00  0.00    +0.000 A 
ATOM      7  N   UNL     1       8.072   6.149  14.322  0.00  0.00    +0.000 N 
ATOM      8  N   UNL     1       6.736   4.362  13.521  0.00  0.00    +0.000 NA
ATOM      9  C   UNL     1       5.731   3.486  13.708  0.00  0.00    +0.000 A 
ATOM     10  N   UNL     1       4.978   3.314  14.805  0.00  0.00    +0.000 NA
ATOM     11  C   UNL     1       5.353   4.126  15.805  0.00  0.00    +0.000 A 
ATOM     12  H   UNL     1       8.426   6.583  15.170  0.00  0.00    +0.000 HD
ENDROOT
BRANCH   1  15
ATOM     13  C4* UNL     1       1.903   4.207  18.922  0.00  0.00    +0.000 C 
ATOM     14  O4* UNL     1       2.476   4.394  17.610  0.00  0.00    +0.000 OA
ATOM     15  C1* UNL     1       3.566   3.445  17.434  0.00  0.00    +0.000 C 
ATOM     16  C2* UNL     1       3.697   2.653  18.742  0.00  0.00    +0.000 C 
ATOM     17  C3* UNL     1       2.300   2.796  19.332  0.00  0.00    +0.000 C 
BRANCH  16  18
ATOM     18  O2* UNL     1       4.020   1.275  18.554  0.00  0.00    +0.000 OA
ATOM     19  H2* UNL     1       4.948   1.170  18.860  0.00  0.00    +0.000 HD
ENDBRANCH  16  18
BRANCH  17  20
ATOM     20  O3* UNL     1       1.458   1.808  18.696  0.00  0.00    +0.000 OA
ATOM     21  H3* UNL     1       0.763   1.540  19.327  0.00  0.00    +0.000 HD
ENDBRANCH  17  20
BRANCH  13  22
ATOM     22  C5* UNL     1       2.416   5.294  19.874  0.00  0.00    +0.000 C 
BRANCH  22  23
ATOM     23  O5* UNL     1       2.382   4.839  21.217  0.00  0.00    +0.000 OA
ATOM     24  H5* UNL     1       1.522   5.110  21.590  0.00  0.00    +0.000 HD
ENDBRANCH  22  23
ENDBRANCH  13  22
ENDBRANCH   1  15
BRANCH   7  25
ATOM     25  O   UNL     1       9.044   5.893  13.355  0.00  0.00    +0.000 OA
ATOM     26  H   UNL     1       8.948   4.931  13.200  0.00  0.00    +0.000 HD
ENDBRANCH   7  25
TORSDOF 6
ENDMDL
MODEL 4
REMARK VINA RESULT:      -6.6      2.463      2.983
REMARK  Name = 
REMARK  6 active torsions:
REMARK  status: ('A' for Active; 'I' for Inactive)
REMARK    1  A    between atoms: O5*_1  and  C5*_2
REMARK    2  A    between atoms: C5*_2  and  C4*_3
REMARK    3  A    between atoms: C1*_5  and  N_6
REMARK    4  A    between atoms: N_12  and  O_13
REMARK    5  A    between atoms: C2*_18  and  O2*_19
REMARK    6  A    between atoms: C3*_20  and  O3*_21
REMARK                            x       y       z     vdW  Elec       q    Type
REMARK                         _______ _______ _______ _____ _____    ______ ____
ROOT
ATOM      1  N   UNL     1       3.789   6.148  17.831  0.00  0.00    +0.000 N 
ATOM      2  C   UNL     1       3.570   7.413  17.335  0.00  0.00    +0.000 A 
ATOM      3  C   UNL     1       2.709   8.050  18.193  0.00  0.00    +0.000 A 
ATOM      4 BR   UNL     1       2.100   9.815  18.000  0.00  0.00    +0.000 Br
ATOM      5  C   UNL     1       2.364   7.165  19.240  0.00  0.00    +0.000 A 
ATOM      6  C   UNL     1       1.577   7.199  20.401  0.00  0.00    +0.000 A 
ATOM      7  N   UNL     1       0.904   8.350  20.841  0.00  0.00    +0.000 N 
ATOM      8  N   UNL     1       1.469   6.067  21.144  0.00  0.00    +0.000 NA
ATOM      9  C   UNL     1       2.160   4.979  20.757  0.00  0.00    +0.000 A 
ATOM     10  N   UNL     1       2.976   4.850  19.700  0.00  0.00    +0.000 NA
ATOM     11  C   UNL     1       3.033   5.974  18.969  0.00  0.00    +0.000 A 
ATOM     12  H   UNL     1       0.837   9.085  20.143  0.00  0.00    +0.000 HD
ENDROOT
BRANCH   1  15
ATOM     13  C4* UNL     1       6.891   4.746  18.165  0.00  0.00    +0.000 C 
ATOM     14  O4* UNL     1       5.478   4.601  18.424  0.00  0.00    +0.000 OA
ATOM     15  C1* UNL     1       4.735   5.168  17.307  0.00  0.00    +0.000 C 
ATOM     16  C2* UNL     1       5.762   5.737  16.318  0.00  0.00    +0.000 C 
ATOM     17  C3* UNL     1       7.004   4.921  16.657  0.00  0.00    +0.000 C 
BRANCH  16  18
ATOM     18  O2* UNL     1       5.407   5.555  14.948  0.00  0.00    +0.000 OA
ATOM     19  H2* UNL     1       5.017   6.409  14.654  0.00  0.00    +0.000 HD
ENDBRANCH  16  18
BRANCH  17  20
ATOM     20  O3* UNL     1       6.891   3.654  15.972  0.00  0.00    +0.000 OA
ATOM     21  H3* UNL     1       7.674   3.112  16.189  0.00  0.00    +0.000 HD
ENDBRANCH  17  20
BRANCH  13  22
ATOM     22  C5* UNL     1       7.448   5.928  18.967  0.00  0.00    +0.000 C 
BRANCH  22  23
ATOM     23  O5* UNL     1       7.838   5.513  20.265  0.00  0.00    +0.000 OA
ATOM     24  H5* UNL     1       8.231   6.287  20.710  0.00  0.00    +0.000 HD
ENDBRANCH  22  23
ENDBRANCH  13  22
ENDBRANCH   1  15
BRANCH   7  25
ATOM     25  O   UNL     1      -0.233   8.203  21.636  0.00  0.00    +0.000 OA
ATOM     26  H   UNL     1       0.006   8.697  22.448  0.00  0.00    +0.000 HD
ENDBRANCH   7  25
TORSDOF 6
ENDMDL
MODEL 5
REMARK VINA RESULT:      -6.6      1.430      1.430
REMARK  Name = 
REMARK  6 active torsions:
REMARK  status: ('A' for Active; 'I' for Inactive)
REMARK    1  A    between atoms: O5*_1  and  C5*_2
REMARK    2  A    between atoms: C5*_2  and  C4*_3
REMARK    3  A    between atoms: C1*_5  and  N_6
REMARK    4  A    between atoms: N_12  and  O_13
REMARK    5  A    between atoms: C2*_18  and  O2*_19
REMARK    6  A    between atoms: C3*_20  and  O3*_21
REMARK                            x       y       z     vdW  Elec       q    Type
REMARK                         _______ _______ _______ _____ _____    ______ ____
ROOT
ATOM      1  N   UNL     1       4.159   5.109  17.791  0.00  0.00    +0.000 N 
ATOM      2  C   UNL     1       3.671   6.134  18.568  0.00  0.00    +0.000 A 
ATOM      3  C   UNL     1       2.619   5.638  19.296  0.00  0.00    +0.000 A 
ATOM      4 BR   UNL     1       1.610   6.616  20.540  0.00  0.00    +0.000 Br
ATOM      5  C   UNL     1       2.428   4.279  18.960  0.00  0.00    +0.000 A 
ATOM      6  C   UNL     1       1.573   3.233  19.342  0.00  0.00    +0.000 A 
ATOM      7  N   UNL     1       0.608   3.359  20.352  0.00  0.00    +0.000 N 
ATOM      8  N   UNL     1       1.695   2.036  18.712  0.00  0.00    +0.000 NA
ATOM      9  C   UNL     1       2.660   1.894  17.784  0.00  0.00    +0.000 A 
ATOM     10  N   UNL     1       3.557   2.805  17.379  0.00  0.00    +0.000 NA
ATOM     11  C   UNL     1       3.388   3.986  17.994  0.00  0.00    +0.000 A 
ATOM     12  H   UNL     1       0.412   4.318  20.624  0.00  0.00    +0.000 HD
ENDROOT
BRANCH   1  15
ATOM     13  C4* UNL     1       7.567   5.393  17.732  0.00  0.00    +0.000 C 
ATOM     14  O4* UNL     1       6.440   4.493  17.664  0.00  0.00    +0.000 OA
ATOM     15  C1* UNL     1       5.354   5.153  16.953  0.00  0.00    +0.000 C 
ATOM     16  C2* UNL     1       5.833   6.567  16.599  0.00  0.00    +0.000 C 
ATOM     17  C3* UNL     1       7.347   6.392  16.604  0.00  0.00    +0.000 C 
BRANCH  16  18
ATOM     18  O2* UNL     1       5.389   7.025  15.322  0.00  0.00    +0.000 OA
ATOM     19  H2* UNL     1       4.997   6.243  14.876  0.00  0.00    +0.000 HD
ENDBRANCH  16  18
BRANCH  17  20
ATOM     20  O3* UNL     1       7.722   5.832  15.326  0.00  0.00    +0.000 OA
ATOM     21  H3* UNL     1       8.586   5.387  15.423  0.00  0.00    +0.000 HD
ENDBRANCH  17  20
BRANCH  13  22
ATOM     22  C5* UNL     1       7.637   6.037  19.121  0.00  0.00    +0.000 C 
BRANCH  22  23
ATOM     23  O5* UNL     1       8.490   5.292  19.975  0.00  0.00    +0.000 OA
ATOM     24  H5* UNL     1       9.044   4.726  19.406  0.00  0.00    +0.000 HD
ENDBRANCH  22  23
ENDBRANCH  13  22
ENDBRANCH   1  15
BRANCH   7  25
ATOM     25  O   UNL     1      -0.513   2.528  20.320  0.00  0.00    +0.000 OA
ATOM     26  H   UNL     1      -0.651   2.315  21.266  0.00  0.00    +0.000 HD
ENDBRANCH   7  25
TORSDOF 6
ENDMDL
MODEL 6
REMARK VINA RESULT:      -6.5      2.797      6.146
REMARK  Name = 
REMARK  6 active torsions:
REMARK  status: ('A' for Active; 'I' for Inactive)
REMARK    1  A    between atoms: O5*_1  and  C5*_2
REMARK    2  A    between atoms: C5*_2  and  C4*_3
REMARK    3  A    between atoms: C1*_5  and  N_6
REMARK    4  A    between atoms: N_12  and  O_13
REMARK    5  A    between atoms: C2*_18  and  O2*_19
REMARK    6  A    between atoms: C3*_20  and  O3*_21
REMARK                            x       y       z     vdW  Elec       q    Type
REMARK                         _______ _______ _______ _____ _____    ______ ____
ROOT
ATOM      1  N   UNL     1       4.395   4.200  18.789  0.00  0.00    +0.000 N 
ATOM      2  C   UNL     1       5.417   4.825  19.464  0.00  0.00    +0.000 A 
ATOM      3  C   UNL     1       6.311   5.286  18.529  0.00  0.00    +0.000 A 
ATOM      4 BR   UNL     1       7.880   6.239  18.913  0.00  0.00    +0.000 Br
ATOM      5  C   UNL     1       5.852   4.929  17.241  0.00  0.00    +0.000 A 
ATOM      6  C   UNL     1       6.269   5.107  15.913  0.00  0.00    +0.000 A 
ATOM      7  N   UNL     1       7.402   5.855  15.556  0.00  0.00    +0.000 N 
ATOM      8  N   UNL     1       5.534   4.539  14.922  0.00  0.00    +0.000 NA
ATOM      9  C   UNL     1       4.414   3.871  15.257  0.00  0.00    +0.000 A 
ATOM     10  N   UNL     1       3.899   3.683  16.481  0.00  0.00    +0.000 NA
ATOM     11  C   UNL     1       4.666   4.225  17.439  0.00  0.00    +0.000 A 
ATOM     12  H   UNL     1       8.026   6.061  16.331  0.00  0.00    +0.000 HD
ENDROOT
BRANCH   1  15
ATOM     13  C4* UNL     1       1.389   4.966  20.231  0.00  0.00    +0.000 C 
ATOM     14  O4* UNL     1       2.068   4.560  19.023  0.00  0.00    +0.000 OA
ATOM     15  C1* UNL     1       3.167   3.673  19.377  0.00  0.00    +0.000 C 
ATOM     16  C2* UNL     1       3.189   3.562  20.908  0.00  0.00    +0.000 C 
ATOM     17  C3* UNL     1       1.748   3.906  21.264  0.00  0.00    +0.000 C 
BRANCH  16  18
ATOM     18  O2* UNL     1       3.522   2.260  21.388  0.00  0.00    +0.000 OA
ATOM     19  H2* UNL     1       4.495   2.265  21.531  0.00  0.00    +0.000 HD
ENDBRANCH  16  18
BRANCH  17  20
ATOM     20  O3* UNL     1       0.959   2.710  21.084  0.00  0.00    +0.000 OA
ATOM     21  H3* UNL     1       0.111   2.822  21.556  0.00  0.00    +0.000 HD
ENDBRANCH  17  20
BRANCH  13  22
ATOM     22  C5* UNL     1       1.825   6.382  20.623  0.00  0.00    +0.000 C 
BRANCH  22  23
ATOM     23  O5* UNL     1       2.450   7.034  19.529  0.00  0.00    +0.000 OA
ATOM     24  H5* UNL     1       2.872   6.343  18.985  0.00  0.00    +0.000 HD
ENDBRANCH  22  23
ENDBRANCH  13  22
ENDBRANCH   1  15
BRANCH   7  25
ATOM     25  O   UNL     1       8.050   5.564  14.355  0.00  0.00    +0.000 OA
ATOM     26  H   UNL     1       7.315   5.567  13.706  0.00  0.00    +0.000 HD
ENDBRANCH   7  25
TORSDOF 6
ENDMDL
MODEL 7
REMARK VINA RESULT:      -6.5      4.402      6.138
REMARK  Name = 
REMARK  6 active torsions:
REMARK  status: ('A' for Active; 'I' for Inactive)
REMARK    1  A    between atoms: O5*_1  and  C5*_2
REMARK    2  A    between atoms: C5*_2  and  C4*_3
REMARK    3  A    between atoms: C1*_5  and  N_6
REMARK    4  A    between atoms: N_12  and  O_13
REMARK    5  A    between atoms: C2*_18  and  O2*_19
REMARK    6  A    between atoms: C3*_20  and  O3*_21
REMARK                            x       y       z     vdW  Elec       q    Type
REMARK                         _______ _______ _______ _____ _____    ______ ____
ROOT
ATOM      1  N   UNL     1       2.149   7.841  18.859  0.00  0.00    +0.000 N 
ATOM      2  C   UNL     1       3.027   7.983  17.809  0.00  0.00    +0.000 A 
ATOM      3  C   UNL     1       3.775   6.834  17.737  0.00  0.00    +0.000 A 
ATOM      4 BR   UNL     1       5.107   6.490  16.462  0.00  0.00    +0.000 Br
ATOM      5  C   UNL     1       3.372   5.959  18.771  0.00  0.00    +0.000 A 
ATOM      6  C   UNL     1       3.707   4.671  19.221  0.00  0.00    +0.000 A 
ATOM      7  N   UNL     1       4.640   3.849  18.572  0.00  0.00    +0.000 N 
ATOM      8  N   UNL     1       3.089   4.193  20.331  0.00  0.00    +0.000 NA
ATOM      9  C   UNL     1       2.150   4.956  20.922  0.00  0.00    +0.000 A 
ATOM     10  N   UNL     1       1.719   6.171  20.552  0.00  0.00    +0.000 NA
ATOM     11  C   UNL     1       2.374   6.630  19.474  0.00  0.00    +0.000 A 
ATOM     12  H   UNL     1       5.223   4.333  17.895  0.00  0.00    +0.000 HD
ENDROOT
BRANCH   1  15
ATOM     13  C4* UNL     1       0.974  11.045  18.614  0.00  0.00    +0.000 C 
ATOM     14  O4* UNL     1       0.877   9.693  18.115  0.00  0.00    +0.000 OA
ATOM     15  C1* UNL     1       1.081   8.768  19.222  0.00  0.00    +0.000 C 
ATOM     16  C2* UNL     1       1.364   9.610  20.473  0.00  0.00    +0.000 C 
ATOM     17  C3* UNL     1       0.709  10.937  20.109  0.00  0.00    +0.000 C 
BRANCH  16  18
ATOM     18  O2* UNL     1       0.787   9.082  21.668  0.00  0.00    +0.000 OA
ATOM     19  H2* UNL     1       1.474   8.503  22.066  0.00  0.00    +0.000 HD
ENDBRANCH  16  18
BRANCH  17  20
ATOM     20  O3* UNL     1      -0.704  10.813  20.385  0.00  0.00    +0.000 OA
ATOM     21  H3* UNL     1      -1.040  11.682  20.678  0.00  0.00    +0.000 HD
ENDBRANCH  17  20
BRANCH  13  22
ATOM     22  C5* UNL     1       2.349  11.628  18.271  0.00  0.00    +0.000 C 
BRANCH  22  23
ATOM     23  O5* UNL     1       2.217  12.742  17.403  0.00  0.00    +0.000 OA
ATOM     24  H5* UNL     1       2.405  13.541  17.930  0.00  0.00    +0.000 HD
ENDBRANCH  22  23
ENDBRANCH  13  22
ENDBRANCH   1  15
BRANCH   7  25
ATOM     25  O   UNL     1       5.305   2.870  19.311  0.00  0.00    +0.000 OA
ATOM     26  H   UNL     1       5.999   2.565  18.691  0.00  0.00    +0.000 HD
ENDBRANCH   7  25
TORSDOF 6
ENDMDL
MODEL 8
REMARK VINA RESULT:      -6.5      3.701      5.671
REMARK  Name = 
REMARK  6 active torsions:
REMARK  status: ('A' for Active; 'I' for Inactive)
REMARK    1  A    between atoms: O5*_1  and  C5*_2
REMARK    2  A    between atoms: C5*_2  and  C4*_3
REMARK    3  A    between atoms: C1*_5  and  N_6
REMARK    4  A    between atoms: N_12  and  O_13
REMARK    5  A    between atoms: C2*_18  and  O2*_19
REMARK    6  A    between atoms: C3*_20  and  O3*_21
REMARK                            x       y       z     vdW  Elec       q    Type
REMARK                         _______ _______ _______ _____ _____    ______ ____
ROOT
ATOM      1  N   UNL     1       2.270   6.610  19.832  0.00  0.00    +0.000 N 
ATOM      2  C   UNL     1       1.744   5.745  20.764  0.00  0.00    +0.000 A 
ATOM      3  C   UNL     1       2.207   4.487  20.470  0.00  0.00    +0.000 A 
ATOM      4 BR   UNL     1       1.815   2.935  21.448  0.00  0.00    +0.000 Br
ATOM      5  C   UNL     1       3.026   4.557  19.320  0.00  0.00    +0.000 A 
ATOM      6  C   UNL     1       3.790   3.671  18.544  0.00  0.00    +0.000 A 
ATOM      7  N   UNL     1       3.948   2.313  18.858  0.00  0.00    +0.000 N 
ATOM      8  N   UNL     1       4.418   4.154  17.441  0.00  0.00    +0.000 NA
ATOM      9  C   UNL     1       4.317   5.469  17.170  0.00  0.00    +0.000 A 
ATOM     10  N   UNL     1       3.659   6.409  17.866  0.00  0.00    +0.000 NA
ATOM     11  C   UNL     1       3.021   5.893  18.928  0.00  0.00    +0.000 A 
ATOM     12  H   UNL     1       3.288   1.966  19.549  0.00  0.00    +0.000 HD
ENDROOT
BRANCH   1  15
ATOM     13  C4* UNL     1       0.591   9.303  21.108  0.00  0.00    +0.000 C 
ATOM     14  O4* UNL     1       1.784   8.493  21.180  0.00  0.00    +0.000 OA
ATOM     15  C1* UNL     1       2.143   8.064  19.835  0.00  0.00    +0.000 C 
ATOM     16  C2* UNL     1       1.074   8.614  18.881  0.00  0.00    +0.000 C 
ATOM     17  C3* UNL     1       0.534   9.801  19.670  0.00  0.00    +0.000 C 
BRANCH  16  18
ATOM     18  O2* UNL     1       1.590   9.047  17.622  0.00  0.00    +0.000 OA
ATOM     19  H2* UNL     1       2.198   9.793  17.822  0.00  0.00    +0.000 HD
ENDBRANCH  16  18
BRANCH  17  20
ATOM     20  O3* UNL     1       1.439  10.907  19.461  0.00  0.00    +0.000 OA
ATOM     21  H3* UNL     1       0.925  11.738  19.481  0.00  0.00    +0.000 HD
ENDBRANCH  17  20
BRANCH  13  22
ATOM     22  C5* UNL     1      -0.629   8.473  21.522  0.00  0.00    +0.000 C 
BRANCH  22  23
ATOM     23  O5* UNL     1      -0.889   8.622  22.908  0.00  0.00    +0.000 OA
ATOM     24  H5* UNL     1      -0.088   9.007  23.311  0.00  0.00    +0.000 HD
ENDBRANCH  22  23
ENDBRANCH  13  22
ENDBRANCH   1  15
BRANCH   7  25
ATOM     25  O   UNL     1       4.236   1.413  17.832  0.00  0.00    +0.000 OA
ATOM     26  H   UNL     1       5.198   1.260  17.942  0.00  0.00    +0.000 HD
ENDBRANCH   7  25
TORSDOF 6
ENDMDL
MODEL 9
REMARK VINA RESULT:      -6.5      2.711      5.876
REMARK  Name = 
REMARK  6 active torsions:
REMARK  status: ('A' for Active; 'I' for Inactive)
REMARK    1  A    between atoms: O5*_1  and  C5*_2
REMARK    2  A    between atoms: C5*_2  and  C4*_3
REMARK    3  A    between atoms: C1*_5  and  N_6
REMARK    4  A    between atoms: N_12  and  O_13
REMARK    5  A    between atoms: C2*_18  and  O2*_19
REMARK    6  A    between atoms: C3*_20  and  O3*_21
REMARK                            x       y       z     vdW  Elec       q    Type
REMARK                         _______ _______ _______ _____ _____    ______ ____
ROOT
ATOM      1  N   UNL     1       4.199   4.526  18.020  0.00  0.00    +0.000 N 
ATOM      2  C   UNL     1       3.323   5.578  17.881  0.00  0.00    +0.000 A 
ATOM      3  C   UNL     1       4.068   6.714  17.683  0.00  0.00    +0.000 A 
ATOM      4 BR   UNL     1       3.367   8.432  17.408  0.00  0.00    +0.000 Br
ATOM      5  C   UNL     1       5.440   6.374  17.715  0.00  0.00    +0.000 A 
ATOM      6  C   UNL     1       6.669   7.035  17.565  0.00  0.00    +0.000 A 
ATOM      7  N   UNL     1       6.776   8.398  17.247  0.00  0.00    +0.000 N 
ATOM      8  N   UNL     1       7.812   6.319  17.724  0.00  0.00    +0.000 NA
ATOM      9  C   UNL     1       7.714   5.000  17.970  0.00  0.00    +0.000 A 
ATOM     10  N   UNL     1       6.599   4.261  18.083  0.00  0.00    +0.000 NA
ATOM     11  C   UNL     1       5.489   5.003  17.957  0.00  0.00    +0.000 A 
ATOM     12  H   UNL     1       5.912   8.921  17.362  0.00  0.00    +0.000 HD
ENDROOT
BRANCH   1  15
ATOM     13  C4* UNL     1       1.717   2.275  18.710  0.00  0.00    +0.000 C 
ATOM     14  O4* UNL     1       2.465   2.952  17.677  0.00  0.00    +0.000 OA
ATOM     15  C1* UNL     1       3.842   3.114  18.123  0.00  0.00    +0.000 C 
ATOM     16  C2* UNL     1       3.933   2.534  19.542  0.00  0.00    +0.000 C 
ATOM     17  C3* UNL     1       2.763   1.558  19.554  0.00  0.00    +0.000 C 
BRANCH  16  18
ATOM     18  O2* UNL     1       5.156   1.849  19.809  0.00  0.00    +0.000 OA
ATOM     19  H2* UNL     1       5.673   1.882  18.973  0.00  0.00    +0.000 HD
ENDBRANCH  16  18
BRANCH  17  20
ATOM     20  O3* UNL     1       3.208   0.341  18.915  0.00  0.00    +0.000 OA
ATOM     21  H3* UNL     1       3.578  -0.251  19.598  0.00  0.00    +0.000 HD
ENDBRANCH  17  20
BRANCH  13  22
ATOM     22  C5* UNL     1       0.879   3.289  19.497  0.00  0.00    +0.000 C 
BRANCH  22  23
ATOM     23  O5* UNL     1       0.724   2.872  20.843  0.00  0.00    +0.000 OA
ATOM     24  H5* UNL     1       1.612   2.652  21.181  0.00  0.00    +0.000 HD
ENDBRANCH  22  23
ENDBRANCH  13  22
ENDBRANCH   1  15
BRANCH   7  25
ATOM     25  O   UNL     1       7.925   9.090  17.628  0.00  0.00    +0.000 OA
ATOM     26  H   UNL     1       7.687   9.434  18.514  0.00  0.00    +0.000 HD
ENDBRANCH   7  25
TORSDOF 6
ENDMDL
