MODEL 1
REMARK VINA RESULT:      -7.2      0.000      0.000
REMARK  Name = 
REMARK  6 active torsions:
REMARK  status: ('A' for Active; 'I' for Inactive)
REMARK    1  A    between atoms: C_1  and  C_2
REMARK    2  A    between atoms: C_6  and  C_7
REMARK    3  A    between atoms: C_13  and  C_14
REMARK    4  A    between atoms: C_14  and  O_15
REMARK    5  A    between atoms: O_15  and  C_16
REMARK    6  A    between atoms: C_16  and  C_17
REMARK                            x       y       z     vdW  Elec       q    Type
REMARK                         _______ _______ _______ _____ _____    ______ ____
ROOT
ATOM      1  C   UNL     1       2.502   2.773  18.286  0.00  0.00    +0.000 C 
ATOM      2  O   UNL     1       2.205   1.789  17.602  0.00  0.00    +0.000 OA
ATOM      3  N   UNL     1       3.048   3.919  17.697  0.00  0.00    +0.000 N 
ATOM      4  C   UNL     1       3.174   5.236  18.306  0.00  0.00    +0.000 C 
ATOM      5  C   UNL     1       4.656   5.558  18.498  0.00  0.00    +0.000 C 
ATOM      6  C   UNL     1       5.433   5.372  17.216  0.00  0.00    +0.000 A 
ATOM      7  C   UNL     1       6.718   5.930  17.060  0.00  0.00    +0.000 A 
ATOM      8  C   UNL     1       7.348   5.723  15.834  0.00  0.00    +0.000 A 
ATOM      9  N   UNL     1       6.823   5.016  14.808  0.00  0.00    +0.000 NA
ATOM     10  C   UNL     1       5.618   4.443  15.012  0.00  0.00    +0.000 A 
ATOM     11  C   UNL     1       4.889   4.565  16.189  0.00  0.00    +0.000 A 
ATOM     12  C   UNL     1       3.550   3.865  16.325  0.00  0.00    +0.000 C 
ENDROOT
BRANCH   1  18
ATOM     13  C   UNL     1       4.698   2.077  20.657  0.00  0.00    +0.000 C 
ATOM     14  C   UNL     1       3.263   2.438  20.697  0.00  0.00    +0.000 A 
ATOM     15  O   UNL     1       2.726   2.469  21.951  0.00  0.00    +0.000 OA
ATOM     16  C   UNL     1       1.447   2.876  21.833  0.00  0.00    +0.000 A 
ATOM     17  C   UNL     1       1.156   3.122  20.518  0.00  0.00    +0.000 A 
ATOM     18  C   UNL     1       2.297   2.757  19.741  0.00  0.00    +0.000 A 
ENDBRANCH   1  18
BRANCH   7  19
ATOM     19  C   UNL     1       7.418   6.729  18.135  0.00  0.00    +0.000 C 
BRANCH  19  20
ATOM     20  O   UNL     1       7.307   8.126  17.861  0.00  0.00    +0.000 OA
BRANCH  20  21
ATOM     21  C   UNL     1       8.581   8.764  17.782  0.00  0.00    +0.000 C 
BRANCH  21  22
ATOM     22  C   UNL     1       8.480  10.113  18.427  0.00  0.00    +0.000 C 
ATOM     23  C   UNL     1       9.429  10.513  19.531  0.00  0.00    +0.000 C 
ATOM     24  C   UNL     1       9.521  11.180  18.187  0.00  0.00    +0.000 C 
ENDBRANCH  21  22
ENDBRANCH  20  21
ENDBRANCH  19  20
ENDBRANCH   7  19
TORSDOF 5
ENDMDL
MODEL 2
REMARK VINA RESULT:      -7.0      2.548      5.157
REMARK  Name = 
REMARK  6 active torsions:
REMARK  status: ('A' for Active; 'I' for Inactive)
REMARK    1  A    between atoms: C_1  and  C_2
REMARK    2  A    between atoms: C_6  and  C_7
REMARK    3  A    between atoms: C_13  and  C_14
REMARK    4  A    between atoms: C_14  and  O_15
REMARK    5  A    between atoms: O_15  and  C_16
REMARK    6  A    between atoms: C_16  and  C_17
REMARK                            x       y       z     vdW  Elec       q    Type
REMARK                         _______ _______ _______ _____ _____    ______ ____
ROOT
ATOM      1  C   UNL     1       3.111   4.798  19.873  0.00  0.00    +0.000 C 
ATOM      2  O   UNL     1       2.890   5.780  20.588  0.00  0.00    +0.000 OA
ATOM      3  N   UNL     1       4.385   4.568  19.343  0.00  0.00    +0.000 N 
ATOM      4  C   UNL     1       4.868   3.332  18.742  0.00  0.00    +0.000 C 
ATOM      5  C   UNL     1       5.129   3.569  17.255  0.00  0.00    +0.000 C 
ATOM      6  C   UNL     1       6.013   4.774  17.033  0.00  0.00    +0.000 A 
ATOM      7  C   UNL     1       6.662   4.979  15.799  0.00  0.00    +0.000 A 
ATOM      8  C   UNL     1       7.474   6.107  15.696  0.00  0.00    +0.000 A 
ATOM      9  N   UNL     1       7.662   7.013  16.682  0.00  0.00    +0.000 NA
ATOM     10  C   UNL     1       6.977   6.820  17.830  0.00  0.00    +0.000 A 
ATOM     11  C   UNL     1       6.131   5.742  18.057  0.00  0.00    +0.000 A 
ATOM     12  C   UNL     1       5.393   5.627  19.378  0.00  0.00    +0.000 C 
ENDROOT
BRANCH   1  18
ATOM     13  C   UNL     1       1.659   2.596  21.864  0.00  0.00    +0.000 C 
ATOM     14  C   UNL     1       1.467   2.932  20.436  0.00  0.00    +0.000 A 
ATOM     15  O   UNL     1       0.526   2.174  19.802  0.00  0.00    +0.000 OA
ATOM     16  C   UNL     1       0.416   2.638  18.542  0.00  0.00    +0.000 A 
ATOM     17  C   UNL     1       1.265   3.697  18.359  0.00  0.00    +0.000 A 
ATOM     18  C   UNL     1       2.032   3.854  19.553  0.00  0.00    +0.000 A 
ENDBRANCH   1  18
BRANCH   7  19
ATOM     19  C   UNL     1       6.524   4.048  14.616  0.00  0.00    +0.000 C 
BRANCH  19  20
ATOM     20  O   UNL     1       6.892   4.722  13.413  0.00  0.00    +0.000 OA
BRANCH  20  21
ATOM     21  C   UNL     1       6.842   3.862  12.275  0.00  0.00    +0.000 C 
BRANCH  21  22
ATOM     22  C   UNL     1       5.619   3.003  12.380  0.00  0.00    +0.000 C 
ATOM     23  C   UNL     1       4.431   3.240  11.476  0.00  0.00    +0.000 C 
ATOM     24  C   UNL     1       5.267   2.001  11.307  0.00  0.00    +0.000 C 
ENDBRANCH  21  22
ENDBRANCH  20  21
ENDBRANCH  19  20
ENDBRANCH   7  19
TORSDOF 5
ENDMDL
MODEL 3
REMARK VINA RESULT:      -6.7      0.934      1.442
REMARK  Name = 
REMARK  6 active torsions:
REMARK  status: ('A' for Active; 'I' for Inactive)
REMARK    1  A    between atoms: C_1  and  C_2
REMARK    2  A    between atoms: C_6  and  C_7
REMARK    3  A    between atoms: C_13  and  C_14
REMARK    4  A    between atoms: C_14  and  O_15
REMARK    5  A    between atoms: O_15  and  C_16
REMARK    6  A    between atoms: C_16  and  C_17
REMARK                            x       y       z     vdW  Elec       q    Type
REMARK                         _______ _______ _______ _____ _____    ______ ____
ROOT
ATOM      1  C   UNL     1       3.372   2.316  18.303  0.00  0.00    +0.000 C 
ATOM      2  O   UNL     1       3.597   1.156  17.944  0.00  0.00    +0.000 OA
ATOM      3  N   UNL     1       3.673   3.398  17.467  0.00  0.00    +0.000 N 
ATOM      4  C   UNL     1       3.208   4.770  17.617  0.00  0.00    +0.000 C 
ATOM      5  C   UNL     1       4.403   5.669  17.936  0.00  0.00    +0.000 C 
ATOM      6  C   UNL     1       5.520   5.480  16.936  0.00  0.00    +0.000 A 
ATOM      7  C   UNL     1       6.556   6.428  16.820  0.00  0.00    +0.000 A 
ATOM      8  C   UNL     1       7.530   6.178  15.854  0.00  0.00    +0.000 A 
ATOM      9  N   UNL     1       7.555   5.093  15.048  0.00  0.00    +0.000 NA
ATOM     10  C   UNL     1       6.582   4.174  15.227  0.00  0.00    +0.000 A 
ATOM     11  C   UNL     1       5.559   4.299  16.159  0.00  0.00    +0.000 A 
ATOM     12  C   UNL     1       4.522   3.199  16.293  0.00  0.00    +0.000 C 
ENDROOT
BRANCH   1  18
ATOM     13  C   UNL     1       0.194   2.759  19.095  0.00  0.00    +0.000 C 
ATOM     14  C   UNL     1       1.437   2.780  19.898  0.00  0.00    +0.000 A 
ATOM     15  O   UNL     1       1.247   3.061  21.219  0.00  0.00    +0.000 OA
ATOM     16  C   UNL     1       2.448   2.977  21.826  0.00  0.00    +0.000 A 
ATOM     17  C   UNL     1       3.408   2.631  20.913  0.00  0.00    +0.000 A 
ATOM     18  C   UNL     1       2.792   2.586  19.626  0.00  0.00    +0.000 A 
ENDBRANCH   1  18
BRANCH   7  19
ATOM     19  C   UNL     1       6.649   7.674  17.670  0.00  0.00    +0.000 C 
BRANCH  19  20
ATOM     20  O   UNL     1       7.823   8.413  17.333  0.00  0.00    +0.000 OA
BRANCH  20  21
ATOM     21  C   UNL     1       8.576   8.786  18.488  0.00  0.00    +0.000 C 
BRANCH  21  22
ATOM     22  C   UNL     1       8.665  10.281  18.535  0.00  0.00    +0.000 C 
ATOM     23  C   UNL     1       9.629  10.967  19.475  0.00  0.00    +0.000 C 
ATOM     24  C   UNL     1       9.867  11.015  17.991  0.00  0.00    +0.000 C 
ENDBRANCH  21  22
ENDBRANCH  20  21
ENDBRANCH  19  20
ENDBRANCH   7  19
TORSDOF 5
ENDMDL
MODEL 4
REMARK VINA RESULT:      -6.7      2.634      5.383
REMARK  Name = 
REMARK  6 active torsions:
REMARK  status: ('A' for Active; 'I' for Inactive)
REMARK    1  A    between atoms: C_1  and  C_2
REMARK    2  A    between atoms: C_6  and  C_7
REMARK    3  A    between atoms: C_13  and  C_14
REMARK    4  A    between atoms: C_14  and  O_15
REMARK    5  A    between atoms: O_15  and  C_16
REMARK    6  A    between atoms: C_16  and  C_17
REMARK                            x       y       z     vdW  Elec       q    Type
REMARK                         _______ _______ _______ _____ _____    ______ ____
ROOT
ATOM      1  C   UNL     1       3.228   4.735  19.643  0.00  0.00    +0.000 C 
ATOM      2  O   UNL     1       3.153   5.766  20.319  0.00  0.00    +0.000 OA
ATOM      3  N   UNL     1       4.429   4.367  19.025  0.00  0.00    +0.000 N 
ATOM      4  C   UNL     1       4.752   3.066  18.456  0.00  0.00    +0.000 C 
ATOM      5  C   UNL     1       4.902   3.206  16.941  0.00  0.00    +0.000 C 
ATOM      6  C   UNL     1       5.862   4.316  16.581  0.00  0.00    +0.000 A 
ATOM      7  C   UNL     1       6.417   4.403  15.289  0.00  0.00    +0.000 A 
ATOM      8  C   UNL     1       7.310   5.449  15.058  0.00  0.00    +0.000 A 
ATOM      9  N   UNL     1       7.657   6.382  15.973  0.00  0.00    +0.000 NA
ATOM     10  C   UNL     1       7.061   6.306  17.182  0.00  0.00    +0.000 A 
ATOM     11  C   UNL     1       6.149   5.319  17.537  0.00  0.00    +0.000 A 
ATOM     12  C   UNL     1       5.521   5.334  18.918  0.00  0.00    +0.000 C 
ENDROOT
BRANCH   1  18
ATOM     13  C   UNL     1       1.771   2.772  21.868  0.00  0.00    +0.000 C 
ATOM     14  C   UNL     1       1.487   3.052  20.443  0.00  0.00    +0.000 A 
ATOM     15  O   UNL     1       0.435   2.350  19.931  0.00  0.00    +0.000 OA
ATOM     16  C   UNL     1       0.257   2.759  18.659  0.00  0.00    +0.000 A 
ATOM     17  C   UNL     1       1.173   3.728  18.349  0.00  0.00    +0.000 A 
ATOM     18  C   UNL     1       2.050   3.875  19.466  0.00  0.00    +0.000 A 
ENDBRANCH   1  18
BRANCH   7  19
ATOM     19  C   UNL     1       6.100   3.431  14.176  0.00  0.00    +0.000 C 
BRANCH  19  20
ATOM     20  O   UNL     1       5.307   4.072  13.175  0.00  0.00    +0.000 OA
BRANCH  20  21
ATOM     21  C   UNL     1       5.182   3.277  11.995  0.00  0.00    +0.000 C 
BRANCH  21  22
ATOM     22  C   UNL     1       6.209   2.187  12.044  0.00  0.00    +0.000 C 
ATOM     23  C   UNL     1       6.191   1.066  11.033  0.00  0.00    +0.000 C 
ATOM     24  C   UNL     1       7.296   2.084  11.002  0.00  0.00    +0.000 C 
ENDBRANCH  21  22
ENDBRANCH  20  21
ENDBRANCH  19  20
ENDBRANCH   7  19
TORSDOF 5
ENDMDL
MODEL 5
REMARK VINA RESULT:      -6.5      5.094      7.731
REMARK  Name = 
REMARK  6 active torsions:
REMARK  status: ('A' for Active; 'I' for Inactive)
REMARK    1  A    between atoms: C_1  and  C_2
REMARK    2  A    between atoms: C_6  and  C_7
REMARK    3  A    between atoms: C_13  and  C_14
REMARK    4  A    between atoms: C_14  and  O_15
REMARK    5  A    between atoms: O_15  and  C_16
REMARK    6  A    between atoms: C_16  and  C_17
REMARK                            x       y       z     vdW  Elec       q    Type
REMARK                         _______ _______ _______ _____ _____    ______ ____
ROOT
ATOM      1  C   UNL     1       0.952  10.956  20.492  0.00  0.00    +0.000 C 
ATOM      2  O   UNL     1       0.697  10.984  21.700  0.00  0.00    +0.000 OA
ATOM      3  N   UNL     1       0.929   9.751  19.780  0.00  0.00    +0.000 N 
ATOM      4  C   UNL     1       0.916   9.594  18.333  0.00  0.00    +0.000 C 
ATOM      5  C   UNL     1       2.227   8.947  17.888  0.00  0.00    +0.000 C 
ATOM      6  C   UNL     1       2.509   7.681  18.664  0.00  0.00    +0.000 A 
ATOM      7  C   UNL     1       3.456   6.745  18.203  0.00  0.00    +0.000 A 
ATOM      8  C   UNL     1       3.632   5.597  18.975  0.00  0.00    +0.000 A 
ATOM      9  N   UNL     1       2.977   5.337  20.129  0.00  0.00    +0.000 NA
ATOM     10  C   UNL     1       2.122   6.283  20.574  0.00  0.00    +0.000 A 
ATOM     11  C   UNL     1       1.863   7.472  19.905  0.00  0.00    +0.000 A 
ATOM     12  C   UNL     1       0.896   8.479  20.501  0.00  0.00    +0.000 C 
ENDROOT
BRANCH   1  18
ATOM     13  C   UNL     1      -0.941  12.743  18.456  0.00  0.00    +0.000 C 
ATOM     14  C   UNL     1       0.458  12.897  18.914  0.00  0.00    +0.000 A 
ATOM     15  O   UNL     1       1.110  13.969  18.377  0.00  0.00    +0.000 OA
ATOM     16  C   UNL     1       2.336  14.016  18.935  0.00  0.00    +0.000 A 
ATOM     17  C   UNL     1       2.477  12.995  19.837  0.00  0.00    +0.000 A 
ATOM     18  C   UNL     1       1.298  12.192  19.776  0.00  0.00    +0.000 A 
ENDBRANCH   1  18
BRANCH   7  19
ATOM     19  C   UNL     1       4.262   6.925  16.937  0.00  0.00    +0.000 C 
BRANCH  19  20
ATOM     20  O   UNL     1       5.642   7.113  17.254  0.00  0.00    +0.000 OA
BRANCH  20  21
ATOM     21  C   UNL     1       6.478   6.141  16.627  0.00  0.00    +0.000 C 
BRANCH  21  22
ATOM     22  C   UNL     1       5.642   5.333  15.682  0.00  0.00    +0.000 C 
ATOM     23  C   UNL     1       6.271   4.647  14.492  0.00  0.00    +0.000 C 
ATOM     24  C   UNL     1       5.741   3.827  15.635  0.00  0.00    +0.000 C 
ENDBRANCH  21  22
ENDBRANCH  20  21
ENDBRANCH  19  20
ENDBRANCH   7  19
TORSDOF 5
ENDMDL
MODEL 6
REMARK VINA RESULT:      -6.5      3.879      7.037
REMARK  Name = 
REMARK  6 active torsions:
REMARK  status: ('A' for Active; 'I' for Inactive)
REMARK    1  A    between atoms: C_1  and  C_2
REMARK    2  A    between atoms: C_6  and  C_7
REMARK    3  A    between atoms: C_13  and  C_14
REMARK    4  A    between atoms: C_14  and  O_15
REMARK    5  A    between atoms: O_15  and  C_16
REMARK    6  A    between atoms: C_16  and  C_17
REMARK                            x       y       z     vdW  Elec       q    Type
REMARK                         _______ _______ _______ _____ _____    ______ ____
ROOT
ATOM      1  C   UNL     1       2.021   9.588  17.963  0.00  0.00    +0.000 C 
ATOM      2  O   UNL     1       2.610  10.487  17.355  0.00  0.00    +0.000 OA
ATOM      3  N   UNL     1       2.691   8.418  18.339  0.00  0.00    +0.000 N 
ATOM      4  C   UNL     1       2.230   7.419  19.293  0.00  0.00    +0.000 C 
ATOM      5  C   UNL     1       1.951   6.111  18.552  0.00  0.00    +0.000 C 
ATOM      6  C   UNL     1       3.133   5.690  17.710  0.00  0.00    +0.000 A 
ATOM      7  C   UNL     1       3.243   4.372  17.224  0.00  0.00    +0.000 A 
ATOM      8  C   UNL     1       4.380   4.073  16.474  0.00  0.00    +0.000 A 
ATOM      9  N   UNL     1       5.358   4.956  16.172  0.00  0.00    +0.000 NA
ATOM     10  C   UNL     1       5.191   6.225  16.600  0.00  0.00    +0.000 A 
ATOM     11  C   UNL     1       4.102   6.655  17.348  0.00  0.00    +0.000 A 
ATOM     12  C   UNL     1       4.001   8.110  17.766  0.00  0.00    +0.000 C 
ENDROOT
BRANCH   1  18
ATOM     13  C   UNL     1       0.667  10.456  20.850  0.00  0.00    +0.000 C 
ATOM     14  C   UNL     1       0.082  10.082  19.543  0.00  0.00    +0.000 A 
ATOM     15  O   UNL     1      -1.282  10.064  19.523  0.00  0.00    +0.000 OA
ATOM     16  C   UNL     1      -1.664   9.776  18.263  0.00  0.00    +0.000 A 
ATOM     17  C   UNL     1      -0.560   9.622  17.466  0.00  0.00    +0.000 A 
ATOM     18  C   UNL     1       0.597   9.725  18.296  0.00  0.00    +0.000 A 
ENDBRANCH   1  18
BRANCH   7  19
ATOM     19  C   UNL     1       2.213   3.297  17.481  0.00  0.00    +0.000 C 
BRANCH  19  20
ATOM     20  O   UNL     1       2.505   2.617  18.702  0.00  0.00    +0.000 OA
BRANCH  20  21
ATOM     21  C   UNL     1       1.322   2.184  19.375  0.00  0.00    +0.000 C 
BRANCH  21  22
ATOM     22  C   UNL     1       1.110   3.059  20.573  0.00  0.00    +0.000 C 
ATOM     23  C   UNL     1       1.566   2.614  21.943  0.00  0.00    +0.000 C 
ATOM     24  C   UNL     1       2.264   3.754  21.254  0.00  0.00    +0.000 C 
ENDBRANCH  21  22
ENDBRANCH  20  21
ENDBRANCH  19  20
ENDBRANCH   7  19
TORSDOF 5
ENDMDL
MODEL 7
REMARK VINA RESULT:      -6.5      2.640      5.358
REMARK  Name = 
REMARK  6 active torsions:
REMARK  status: ('A' for Active; 'I' for Inactive)
REMARK    1  A    between atoms: C_1  and  C_2
REMARK    2  A    between atoms: C_6  and  C_7
REMARK    3  A    between atoms: C_13  and  C_14
REMARK    4  A    between atoms: C_14  and  O_15
REMARK    5  A    between atoms: O_15  and  C_16
REMARK    6  A    between atoms: C_16  and  C_17
REMARK                            x       y       z     vdW  Elec       q    Type
REMARK                         _______ _______ _______ _____ _____    ______ ____
ROOT
ATOM      1  C   UNL     1       3.130   4.698  19.937  0.00  0.00    +0.000 C 
ATOM      2  O   UNL     1       3.023   5.715  20.631  0.00  0.00    +0.000 OA
ATOM      3  N   UNL     1       4.343   4.377  19.318  0.00  0.00    +0.000 N 
ATOM      4  C   UNL     1       4.707   3.097  18.727  0.00  0.00    +0.000 C 
ATOM      5  C   UNL     1       4.860   3.269  17.215  0.00  0.00    +0.000 C 
ATOM      6  C   UNL     1       5.789   4.413  16.881  0.00  0.00    +0.000 A 
ATOM      7  C   UNL     1       6.348   4.540  15.593  0.00  0.00    +0.000 A 
ATOM      8  C   UNL     1       7.210   5.615  15.386  0.00  0.00    +0.000 A 
ATOM      9  N   UNL     1       7.527   6.540  16.320  0.00  0.00    +0.000 NA
ATOM     10  C   UNL     1       6.927   6.424  17.524  0.00  0.00    +0.000 A 
ATOM     11  C   UNL     1       6.042   5.406  17.856  0.00  0.00    +0.000 A 
ATOM     12  C   UNL     1       5.408   5.376  19.234  0.00  0.00    +0.000 C 
ENDROOT
BRANCH   1  18
ATOM     13  C   UNL     1       1.297   4.299  17.216  0.00  0.00    +0.000 C 
ATOM     14  C   UNL     1       1.230   3.694  18.565  0.00  0.00    +0.000 A 
ATOM     15  O   UNL     1       0.199   2.817  18.736  0.00  0.00    +0.000 OA
ATOM     16  C   UNL     1       0.309   2.302  19.978  0.00  0.00    +0.000 A 
ATOM     17  C   UNL     1       1.409   2.827  20.603  0.00  0.00    +0.000 A 
ATOM     18  C   UNL     1       1.978   3.809  19.737  0.00  0.00    +0.000 A 
ENDBRANCH   1  18
BRANCH   7  19
ATOM     19  C   UNL     1       6.063   3.581  14.460  0.00  0.00    +0.000 C 
BRANCH  19  20
ATOM     20  O   UNL     1       6.604   4.087  13.239  0.00  0.00    +0.000 OA
BRANCH  20  21
ATOM     21  C   UNL     1       6.143   3.358  12.102  0.00  0.00    +0.000 C 
BRANCH  21  22
ATOM     22  C   UNL     1       4.656   3.519  12.004  0.00  0.00    +0.000 C 
ATOM     23  C   UNL     1       4.017   4.018  10.729  0.00  0.00    +0.000 C 
ATOM     24  C   UNL     1       3.819   2.590  11.158  0.00  0.00    +0.000 C 
ENDBRANCH  21  22
ENDBRANCH  20  21
ENDBRANCH  19  20
ENDBRANCH   7  19
TORSDOF 5
ENDMDL
MODEL 8
REMARK VINA RESULT:      -6.3      5.439      7.816
REMARK  Name = 
REMARK  6 active torsions:
REMARK  status: ('A' for Active; 'I' for Inactive)
REMARK    1  A    between atoms: C_1  and  C_2
REMARK    2  A    between atoms: C_6  and  C_7
REMARK    3  A    between atoms: C_13  and  C_14
REMARK    4  A    between atoms: C_14  and  O_15
REMARK    5  A    between atoms: O_15  and  C_16
REMARK    6  A    between atoms: C_16  and  C_17
REMARK                            x       y       z     vdW  Elec       q    Type
REMARK                         _______ _______ _______ _____ _____    ______ ____
ROOT
ATOM      1  C   UNL     1       0.899  11.389  20.447  0.00  0.00    +0.000 C 
ATOM      2  O   UNL     1       0.670  11.499  21.656  0.00  0.00    +0.000 OA
ATOM      3  N   UNL     1       0.793  10.151  19.805  0.00  0.00    +0.000 N 
ATOM      4  C   UNL     1       0.742   9.915  18.369  0.00  0.00    +0.000 C 
ATOM      5  C   UNL     1       2.006   9.170  17.940  0.00  0.00    +0.000 C 
ATOM      6  C   UNL     1       2.231   7.934  18.781  0.00  0.00    +0.000 A 
ATOM      7  C   UNL     1       3.114   6.921  18.357  0.00  0.00    +0.000 A 
ATOM      8  C   UNL     1       3.239   5.809  19.189  0.00  0.00    +0.000 A 
ATOM      9  N   UNL     1       2.593   5.652  20.367  0.00  0.00    +0.000 NA
ATOM     10  C   UNL     1       1.803   6.668  20.772  0.00  0.00    +0.000 A 
ATOM     11  C   UNL     1       1.598   7.832  20.042  0.00  0.00    +0.000 A 
ATOM     12  C   UNL     1       0.702   8.924  20.596  0.00  0.00    +0.000 C 
ENDROOT
BRANCH   1  18
ATOM     13  C   UNL     1      -0.850  14.117  19.795  0.00  0.00    +0.000 C 
ATOM     14  C   UNL     1       0.509  13.683  19.403  0.00  0.00    +0.000 A 
ATOM     15  O   UNL     1       1.168  14.562  18.594  0.00  0.00    +0.000 OA
ATOM     16  C   UNL     1       2.403  14.067  18.380  0.00  0.00    +0.000 A 
ATOM     17  C   UNL     1       2.554  12.884  19.055  0.00  0.00    +0.000 A 
ATOM     18  C   UNL     1       1.301  12.562  19.658  0.00  0.00    +0.000 A 
ENDBRANCH   1  18
BRANCH   7  19
ATOM     19  C   UNL     1       3.903   6.984  17.070  0.00  0.00    +0.000 C 
BRANCH  19  20
ATOM     20  O   UNL     1       4.745   5.836  16.952  0.00  0.00    +0.000 OA
BRANCH  20  21
ATOM     21  C   UNL     1       5.833   6.055  16.054  0.00  0.00    +0.000 C 
BRANCH  21  22
ATOM     22  C   UNL     1       7.110   6.031  16.838  0.00  0.00    +0.000 C 
ATOM     23  C   UNL     1       7.588   7.263  17.569  0.00  0.00    +0.000 C 
ATOM     24  C   UNL     1       7.106   6.071  18.347  0.00  0.00    +0.000 C 
ENDBRANCH  21  22
ENDBRANCH  20  21
ENDBRANCH  19  20
ENDBRANCH   7  19
TORSDOF 5
ENDMDL
MODEL 9
REMARK VINA RESULT:      -6.2      5.788      8.099
REMARK  Name = 
REMARK  6 active torsions:
REMARK  status: ('A' for Active; 'I' for Inactive)
REMARK    1  A    between atoms: C_1  and  C_2
REMARK    2  A    between atoms: C_6  and  C_7
REMARK    3  A    between atoms: C_13  and  C_14
REMARK    4  A    between atoms: C_14  and  O_15
REMARK    5  A    between atoms: O_15  and  C_16
REMARK    6  A    between atoms: C_16  and  C_17
REMARK                            x       y       z     vdW  Elec       q    Type
REMARK                         _______ _______ _______ _____ _____    ______ ____
ROOT
ATOM      1  C   UNL     1       2.298   5.675  20.102  0.00  0.00    +0.000 C 
ATOM      2  O   UNL     1       2.215   5.136  21.210  0.00  0.00    +0.000 OA
ATOM      3  N   UNL     1       2.240   7.067  19.974  0.00  0.00    +0.000 N 
ATOM      4  C   UNL     1       2.610   7.851  18.804  0.00  0.00    +0.000 C 
ATOM      5  C   UNL     1       1.357   8.511  18.229  0.00  0.00    +0.000 C 
ATOM      6  C   UNL     1       0.596   9.272  19.290  0.00  0.00    +0.000 A 
ATOM      7  C   UNL     1      -0.376  10.229  18.939  0.00  0.00    +0.000 A 
ATOM      8  C   UNL     1      -1.010  10.894  19.987  0.00  0.00    +0.000 A 
ATOM      9  N   UNL     1      -0.769  10.671  21.299  0.00  0.00    +0.000 NA
ATOM     10  C   UNL     1       0.124   9.704  21.602  0.00  0.00    +0.000 A 
ATOM     11  C   UNL     1       0.817   8.963  20.653  0.00  0.00    +0.000 A 
ATOM     12  C   UNL     1       1.787   7.885  21.099  0.00  0.00    +0.000 C 
ENDROOT
BRANCH   1  18
ATOM     13  C   UNL     1       5.077   4.495  18.757  0.00  0.00    +0.000 C 
ATOM     14  C   UNL     1       3.655   4.402  18.358  0.00  0.00    +0.000 A 
ATOM     15  O   UNL     1       3.441   3.719  17.196  0.00  0.00    +0.000 OA
ATOM     16  C   UNL     1       2.108   3.660  17.002  0.00  0.00    +0.000 A 
ATOM     17  C   UNL     1       1.459   4.285  18.034  0.00  0.00    +0.000 A 
ATOM     18  C   UNL     1       2.448   4.860  18.888  0.00  0.00    +0.000 A 
ENDBRANCH   1  18
BRANCH   7  19
ATOM     19  C   UNL     1      -0.746  10.560  17.511  0.00  0.00    +0.000 C 
BRANCH  19  20
ATOM     20  O   UNL     1      -1.774   9.683  17.053  0.00  0.00    +0.000 OA
BRANCH  20  21
ATOM     21  C   UNL     1      -2.723  10.351  16.221  0.00  0.00    +0.000 C 
BRANCH  21  22
ATOM     22  C   UNL     1      -3.432  11.384  17.043  0.00  0.00    +0.000 C 
ATOM     23  C   UNL     1      -4.902  11.662  16.831  0.00  0.00    +0.000 C 
ATOM     24  C   UNL     1      -4.440  10.994  18.097  0.00  0.00    +0.000 C 
ENDBRANCH  21  22
ENDBRANCH  20  21
ENDBRANCH  19  20
ENDBRANCH   7  19
TORSDOF 5
ENDMDL
