MODEL 1
REMARK VINA RESULT:      -8.5      0.000      0.000
REMARK  Name = 
REMARK  6 active torsions:
REMARK  status: ('A' for Active; 'I' for Inactive)
REMARK    1  A    between atoms: C_2  and  O_3
REMARK    2  A    between atoms: C_2  and  C_4
REMARK    3  A    between atoms: C_6  and  C_7
REMARK    4  A    between atoms: C_10  and  C_11
REMARK    5  A    between atoms: C_21  and  C_22
REMARK    6  A    between atoms: C_25  and  C_26
REMARK                            x       y       z     vdW  Elec       q    Type
REMARK                         _______ _______ _______ _____ _____    ______ ____
ROOT
ATOM      1  C   UNL     1      -2.476  11.130  17.656  0.00  0.00    +0.000 A 
ATOM      2  C   UNL     1      -2.434  11.803  18.877  0.00  0.00    +0.000 A 
ATOM      3  C   UNL     1      -1.461  11.506  19.854  0.00  0.00    +0.000 A 
ATOM      4  C   UNL     1      -0.520  10.471  19.575  0.00  0.00    +0.000 A 
ATOM      5  C   UNL     1       0.435  10.013  20.506  0.00  0.00    +0.000 A 
ATOM      6  C   UNL     1       1.441   9.116  20.158  0.00  0.00    +0.000 A 
ATOM      7  C   UNL     1       1.502   8.551  18.882  0.00  0.00    +0.000 A 
ATOM      8  C   UNL     1       0.489   8.914  17.976  0.00  0.00    +0.000 A 
ATOM      9  C   UNL     1      -0.511   9.854  18.297  0.00  0.00    +0.000 A 
ATOM     10  C   UNL     1      -1.492  10.191  17.352  0.00  0.00    +0.000 A 
ENDROOT
BRANCH   3  11
ATOM     11  C   UNL     1      -1.433  12.327  21.095  0.00  0.00    +0.000 A 
ATOM     12  C   UNL     1      -2.238  12.000  22.193  0.00  0.00    +0.000 A 
ATOM     13  C   UNL     1      -2.285  12.815  23.324  0.00  0.00    +0.000 A 
ATOM     14  C   UNL     1      -1.478  13.953  23.433  0.00  0.00    +0.000 A 
ATOM     15  C   UNL     1      -0.640  14.271  22.363  0.00  0.00    +0.000 A 
ATOM     16  C   UNL     1      -0.658  13.497  21.200  0.00  0.00    +0.000 A 
BRANCH  14  17
ATOM     17  C   UNL     1      -1.542  14.881  24.630  0.00  0.00    +0.000 C 
ATOM     18  C   UNL     1      -2.887  14.889  25.346  0.00  0.00    +0.000 C 
ATOM     19  C   UNL     1      -3.634  16.057  24.735  0.00  0.00    +0.000 C 
ATOM     20  N   UNL     1      -2.617  17.053  24.389  0.00  0.00    +0.000 NA
ATOM     21  C   UNL     1      -1.330  16.348  24.240  0.00  0.00    +0.000 C 
ATOM     22  H   UNL     1      -2.532  17.726  25.149  0.00  0.00    +0.000 HD
ENDBRANCH  14  17
ENDBRANCH   3  11
BRANCH   7  23
ATOM     23  C   UNL     1       2.579   7.605  18.530  0.00  0.00    +0.000 A 
ATOM     24  C   UNL     1       3.443   7.863  17.450  0.00  0.00    +0.000 A 
ATOM     25  C   UNL     1       4.449   6.968  17.082  0.00  0.00    +0.000 A 
ATOM     26  C   UNL     1       4.639   5.787  17.802  0.00  0.00    +0.000 A 
ATOM     27  C   UNL     1       3.792   5.516  18.885  0.00  0.00    +0.000 A 
ATOM     28  C   UNL     1       2.774   6.407  19.235  0.00  0.00    +0.000 A 
BRANCH  26  29
ATOM     29  C   UNL     1       5.741   4.825  17.436  0.00  0.00    +0.000 C 
ATOM     30  F   UNL     1       6.896   5.441  17.056  0.00  0.00    +0.000 F 
ATOM     31  F   UNL     1       6.079   4.006  18.470  0.00  0.00    +0.000 F 
ATOM     32  F   UNL     1       5.398   4.006  16.404  0.00  0.00    +0.000 F 
ENDBRANCH  26  29
ENDBRANCH   7  23
BRANCH   1  34
ATOM     33  O   UNL     1      -4.700  11.703  17.032  0.00  0.00    +0.000 OA
ATOM     34  C   UNL     1      -3.548  11.491  16.696  0.00  0.00    +0.000 C 
BRANCH  34  35
ATOM     35  O   UNL     1      -3.136  11.506  15.411  0.00  0.00    +0.000 OA
ATOM     36  H   UNL     1      -3.825  11.737  14.760  0.00  0.00    +0.000 HD
ENDBRANCH  34  35
ENDBRANCH   1  34
TORSDOF 6
ENDMDL
MODEL 2
REMARK VINA RESULT:      -8.4      0.098      1.050
REMARK  Name = 
REMARK  6 active torsions:
REMARK  status: ('A' for Active; 'I' for Inactive)
REMARK    1  A    between atoms: C_2  and  O_3
REMARK    2  A    between atoms: C_2  and  C_4
REMARK    3  A    between atoms: C_6  and  C_7
REMARK    4  A    between atoms: C_10  and  C_11
REMARK    5  A    between atoms: C_21  and  C_22
REMARK    6  A    between atoms: C_25  and  C_26
REMARK                            x       y       z     vdW  Elec       q    Type
REMARK                         _______ _______ _______ _____ _____    ______ ____
ROOT
ATOM      1  C   UNL     1      -2.482  11.192  17.689  0.00  0.00    +0.000 A 
ATOM      2  C   UNL     1      -2.427  11.871  18.906  0.00  0.00    +0.000 A 
ATOM      3  C   UNL     1      -1.452  11.571  19.880  0.00  0.00    +0.000 A 
ATOM      4  C   UNL     1      -0.520  10.528  19.600  0.00  0.00    +0.000 A 
ATOM      5  C   UNL     1       0.436  10.067  20.529  0.00  0.00    +0.000 A 
ATOM      6  C   UNL     1       1.433   9.160  20.180  0.00  0.00    +0.000 A 
ATOM      7  C   UNL     1       1.483   8.588  18.907  0.00  0.00    +0.000 A 
ATOM      8  C   UNL     1       0.468   8.954  18.005  0.00  0.00    +0.000 A 
ATOM      9  C   UNL     1      -0.523   9.904  18.326  0.00  0.00    +0.000 A 
ATOM     10  C   UNL     1      -1.507  10.243  17.384  0.00  0.00    +0.000 A 
ENDROOT
BRANCH   3  11
ATOM     11  C   UNL     1      -1.410  12.399  21.116  0.00  0.00    +0.000 A 
ATOM     12  C   UNL     1      -2.151  12.038  22.247  0.00  0.00    +0.000 A 
ATOM     13  C   UNL     1      -2.189  12.856  23.378  0.00  0.00    +0.000 A 
ATOM     14  C   UNL     1      -1.433  14.032  23.449  0.00  0.00    +0.000 A 
ATOM     15  C   UNL     1      -0.659  14.384  22.343  0.00  0.00    +0.000 A 
ATOM     16  C   UNL     1      -0.688  13.606  21.184  0.00  0.00    +0.000 A 
BRANCH  14  17
ATOM     17  C   UNL     1      -1.491  14.962  24.645  0.00  0.00    +0.000 C 
ATOM     18  C   UNL     1      -2.830  14.965  25.372  0.00  0.00    +0.000 C 
ATOM     19  C   UNL     1      -3.588  16.129  24.766  0.00  0.00    +0.000 C 
ATOM     20  N   UNL     1      -2.577  17.128  24.409  0.00  0.00    +0.000 NA
ATOM     21  C   UNL     1      -1.289  16.429  24.251  0.00  0.00    +0.000 C 
ATOM     22  H   UNL     1      -2.489  17.803  25.168  0.00  0.00    +0.000 HD
ENDBRANCH  14  17
ENDBRANCH   3  11
BRANCH   7  23
ATOM     23  C   UNL     1       2.551   7.632  18.554  0.00  0.00    +0.000 A 
ATOM     24  C   UNL     1       2.788   6.490  19.341  0.00  0.00    +0.000 A 
ATOM     25  C   UNL     1       3.812   5.589  19.041  0.00  0.00    +0.000 A 
ATOM     26  C   UNL     1       4.624   5.792  17.924  0.00  0.00    +0.000 A 
ATOM     27  C   UNL     1       4.399   6.921  17.125  0.00  0.00    +0.000 A 
ATOM     28  C   UNL     1       3.386   7.829  17.442  0.00  0.00    +0.000 A 
BRANCH  26  29
ATOM     29  C   UNL     1       5.714   4.812  17.571  0.00  0.00    +0.000 C 
ATOM     30  F   UNL     1       5.390   3.989  16.533  0.00  0.00    +0.000 F 
ATOM     31  F   UNL     1       6.870   5.432  17.207  0.00  0.00    +0.000 F 
ATOM     32  F   UNL     1       6.037   3.993  18.609  0.00  0.00    +0.000 F 
ENDBRANCH  26  29
ENDBRANCH   7  23
BRANCH   1  34
ATOM     33  O   UNL     1      -4.713  11.737  17.068  0.00  0.00    +0.000 OA
ATOM     34  C   UNL     1      -3.555  11.555  16.733  0.00  0.00    +0.000 C 
BRANCH  34  35
ATOM     35  O   UNL     1      -3.138  11.611  15.450  0.00  0.00    +0.000 OA
ATOM     36  H   UNL     1      -2.312  11.128  15.264  0.00  0.00    +0.000 HD
ENDBRANCH  34  35
ENDBRANCH   1  34
TORSDOF 6
ENDMDL
MODEL 3
REMARK VINA RESULT:      -8.4      0.299      1.095
REMARK  Name = 
REMARK  6 active torsions:
REMARK  status: ('A' for Active; 'I' for Inactive)
REMARK    1  A    between atoms: C_2  and  O_3
REMARK    2  A    between atoms: C_2  and  C_4
REMARK    3  A    between atoms: C_6  and  C_7
REMARK    4  A    between atoms: C_10  and  C_11
REMARK    5  A    between atoms: C_21  and  C_22
REMARK    6  A    between atoms: C_25  and  C_26
REMARK                            x       y       z     vdW  Elec       q    Type
REMARK                         _______ _______ _______ _____ _____    ______ ____
ROOT
ATOM      1  C   UNL     1      -2.616  11.183  17.627  0.00  0.00    +0.000 A 
ATOM      2  C   UNL     1      -2.596  11.894  18.827  0.00  0.00    +0.000 A 
ATOM      3  C   UNL     1      -1.637  11.632  19.828  0.00  0.00    +0.000 A 
ATOM      4  C   UNL     1      -0.686  10.594  19.595  0.00  0.00    +0.000 A 
ATOM      5  C   UNL     1       0.255  10.170  20.555  0.00  0.00    +0.000 A 
ATOM      6  C   UNL     1       1.271   9.267  20.251  0.00  0.00    +0.000 A 
ATOM      7  C   UNL     1       1.354   8.664  18.994  0.00  0.00    +0.000 A 
ATOM      8  C   UNL     1       0.354   8.993  18.062  0.00  0.00    +0.000 A 
ATOM      9  C   UNL     1      -0.655   9.938  18.338  0.00  0.00    +0.000 A 
ATOM     10  C   UNL     1      -1.623  10.239  17.368  0.00  0.00    +0.000 A 
ENDROOT
BRANCH   3  11
ATOM     11  C   UNL     1      -1.632  12.492  21.043  0.00  0.00    +0.000 A 
ATOM     12  C   UNL     1      -0.943  13.710  21.058  0.00  0.00    +0.000 A 
ATOM     13  C   UNL     1      -0.857  14.478  22.220  0.00  0.00    +0.000 A 
ATOM     14  C   UNL     1      -1.515  14.094  23.394  0.00  0.00    +0.000 A 
ATOM     15  C   UNL     1      -2.240  12.901  23.383  0.00  0.00    +0.000 A 
ATOM     16  C   UNL     1      -2.254  12.096  22.242  0.00  0.00    +0.000 A 
BRANCH  14  17
ATOM     17  C   UNL     1      -1.402  14.885  24.683  0.00  0.00    +0.000 C 
ATOM     18  C   UNL     1      -2.727  15.101  25.404  0.00  0.00    +0.000 C 
ATOM     19  C   UNL     1      -3.202  16.458  24.925  0.00  0.00    +0.000 C 
ATOM     20  N   UNL     1      -1.993  17.247  24.679  0.00  0.00    +0.000 NA
ATOM     21  C   UNL     1      -0.881  16.307  24.449  0.00  0.00    +0.000 C 
ATOM     22  H   UNL     1      -1.781  17.804  25.506  0.00  0.00    +0.000 HD
ENDBRANCH  14  17
ENDBRANCH   3  11
BRANCH   7  23
ATOM     23  C   UNL     1       2.442   7.713  18.688  0.00  0.00    +0.000 A 
ATOM     24  C   UNL     1       3.266   7.894  17.563  0.00  0.00    +0.000 A 
ATOM     25  C   UNL     1       4.280   6.991  17.239  0.00  0.00    +0.000 A 
ATOM     26  C   UNL     1       4.519   5.880  18.051  0.00  0.00    +0.000 A 
ATOM     27  C   UNL     1       3.713   5.687  19.180  0.00  0.00    +0.000 A 
ATOM     28  C   UNL     1       2.686   6.584  19.486  0.00  0.00    +0.000 A 
BRANCH  26  29
ATOM     29  C   UNL     1       5.630   4.913  17.732  0.00  0.00    +0.000 C 
ATOM     30  F   UNL     1       5.869   4.012  18.725  0.00  0.00    +0.000 F 
ATOM     31  F   UNL     1       5.372   4.177  16.616  0.00  0.00    +0.000 F 
ATOM     32  F   UNL     1       6.818   5.538  17.503  0.00  0.00    +0.000 F 
ENDBRANCH  26  29
ENDBRANCH   7  23
BRANCH   1  34
ATOM     33  O   UNL     1      -4.840  11.685  16.947  0.00  0.00    +0.000 OA
ATOM     34  C   UNL     1      -3.674  11.508  16.640  0.00  0.00    +0.000 C 
BRANCH  34  35
ATOM     35  O   UNL     1      -3.231  11.532  15.365  0.00  0.00    +0.000 OA
ATOM     36  H   UNL     1      -3.386  10.713  14.859  0.00  0.00    +0.000 HD
ENDBRANCH  34  35
ENDBRANCH   1  34
TORSDOF 6
ENDMDL
MODEL 4
REMARK VINA RESULT:      -8.4      0.301      1.199
REMARK  Name = 
REMARK  6 active torsions:
REMARK  status: ('A' for Active; 'I' for Inactive)
REMARK    1  A    between atoms: C_2  and  O_3
REMARK    2  A    between atoms: C_2  and  C_4
REMARK    3  A    between atoms: C_6  and  C_7
REMARK    4  A    between atoms: C_10  and  C_11
REMARK    5  A    between atoms: C_21  and  C_22
REMARK    6  A    between atoms: C_25  and  C_26
REMARK                            x       y       z     vdW  Elec       q    Type
REMARK                         _______ _______ _______ _____ _____    ______ ____
ROOT
ATOM      1  C   UNL     1      -2.629  11.188  17.622  0.00  0.00    +0.000 A 
ATOM      2  C   UNL     1      -2.591  11.915  18.812  0.00  0.00    +0.000 A 
ATOM      3  C   UNL     1      -1.624  11.660  19.806  0.00  0.00    +0.000 A 
ATOM      4  C   UNL     1      -0.682  10.613  19.577  0.00  0.00    +0.000 A 
ATOM      5  C   UNL     1       0.267  10.197  20.532  0.00  0.00    +0.000 A 
ATOM      6  C   UNL     1       1.274   9.283  20.230  0.00  0.00    +0.000 A 
ATOM      7  C   UNL     1       1.340   8.662  18.980  0.00  0.00    +0.000 A 
ATOM      8  C   UNL     1       0.332   8.985  18.054  0.00  0.00    +0.000 A 
ATOM      9  C   UNL     1      -0.668   9.940  18.329  0.00  0.00    +0.000 A 
ATOM     10  C   UNL     1      -1.644  10.235  17.364  0.00  0.00    +0.000 A 
ENDROOT
BRANCH   3  11
ATOM     11  C   UNL     1      -1.601  12.536  21.009  0.00  0.00    +0.000 A 
ATOM     12  C   UNL     1      -0.708  13.611  21.098  0.00  0.00    +0.000 A 
ATOM     13  C   UNL     1      -0.617  14.382  22.258  0.00  0.00    +0.000 A 
ATOM     14  C   UNL     1      -1.462  14.152  23.350  0.00  0.00    +0.000 A 
ATOM     15  C   UNL     1      -2.384  13.108  23.261  0.00  0.00    +0.000 A 
ATOM     16  C   UNL     1      -2.415  12.288  22.130  0.00  0.00    +0.000 A 
BRANCH  14  17
ATOM     17  C   UNL     1      -1.354  14.942  24.640  0.00  0.00    +0.000 C 
ATOM     18  C   UNL     1      -2.643  14.999  25.449  0.00  0.00    +0.000 C 
ATOM     19  C   UNL     1      -3.302  16.296  25.021  0.00  0.00    +0.000 C 
ATOM     20  N   UNL     1      -2.210  17.220  24.708  0.00  0.00    +0.000 NA
ATOM     21  C   UNL     1      -1.016  16.416  24.391  0.00  0.00    +0.000 C 
ATOM     22  H   UNL     1      -2.009  17.793  25.526  0.00  0.00    +0.000 HD
ENDBRANCH  14  17
ENDBRANCH   3  11
BRANCH   7  23
ATOM     23  C   UNL     1       2.419   7.701  18.676  0.00  0.00    +0.000 A 
ATOM     24  C   UNL     1       2.649   6.586  19.503  0.00  0.00    +0.000 A 
ATOM     25  C   UNL     1       3.681   5.682  19.250  0.00  0.00    +0.000 A 
ATOM     26  C   UNL     1       4.510   5.852  18.139  0.00  0.00    +0.000 A 
ATOM     27  C   UNL     1       4.292   6.953  17.300  0.00  0.00    +0.000 A 
ATOM     28  C   UNL     1       3.269   7.865  17.571  0.00  0.00    +0.000 A 
BRANCH  26  29
ATOM     29  C   UNL     1       5.610   4.867  17.835  0.00  0.00    +0.000 C 
ATOM     30  F   UNL     1       6.800   5.457  17.533  0.00  0.00    +0.000 F 
ATOM     31  F   UNL     1       5.863   4.034  18.882  0.00  0.00    +0.000 F 
ATOM     32  F   UNL     1       5.314   4.062  16.777  0.00  0.00    +0.000 F 
ENDBRANCH  26  29
ENDBRANCH   7  23
BRANCH   1  34
ATOM     33  O   UNL     1      -4.860  11.678  16.956  0.00  0.00    +0.000 OA
ATOM     34  C   UNL     1      -3.695  11.507  16.641  0.00  0.00    +0.000 C 
BRANCH  34  35
ATOM     35  O   UNL     1      -3.261  11.533  15.363  0.00  0.00    +0.000 OA
ATOM     36  H   UNL     1      -2.424  11.059  15.202  0.00  0.00    +0.000 HD
ENDBRANCH  34  35
ENDBRANCH   1  34
TORSDOF 6
ENDMDL
MODEL 5
REMARK VINA RESULT:      -8.2      2.737      3.368
REMARK  Name = 
REMARK  6 active torsions:
REMARK  status: ('A' for Active; 'I' for Inactive)
REMARK    1  A    between atoms: C_2  and  O_3
REMARK    2  A    between atoms: C_2  and  C_4
REMARK    3  A    between atoms: C_6  and  C_7
REMARK    4  A    between atoms: C_10  and  C_11
REMARK    5  A    between atoms: C_21  and  C_22
REMARK    6  A    between atoms: C_25  and  C_26
REMARK                            x       y       z     vdW  Elec       q    Type
REMARK                         _______ _______ _______ _____ _____    ______ ____
ROOT
ATOM      1  C   UNL     1       1.933  13.821  18.434  0.00  0.00    +0.000 A 
ATOM      2  C   UNL     1       0.778  13.775  19.214  0.00  0.00    +0.000 A 
ATOM      3  C   UNL     1       0.165  12.552  19.561  0.00  0.00    +0.000 A 
ATOM      4  C   UNL     1       0.748  11.345  19.073  0.00  0.00    +0.000 A 
ATOM      5  C   UNL     1       0.177  10.070  19.265  0.00  0.00    +0.000 A 
ATOM      6  C   UNL     1       0.842   8.898  18.917  0.00  0.00    +0.000 A 
ATOM      7  C   UNL     1       2.082   8.929  18.273  0.00  0.00    +0.000 A 
ATOM      8  C   UNL     1       2.612  10.197  17.974  0.00  0.00    +0.000 A 
ATOM      9  C   UNL     1       1.973  11.393  18.358  0.00  0.00    +0.000 A 
ATOM     10  C   UNL     1       2.551  12.633  18.046  0.00  0.00    +0.000 A 
ENDROOT
BRANCH   3  11
ATOM     11  C   UNL     1      -1.016  12.586  20.464  0.00  0.00    +0.000 A 
ATOM     12  C   UNL     1      -2.317  12.622  19.946  0.00  0.00    +0.000 A 
ATOM     13  C   UNL     1      -3.426  12.745  20.784  0.00  0.00    +0.000 A 
ATOM     14  C   UNL     1      -3.285  12.767  22.176  0.00  0.00    +0.000 A 
ATOM     15  C   UNL     1      -1.997  12.691  22.709  0.00  0.00    +0.000 A 
ATOM     16  C   UNL     1      -0.886  12.651  21.864  0.00  0.00    +0.000 A 
BRANCH  14  17
ATOM     17  C   UNL     1      -4.467  12.945  23.109  0.00  0.00    +0.000 C 
ATOM     18  C   UNL     1      -5.367  14.125  22.761  0.00  0.00    +0.000 C 
ATOM     19  C   UNL     1      -4.854  15.260  23.624  0.00  0.00    +0.000 C 
ATOM     20  N   UNL     1      -4.354  14.640  24.854  0.00  0.00    +0.000 NA
ATOM     21  C   UNL     1      -4.033  13.234  24.550  0.00  0.00    +0.000 C 
ATOM     22  H   UNL     1      -5.087  14.660  25.562  0.00  0.00    +0.000 HD
ENDBRANCH  14  17
ENDBRANCH   3  11
BRANCH   7  23
ATOM     23  C   UNL     1       2.775   7.675  17.917  0.00  0.00    +0.000 A 
ATOM     24  C   UNL     1       3.962   7.694  17.162  0.00  0.00    +0.000 A 
ATOM     25  C   UNL     1       4.616   6.519  16.790  0.00  0.00    +0.000 A 
ATOM     26  C   UNL     1       4.112   5.277  17.182  0.00  0.00    +0.000 A 
ATOM     27  C   UNL     1       2.935   5.238  17.939  0.00  0.00    +0.000 A 
ATOM     28  C   UNL     1       2.274   6.418  18.292  0.00  0.00    +0.000 A 
BRANCH  26  29
ATOM     29  C   UNL     1       4.825   4.001  16.814  0.00  0.00    +0.000 C 
ATOM     30  F   UNL     1       4.169   2.876  17.215  0.00  0.00    +0.000 F 
ATOM     31  F   UNL     1       4.995   3.872  15.469  0.00  0.00    +0.000 F 
ATOM     32  F   UNL     1       6.070   3.921  17.359  0.00  0.00    +0.000 F 
ENDBRANCH  26  29
ENDBRANCH   7  23
BRANCH   1  34
ATOM     33  O   UNL     1       2.095  16.189  18.593  0.00  0.00    +0.000 OA
ATOM     34  C   UNL     1       2.497  15.151  18.098  0.00  0.00    +0.000 C 
BRANCH  34  35
ATOM     35  O   UNL     1       3.457  15.105  17.150  0.00  0.00    +0.000 OA
ATOM     36  H   UNL     1       4.296  15.539  17.392  0.00  0.00    +0.000 HD
ENDBRANCH  34  35
ENDBRANCH   1  34
TORSDOF 6
ENDMDL
MODEL 6
REMARK VINA RESULT:      -8.1      0.861      1.566
REMARK  Name = 
REMARK  6 active torsions:
REMARK  status: ('A' for Active; 'I' for Inactive)
REMARK    1  A    between atoms: C_2  and  O_3
REMARK    2  A    between atoms: C_2  and  C_4
REMARK    3  A    between atoms: C_6  and  C_7
REMARK    4  A    between atoms: C_10  and  C_11
REMARK    5  A    between atoms: C_21  and  C_22
REMARK    6  A    between atoms: C_25  and  C_26
REMARK                            x       y       z     vdW  Elec       q    Type
REMARK                         _______ _______ _______ _____ _____    ______ ____
ROOT
ATOM      1  C   UNL     1      -2.786  10.956  17.054  0.00  0.00    +0.000 A 
ATOM      2  C   UNL     1      -2.803  11.807  18.159  0.00  0.00    +0.000 A 
ATOM      3  C   UNL     1      -1.856  11.693  19.198  0.00  0.00    +0.000 A 
ATOM      4  C   UNL     1      -0.876  10.660  19.105  0.00  0.00    +0.000 A 
ATOM      5  C   UNL     1       0.060  10.380  20.122  0.00  0.00    +0.000 A 
ATOM      6  C   UNL     1       1.102   9.474  19.943  0.00  0.00    +0.000 A 
ATOM      7  C   UNL     1       1.222   8.726  18.770  0.00  0.00    +0.000 A 
ATOM      8  C   UNL     1       0.230   8.914  17.791  0.00  0.00    +0.000 A 
ATOM      9  C   UNL     1      -0.807   9.858  17.937  0.00  0.00    +0.000 A 
ATOM     10  C   UNL     1      -1.766  10.015  16.924  0.00  0.00    +0.000 A 
ENDROOT
BRANCH   3  11
ATOM     11  C   UNL     1      -1.893  12.692  20.300  0.00  0.00    +0.000 A 
ATOM     12  C   UNL     1      -2.818  12.577  21.344  0.00  0.00    +0.000 A 
ATOM     13  C   UNL     1      -2.919  13.557  22.332  0.00  0.00    +0.000 A 
ATOM     14  C   UNL     1      -2.054  14.657  22.355  0.00  0.00    +0.000 A 
ATOM     15  C   UNL     1      -1.100  14.765  21.342  0.00  0.00    +0.000 A 
ATOM     16  C   UNL     1      -1.057  13.825  20.310  0.00  0.00    +0.000 A 
BRANCH  14  17
ATOM     17  C   UNL     1      -2.172  15.760  23.388  0.00  0.00    +0.000 C 
ATOM     18  C   UNL     1      -1.579  15.410  24.748  0.00  0.00    +0.000 C 
ATOM     19  C   UNL     1      -2.756  14.895  25.553  0.00  0.00    +0.000 C 
ATOM     20  N   UNL     1      -3.929  15.626  25.069  0.00  0.00    +0.000 NA
ATOM     21  C   UNL     1      -3.631  16.105  23.707  0.00  0.00    +0.000 C 
ATOM     22  H   UNL     1      -4.093  16.434  25.669  0.00  0.00    +0.000 HD
ENDBRANCH  14  17
ENDBRANCH   3  11
BRANCH   7  23
ATOM     23  C   UNL     1       2.338   7.775  18.596  0.00  0.00    +0.000 A 
ATOM     24  C   UNL     1       2.541   6.724  19.510  0.00  0.00    +0.000 A 
ATOM     25  C   UNL     1       3.607   5.832  19.380  0.00  0.00    +0.000 A 
ATOM     26  C   UNL     1       4.498   5.949  18.311  0.00  0.00    +0.000 A 
ATOM     27  C   UNL     1       4.308   6.985  17.388  0.00  0.00    +0.000 A 
ATOM     28  C   UNL     1       3.250   7.887  17.535  0.00  0.00    +0.000 A 
BRANCH  26  29
ATOM     29  C   UNL     1       5.635   4.975  18.142  0.00  0.00    +0.000 C 
ATOM     30  F   UNL     1       5.388   4.007  17.215  0.00  0.00    +0.000 F 
ATOM     31  F   UNL     1       6.786   5.585  17.744  0.00  0.00    +0.000 F 
ATOM     32  F   UNL     1       5.937   4.318  19.295  0.00  0.00    +0.000 F 
ENDBRANCH  26  29
ENDBRANCH   7  23
BRANCH   1  34
ATOM     33  O   UNL     1      -3.605  11.088  14.824  0.00  0.00    +0.000 OA
ATOM     34  C   UNL     1      -3.835  11.132  16.020  0.00  0.00    +0.000 C 
BRANCH  34  35
ATOM     35  O   UNL     1      -5.055  11.399  16.530  0.00  0.00    +0.000 OA
ATOM     36  H   UNL     1      -5.077  12.112  17.195  0.00  0.00    +0.000 HD
ENDBRANCH  34  35
ENDBRANCH   1  34
TORSDOF 6
ENDMDL
MODEL 7
REMARK VINA RESULT:      -8.1      2.781      3.494
REMARK  Name = 
REMARK  6 active torsions:
REMARK  status: ('A' for Active; 'I' for Inactive)
REMARK    1  A    between atoms: C_2  and  O_3
REMARK    2  A    between atoms: C_2  and  C_4
REMARK    3  A    between atoms: C_6  and  C_7
REMARK    4  A    between atoms: C_10  and  C_11
REMARK    5  A    between atoms: C_21  and  C_22
REMARK    6  A    between atoms: C_25  and  C_26
REMARK                            x       y       z     vdW  Elec       q    Type
REMARK                         _______ _______ _______ _____ _____    ______ ____
ROOT
ATOM      1  C   UNL     1       2.054  13.909  18.363  0.00  0.00    +0.000 A 
ATOM      2  C   UNL     1       0.947  13.910  19.212  0.00  0.00    +0.000 A 
ATOM      3  C   UNL     1       0.330  12.712  19.628  0.00  0.00    +0.000 A 
ATOM      4  C   UNL     1       0.855  11.479  19.139  0.00  0.00    +0.000 A 
ATOM      5  C   UNL     1       0.268  10.224  19.400  0.00  0.00    +0.000 A 
ATOM      6  C   UNL     1       0.884   9.027  19.044  0.00  0.00    +0.000 A 
ATOM      7  C   UNL     1       2.082   9.012  18.325  0.00  0.00    +0.000 A 
ATOM      8  C   UNL     1       2.621  10.259  17.960  0.00  0.00    +0.000 A 
ATOM      9  C   UNL     1       2.034  11.480  18.350  0.00  0.00    +0.000 A 
ATOM     10  C   UNL     1       2.620  12.697  17.969  0.00  0.00    +0.000 A 
ENDROOT
BRANCH   3  11
ATOM     11  C   UNL     1      -0.793  12.797  20.600  0.00  0.00    +0.000 A 
ATOM     12  C   UNL     1      -0.550  12.822  21.979  0.00  0.00    +0.000 A 
ATOM     13  C   UNL     1      -1.599  12.810  22.899  0.00  0.00    +0.000 A 
ATOM     14  C   UNL     1      -2.933  12.843  22.479  0.00  0.00    +0.000 A 
ATOM     15  C   UNL     1      -3.191  12.859  21.107  0.00  0.00    +0.000 A 
ATOM     16  C   UNL     1      -2.140  12.787  20.191  0.00  0.00    +0.000 A 
BRANCH  14  17
ATOM     17  C   UNL     1      -4.092  12.785  23.454  0.00  0.00    +0.000 C 
ATOM     18  C   UNL     1      -5.403  13.333  22.904  0.00  0.00    +0.000 C 
ATOM     19  C   UNL     1      -5.434  14.776  23.365  0.00  0.00    +0.000 C 
ATOM     20  N   UNL     1      -4.735  14.805  24.652  0.00  0.00    +0.000 NA
ATOM     21  C   UNL     1      -3.842  13.633  24.706  0.00  0.00    +0.000 C 
ATOM     22  H   UNL     1      -5.417  14.729  25.407  0.00  0.00    +0.000 HD
ENDBRANCH  14  17
ENDBRANCH   3  11
BRANCH   7  23
ATOM     23  C   UNL     1       2.724   7.733  17.962  0.00  0.00    +0.000 A 
ATOM     24  C   UNL     1       2.153   6.504  18.341  0.00  0.00    +0.000 A 
ATOM     25  C   UNL     1       2.759   5.285  18.033  0.00  0.00    +0.000 A 
ATOM     26  C   UNL     1       3.954   5.255  17.311  0.00  0.00    +0.000 A 
ATOM     27  C   UNL     1       4.534   6.468  16.919  0.00  0.00    +0.000 A 
ATOM     28  C   UNL     1       3.932   7.685  17.249  0.00  0.00    +0.000 A 
BRANCH  26  29
ATOM     29  C   UNL     1       4.604   3.945  16.945  0.00  0.00    +0.000 C 
ATOM     30  F   UNL     1       3.808   2.861  17.168  0.00  0.00    +0.000 F 
ATOM     31  F   UNL     1       4.950   3.888  15.629  0.00  0.00    +0.000 F 
ATOM     32  F   UNL     1       5.749   3.715  17.645  0.00  0.00    +0.000 F 
ENDBRANCH  26  29
ENDBRANCH   7  23
BRANCH   1  34
ATOM     33  O   UNL     1       2.183  16.284  18.340  0.00  0.00    +0.000 OA
ATOM     34  C   UNL     1       2.625  15.216  17.956  0.00  0.00    +0.000 C 
BRANCH  34  35
ATOM     35  O   UNL     1       3.644  15.108  17.078  0.00  0.00    +0.000 OA
ATOM     36  H   UNL     1       3.510  15.573  16.232  0.00  0.00    +0.000 HD
ENDBRANCH  34  35
ENDBRANCH   1  34
TORSDOF 6
ENDMDL
MODEL 8
REMARK VINA RESULT:      -8.0      3.030      3.674
REMARK  Name = 
REMARK  6 active torsions:
REMARK  status: ('A' for Active; 'I' for Inactive)
REMARK    1  A    between atoms: C_2  and  O_3
REMARK    2  A    between atoms: C_2  and  C_4
REMARK    3  A    between atoms: C_6  and  C_7
REMARK    4  A    between atoms: C_10  and  C_11
REMARK    5  A    between atoms: C_21  and  C_22
REMARK    6  A    between atoms: C_25  and  C_26
REMARK                            x       y       z     vdW  Elec       q    Type
REMARK                         _______ _______ _______ _____ _____    ______ ____
ROOT
ATOM      1  C   UNL     1       2.289  14.099  18.285  0.00  0.00    +0.000 A 
ATOM      2  C   UNL     1       1.188  14.217  19.132  0.00  0.00    +0.000 A 
ATOM      3  C   UNL     1       0.479  13.086  19.589  0.00  0.00    +0.000 A 
ATOM      4  C   UNL     1       0.904  11.799  19.143  0.00  0.00    +0.000 A 
ATOM      5  C   UNL     1       0.221  10.604  19.446  0.00  0.00    +0.000 A 
ATOM      6  C   UNL     1       0.740   9.351  19.132  0.00  0.00    +0.000 A 
ATOM      7  C   UNL     1       1.932   9.217  18.416  0.00  0.00    +0.000 A 
ATOM      8  C   UNL     1       2.567  10.404  18.008  0.00  0.00    +0.000 A 
ATOM      9  C   UNL     1       2.078  11.680  18.356  0.00  0.00    +0.000 A 
ATOM     10  C   UNL     1       2.757  12.834  17.934  0.00  0.00    +0.000 A 
ENDROOT
BRANCH   3  11
ATOM     11  C   UNL     1      -0.631  13.293  20.558  0.00  0.00    +0.000 A 
ATOM     12  C   UNL     1      -1.963  13.334  20.126  0.00  0.00    +0.000 A 
ATOM     13  C   UNL     1      -3.002  13.617  21.013  0.00  0.00    +0.000 A 
ATOM     14  C   UNL     1      -2.761  13.802  22.379  0.00  0.00    +0.000 A 
ATOM     15  C   UNL     1      -1.442  13.725  22.831  0.00  0.00    +0.000 A 
ATOM     16  C   UNL     1      -0.397  13.523  21.926  0.00  0.00    +0.000 A 
BRANCH  14  17
ATOM     17  C   UNL     1      -3.864  14.156  23.357  0.00  0.00    +0.000 C 
ATOM     18  C   UNL     1      -3.669  13.584  24.756  0.00  0.00    +0.000 C 
ATOM     19  C   UNL     1      -4.455  12.288  24.748  0.00  0.00    +0.000 C 
ATOM     20  N   UNL     1      -5.588  12.508  23.846  0.00  0.00    +0.000 NA
ATOM     21  C   UNL     1      -5.225  13.600  22.925  0.00  0.00    +0.000 C 
ATOM     22  H   UNL     1      -6.400  12.797  24.389  0.00  0.00    +0.000 HD
ENDBRANCH  14  17
ENDBRANCH   3  11
BRANCH   7  23
ATOM     23  C   UNL     1       2.470   7.880  18.097  0.00  0.00    +0.000 A 
ATOM     24  C   UNL     1       1.758   6.714  18.434  0.00  0.00    +0.000 A 
ATOM     25  C   UNL     1       2.263   5.441  18.168  0.00  0.00    +0.000 A 
ATOM     26  C   UNL     1       3.496   5.290  17.531  0.00  0.00    +0.000 A 
ATOM     27  C   UNL     1       4.217   6.439  17.181  0.00  0.00    +0.000 A 
ATOM     28  C   UNL     1       3.715   7.711  17.469  0.00  0.00    +0.000 A 
BRANCH  26  29
ATOM     29  C   UNL     1       4.040   3.921  17.209  0.00  0.00    +0.000 C 
ATOM     30  F   UNL     1       4.815   3.398  18.201  0.00  0.00    +0.000 F 
ATOM     31  F   UNL     1       3.052   3.010  16.989  0.00  0.00    +0.000 F 
ATOM     32  F   UNL     1       4.814   3.916  16.089  0.00  0.00    +0.000 F 
ENDBRANCH  26  29
ENDBRANCH   7  23
BRANCH   1  34
ATOM     33  O   UNL     1       2.517  16.456  18.053  0.00  0.00    +0.000 OA
ATOM     34  C   UNL     1       2.961  15.342  17.834  0.00  0.00    +0.000 C 
BRANCH  34  35
ATOM     35  O   UNL     1       4.078  15.119  17.111  0.00  0.00    +0.000 OA
ATOM     36  H   UNL     1       4.827  14.748  17.614  0.00  0.00    +0.000 HD
ENDBRANCH  34  35
ENDBRANCH   1  34
TORSDOF 6
ENDMDL
MODEL 9
REMARK VINA RESULT:      -8.0      0.942      1.588
REMARK  Name = 
REMARK  6 active torsions:
REMARK  status: ('A' for Active; 'I' for Inactive)
REMARK    1  A    between atoms: C_2  and  O_3
REMARK    2  A    between atoms: C_2  and  C_4
REMARK    3  A    between atoms: C_6  and  C_7
REMARK    4  A    between atoms: C_10  and  C_11
REMARK    5  A    between atoms: C_21  and  C_22
REMARK    6  A    between atoms: C_25  and  C_26
REMARK                            x       y       z     vdW  Elec       q    Type
REMARK                         _______ _______ _______ _____ _____    ______ ____
ROOT
ATOM      1  C   UNL     1      -2.731  10.949  17.083  0.00  0.00    +0.000 A 
ATOM      2  C   UNL     1      -2.740  11.795  18.191  0.00  0.00    +0.000 A 
ATOM      3  C   UNL     1      -1.790  11.671  19.227  0.00  0.00    +0.000 A 
ATOM      4  C   UNL     1      -0.817  10.633  19.127  0.00  0.00    +0.000 A 
ATOM      5  C   UNL     1       0.120  10.343  20.141  0.00  0.00    +0.000 A 
ATOM      6  C   UNL     1       1.156   9.431  19.956  0.00  0.00    +0.000 A 
ATOM      7  C   UNL     1       1.267   8.686  18.779  0.00  0.00    +0.000 A 
ATOM      8  C   UNL     1       0.273   8.884  17.804  0.00  0.00    +0.000 A 
ATOM      9  C   UNL     1      -0.757   9.835  17.956  0.00  0.00    +0.000 A 
ATOM     10  C   UNL     1      -1.717  10.001  16.946  0.00  0.00    +0.000 A 
ENDROOT
BRANCH   3  11
ATOM     11  C   UNL     1      -1.817  12.667  20.332  0.00  0.00    +0.000 A 
ATOM     12  C   UNL     1      -2.437  12.370  21.552  0.00  0.00    +0.000 A 
ATOM     13  C   UNL     1      -2.546  13.328  22.561  0.00  0.00    +0.000 A 
ATOM     14  C   UNL     1      -1.980  14.600  22.417  0.00  0.00    +0.000 A 
ATOM     15  C   UNL     1      -1.324  14.898  21.222  0.00  0.00    +0.000 A 
ATOM     16  C   UNL     1      -1.289  13.963  20.185  0.00  0.00    +0.000 A 
BRANCH  14  17
ATOM     17  C   UNL     1      -2.122  15.675  23.477  0.00  0.00    +0.000 C 
ATOM     18  C   UNL     1      -1.198  16.871  23.284  0.00  0.00    +0.000 C 
ATOM     19  C   UNL     1       0.010  16.559  24.143  0.00  0.00    +0.000 C 
ATOM     20  N   UNL     1      -0.491  15.784  25.281  0.00  0.00    +0.000 NA
ATOM     21  C   UNL     1      -1.765  15.163  24.877  0.00  0.00    +0.000 C 
ATOM     22  H   UNL     1      -0.670  16.413  26.063  0.00  0.00    +0.000 HD
ENDBRANCH  14  17
ENDBRANCH   3  11
BRANCH   7  23
ATOM     23  C   UNL     1       2.376   7.728  18.599  0.00  0.00    +0.000 A 
ATOM     24  C   UNL     1       2.571   6.669  19.504  0.00  0.00    +0.000 A 
ATOM     25  C   UNL     1       3.630   5.771  19.368  0.00  0.00    +0.000 A 
ATOM     26  C   UNL     1       4.523   5.890  18.302  0.00  0.00    +0.000 A 
ATOM     27  C   UNL     1       4.342   6.935  17.386  0.00  0.00    +0.000 A 
ATOM     28  C   UNL     1       3.291   7.843  17.540  0.00  0.00    +0.000 A 
BRANCH  26  29
ATOM     29  C   UNL     1       5.654   4.909  18.125  0.00  0.00    +0.000 C 
ATOM     30  F   UNL     1       6.886   5.458  18.320  0.00  0.00    +0.000 F 
ATOM     31  F   UNL     1       5.572   3.862  18.992  0.00  0.00    +0.000 F 
ATOM     32  F   UNL     1       5.683   4.363  16.878  0.00  0.00    +0.000 F 
ENDBRANCH  26  29
ENDBRANCH   7  23
BRANCH   1  34
ATOM     33  O   UNL     1      -3.547  11.143  14.857  0.00  0.00    +0.000 OA
ATOM     34  C   UNL     1      -3.781  11.135  16.052  0.00  0.00    +0.000 C 
BRANCH  34  35
ATOM     35  O   UNL     1      -5.010  11.349  16.569  0.00  0.00    +0.000 OA
ATOM     36  H   UNL     1      -5.729  10.844  16.145  0.00  0.00    +0.000 HD
ENDBRANCH  34  35
ENDBRANCH   1  34
TORSDOF 6
ENDMDL
