MODEL 1
REMARK VINA RESULT:      -9.0      0.000      0.000
REMARK  Name = 
REMARK  4 active torsions:
REMARK  status: ('A' for Active; 'I' for Inactive)
REMARK    1  A    between atoms: C_1  and  N_2
REMARK    2  A    between atoms: C_4  and  C_5
REMARK    3  A    between atoms: C_8  and  C_9
REMARK    4  A    between atoms: C_16  and  C_17
REMARK                            x       y       z     vdW  Elec       q    Type
REMARK                         _______ _______ _______ _____ _____    ______ ____
ROOT
ATOM      1  C   UNL     1       3.518   6.608  17.772  0.00  0.00    +0.000 A 
ATOM      2  C   UNL     1       4.681   7.068  17.140  0.00  0.00    +0.000 A 
ATOM      3  N   UNL     1       5.597   6.296  16.523  0.00  0.00    +0.000 NA
ATOM      4  C   UNL     1       5.363   4.973  16.543  0.00  0.00    +0.000 A 
ATOM      5  C   UNL     1       4.250   4.387  17.142  0.00  0.00    +0.000 A 
ATOM      6  C   UNL     1       4.063   2.994  17.148  0.00  0.00    +0.000 A 
ATOM      7  C   UNL     1       2.944   2.447  17.764  0.00  0.00    +0.000 A 
ATOM      8  C   UNL     1       2.043   3.321  18.339  0.00  0.00    +0.000 A 
ATOM      9  N   UNL     1       2.194   4.670  18.330  0.00  0.00    +0.000 NA
ATOM     10  C   UNL     1       3.294   5.218  17.760  0.00  0.00    +0.000 A 
ENDROOT
BRANCH   1  14
ATOM     11  C   UNL     1       0.888   9.450  19.705  0.00  0.00    +0.000 A 
ATOM     12  C   UNL     1       1.260   9.615  18.369  0.00  0.00    +0.000 A 
ATOM     13  C   UNL     1       2.082   8.678  17.739  0.00  0.00    +0.000 A 
ATOM     14  C   UNL     1       2.605   7.575  18.434  0.00  0.00    +0.000 A 
ATOM     15  C   UNL     1       2.249   7.452  19.789  0.00  0.00    +0.000 A 
ATOM     16  C   UNL     1       1.390   8.358  20.412  0.00  0.00    +0.000 A 
BRANCH  11  20
ATOM     17  C   UNL     1      -1.827  11.850  23.067  0.00  0.00    +0.000 C 
ATOM     18  N   UNL     1      -1.220  11.434  21.828  0.00  0.00    +0.000 N 
ATOM     19  C   UNL     1      -0.200  10.545  21.676  0.00  0.00    +0.000 A 
ATOM     20  C   UNL     1      -0.030  10.383  20.320  0.00  0.00    +0.000 A 
ATOM     21  C   UNL     1      -0.987  11.250  19.747  0.00  0.00    +0.000 A 
ATOM     22  N   UNL     1      -1.708  11.898  20.662  0.00  0.00    +0.000 NA
ENDBRANCH  11  20
ENDBRANCH   1  14
BRANCH   8  23
ATOM     23  C   UNL     1       0.827   2.791  19.039  0.00  0.00    +0.000 C 
ATOM     24  N   UNL     1       0.584   3.293  20.292  0.00  0.00    +0.000 N 
ATOM     25  O   UNL     1       0.091   1.959  18.530  0.00  0.00    +0.000 OA
ATOM     26  H   UNL     1       1.172   4.024  20.672  0.00  0.00    +0.000 HD
ATOM     27  H   UNL     1      -0.248   2.999  20.783  0.00  0.00    +0.000 HD
ENDBRANCH   8  23
TORSDOF 3
ENDMDL
MODEL 2
REMARK VINA RESULT:      -8.8      0.528      1.336
REMARK  Name = 
REMARK  4 active torsions:
REMARK  status: ('A' for Active; 'I' for Inactive)
REMARK    1  A    between atoms: C_1  and  N_2
REMARK    2  A    between atoms: C_4  and  C_5
REMARK    3  A    between atoms: C_8  and  C_9
REMARK    4  A    between atoms: C_16  and  C_17
REMARK                            x       y       z     vdW  Elec       q    Type
REMARK                         _______ _______ _______ _____ _____    ______ ____
ROOT
ATOM      1  C   UNL     1       3.471   6.715  17.816  0.00  0.00    +0.000 A 
ATOM      2  C   UNL     1       4.626   7.203  17.189  0.00  0.00    +0.000 A 
ATOM      3  N   UNL     1       5.558   6.455  16.567  0.00  0.00    +0.000 NA
ATOM      4  C   UNL     1       5.351   5.127  16.576  0.00  0.00    +0.000 A 
ATOM      5  C   UNL     1       4.250   4.514  17.169  0.00  0.00    +0.000 A 
ATOM      6  C   UNL     1       4.091   3.118  17.164  0.00  0.00    +0.000 A 
ATOM      7  C   UNL     1       2.982   2.543  17.774  0.00  0.00    +0.000 A 
ATOM      8  C   UNL     1       2.063   3.394  18.354  0.00  0.00    +0.000 A 
ATOM      9  N   UNL     1       2.186   4.746  18.356  0.00  0.00    +0.000 NA
ATOM     10  C   UNL     1       3.275   5.320  17.792  0.00  0.00    +0.000 A 
ENDROOT
BRANCH   1  14
ATOM     11  C   UNL     1       0.724   9.434  19.762  0.00  0.00    +0.000 A 
ATOM     12  C   UNL     1       1.297   8.372  20.466  0.00  0.00    +0.000 A 
ATOM     13  C   UNL     1       2.209   7.517  19.843  0.00  0.00    +0.000 A 
ATOM     14  C   UNL     1       2.538   7.657  18.484  0.00  0.00    +0.000 A 
ATOM     15  C   UNL     1       1.917   8.708  17.787  0.00  0.00    +0.000 A 
ATOM     16  C   UNL     1       1.043   9.596  18.414  0.00  0.00    +0.000 A 
BRANCH  11  20
ATOM     17  C   UNL     1      -2.563  13.024  20.626  0.00  0.00    +0.000 C 
ATOM     18  N   UNL     1      -1.615  11.952  20.798  0.00  0.00    +0.000 N 
ATOM     19  C   UNL     1      -1.081  11.167  19.822  0.00  0.00    +0.000 A 
ATOM     20  C   UNL     1      -0.154  10.360  20.441  0.00  0.00    +0.000 A 
ATOM     21  C   UNL     1      -0.234  10.726  21.804  0.00  0.00    +0.000 A 
ATOM     22  N   UNL     1      -1.129  11.689  22.026  0.00  0.00    +0.000 NA
ENDBRANCH  11  20
ENDBRANCH   1  14
BRANCH   8  23
ATOM     23  C   UNL     1       0.856   2.834  19.049  0.00  0.00    +0.000 C 
ATOM     24  N   UNL     1       0.603   3.320  20.305  0.00  0.00    +0.000 N 
ATOM     25  O   UNL     1       0.138   1.992  18.532  0.00  0.00    +0.000 OA
ATOM     26  H   UNL     1       1.176   4.059  20.693  0.00  0.00    +0.000 HD
ATOM     27  H   UNL     1      -0.223   3.005  20.793  0.00  0.00    +0.000 HD
ENDBRANCH   8  23
TORSDOF 3
ENDMDL
MODEL 3
REMARK VINA RESULT:      -8.8      2.501      4.021
REMARK  Name = 
REMARK  4 active torsions:
REMARK  status: ('A' for Active; 'I' for Inactive)
REMARK    1  A    between atoms: C_1  and  N_2
REMARK    2  A    between atoms: C_4  and  C_5
REMARK    3  A    between atoms: C_8  and  C_9
REMARK    4  A    between atoms: C_16  and  C_17
REMARK                            x       y       z     vdW  Elec       q    Type
REMARK                         _______ _______ _______ _____ _____    ______ ____
ROOT
ATOM      1  C   UNL     1       2.827   5.535  18.024  0.00  0.00    +0.000 A 
ATOM      2  C   UNL     1       1.931   4.497  17.735  0.00  0.00    +0.000 A 
ATOM      3  N   UNL     1       2.249   3.326  17.148  0.00  0.00    +0.000 NA
ATOM      4  C   UNL     1       3.539   3.169  16.805  0.00  0.00    +0.000 A 
ATOM      5  C   UNL     1       4.527   4.124  17.030  0.00  0.00    +0.000 A 
ATOM      6  C   UNL     1       5.859   3.915  16.635  0.00  0.00    +0.000 A 
ATOM      7  C   UNL     1       6.815   4.897  16.869  0.00  0.00    +0.000 A 
ATOM      8  C   UNL     1       6.401   6.048  17.508  0.00  0.00    +0.000 A 
ATOM      9  N   UNL     1       5.124   6.265  17.914  0.00  0.00    +0.000 NA
ATOM     10  C   UNL     1       4.174   5.332  17.667  0.00  0.00    +0.000 A 
ENDROOT
BRANCH   1  14
ATOM     11  C   UNL     1       1.346   9.162  19.862  0.00  0.00    +0.000 A 
ATOM     12  C   UNL     1       1.538   8.004  20.620  0.00  0.00    +0.000 A 
ATOM     13  C   UNL     1       2.048   6.845  20.030  0.00  0.00    +0.000 A 
ATOM     14  C   UNL     1       2.331   6.785  18.655  0.00  0.00    +0.000 A 
ATOM     15  C   UNL     1       2.091   7.951  17.906  0.00  0.00    +0.000 A 
ATOM     16  C   UNL     1       1.628   9.126  18.497  0.00  0.00    +0.000 A 
BRANCH  11  20
ATOM     17  C   UNL     1       0.796  13.932  21.036  0.00  0.00    +0.000 C 
ATOM     18  N   UNL     1       0.666  12.497  21.002  0.00  0.00    +0.000 N 
ATOM     19  C   UNL     1       1.183  11.652  20.069  0.00  0.00    +0.000 A 
ATOM     20  C   UNL     1       0.896  10.378  20.503  0.00  0.00    +0.000 A 
ATOM     21  C   UNL     1       0.173  10.577  21.701  0.00  0.00    +0.000 A 
ATOM     22  N   UNL     1       0.024  11.867  22.003  0.00  0.00    +0.000 NA
ENDBRANCH  11  20
ENDBRANCH   1  14
BRANCH   8  23
ATOM     23  C   UNL     1       7.381   7.155  17.769  0.00  0.00    +0.000 C 
ATOM     24  N   UNL     1       8.231   6.970  18.828  0.00  0.00    +0.000 N 
ATOM     25  O   UNL     1       7.422   8.165  17.084  0.00  0.00    +0.000 OA
ATOM     26  H   UNL     1       8.221   6.102  19.348  0.00  0.00    +0.000 HD
ATOM     27  H   UNL     1       8.937   7.668  19.014  0.00  0.00    +0.000 HD
ENDBRANCH   8  23
TORSDOF 3
ENDMDL
MODEL 4
REMARK VINA RESULT:      -8.8      2.430      3.796
REMARK  Name = 
REMARK  4 active torsions:
REMARK  status: ('A' for Active; 'I' for Inactive)
REMARK    1  A    between atoms: C_1  and  N_2
REMARK    2  A    between atoms: C_4  and  C_5
REMARK    3  A    between atoms: C_8  and  C_9
REMARK    4  A    between atoms: C_16  and  C_17
REMARK                            x       y       z     vdW  Elec       q    Type
REMARK                         _______ _______ _______ _____ _____    ______ ____
ROOT
ATOM      1  C   UNL     1       2.872   5.404  18.036  0.00  0.00    +0.000 A 
ATOM      2  C   UNL     1       1.997   4.363  17.695  0.00  0.00    +0.000 A 
ATOM      3  N   UNL     1       2.332   3.244  17.021  0.00  0.00    +0.000 NA
ATOM      4  C   UNL     1       3.617   3.148  16.639  0.00  0.00    +0.000 A 
ATOM      5  C   UNL     1       4.585   4.113  16.908  0.00  0.00    +0.000 A 
ATOM      6  C   UNL     1       5.912   3.969  16.470  0.00  0.00    +0.000 A 
ATOM      7  C   UNL     1       6.846   4.958  16.751  0.00  0.00    +0.000 A 
ATOM      8  C   UNL     1       6.418   6.051  17.477  0.00  0.00    +0.000 A 
ATOM      9  N   UNL     1       5.146   6.203  17.926  0.00  0.00    +0.000 NA
ATOM     10  C   UNL     1       4.215   5.263  17.636  0.00  0.00    +0.000 A 
ENDROOT
BRANCH   1  14
ATOM     11  C   UNL     1       1.413   8.883  20.154  0.00  0.00    +0.000 A 
ATOM     12  C   UNL     1       1.710   8.949  18.791  0.00  0.00    +0.000 A 
ATOM     13  C   UNL     1       2.149   7.816  18.103  0.00  0.00    +0.000 A 
ATOM     14  C   UNL     1       2.359   6.592  18.763  0.00  0.00    +0.000 A 
ATOM     15  C   UNL     1       2.093   6.562  20.143  0.00  0.00    +0.000 A 
ATOM     16  C   UNL     1       1.608   7.677  20.826  0.00  0.00    +0.000 A 
BRANCH  11  20
ATOM     17  C   UNL     1      -1.421  11.793  22.972  0.00  0.00    +0.000 C 
ATOM     18  N   UNL     1      -0.386  11.311  22.092  0.00  0.00    +0.000 N 
ATOM     19  C   UNL     1      -0.110  10.013  21.789  0.00  0.00    +0.000 A 
ATOM     20  C   UNL     1       0.882  10.043  20.835  0.00  0.00    +0.000 A 
ATOM     21  C   UNL     1       1.148  11.420  20.659  0.00  0.00    +0.000 A 
ATOM     22  N   UNL     1       0.385  12.194  21.429  0.00  0.00    +0.000 NA
ENDBRANCH  11  20
ENDBRANCH   1  14
BRANCH   8  23
ATOM     23  C   UNL     1       7.374   7.164  17.793  0.00  0.00    +0.000 C 
ATOM     24  N   UNL     1       8.219   6.952  18.851  0.00  0.00    +0.000 N 
ATOM     25  O   UNL     1       7.402   8.202  17.150  0.00  0.00    +0.000 OA
ATOM     26  H   UNL     1       8.220   6.063  19.335  0.00  0.00    +0.000 HD
ATOM     27  H   UNL     1       8.909   7.655  19.073  0.00  0.00    +0.000 HD
ENDBRANCH   8  23
TORSDOF 3
ENDMDL
MODEL 5
REMARK VINA RESULT:      -8.6      1.209      1.209
REMARK  Name = 
REMARK  4 active torsions:
REMARK  status: ('A' for Active; 'I' for Inactive)
REMARK    1  A    between atoms: C_1  and  N_2
REMARK    2  A    between atoms: C_4  and  C_5
REMARK    3  A    between atoms: C_8  and  C_9
REMARK    4  A    between atoms: C_16  and  C_17
REMARK                            x       y       z     vdW  Elec       q    Type
REMARK                         _______ _______ _______ _____ _____    ______ ____
ROOT
ATOM      1  C   UNL     1       3.386   6.516  17.991  0.00  0.00    +0.000 A 
ATOM      2  C   UNL     1       4.213   6.886  16.921  0.00  0.00    +0.000 A 
ATOM      3  N   UNL     1       5.083   6.077  16.284  0.00  0.00    +0.000 NA
ATOM      4  C   UNL     1       5.159   4.816  16.742  0.00  0.00    +0.000 A 
ATOM      5  C   UNL     1       4.400   4.323  17.801  0.00  0.00    +0.000 A 
ATOM      6  C   UNL     1       4.532   2.999  18.250  0.00  0.00    +0.000 A 
ATOM      7  C   UNL     1       3.762   2.548  19.316  0.00  0.00    +0.000 A 
ATOM      8  C   UNL     1       2.874   3.439  19.881  0.00  0.00    +0.000 A 
ATOM      9  N   UNL     1       2.715   4.717  19.452  0.00  0.00    +0.000 NA
ATOM     10  C   UNL     1       3.479   5.183  18.435  0.00  0.00    +0.000 A 
ENDROOT
BRANCH   1  14
ATOM     11  C   UNL     1       0.801   9.472  19.807  0.00  0.00    +0.000 A 
ATOM     12  C   UNL     1       1.146   9.559  18.457  0.00  0.00    +0.000 A 
ATOM     13  C   UNL     1       1.953   8.584  17.866  0.00  0.00    +0.000 A 
ATOM     14  C   UNL     1       2.489   7.522  18.614  0.00  0.00    +0.000 A 
ATOM     15  C   UNL     1       2.161   7.479  19.980  0.00  0.00    +0.000 A 
ATOM     16  C   UNL     1       1.315   8.422  20.566  0.00  0.00    +0.000 A 
BRANCH  11  20
ATOM     17  C   UNL     1      -1.899  12.025  23.069  0.00  0.00    +0.000 C 
ATOM     18  N   UNL     1      -1.286  11.560  21.849  0.00  0.00    +0.000 N 
ATOM     19  C   UNL     1      -0.285  10.646  21.734  0.00  0.00    +0.000 A 
ATOM     20  C   UNL     1      -0.102  10.443  20.386  0.00  0.00    +0.000 A 
ATOM     21  C   UNL     1      -1.033  11.314  19.777  0.00  0.00    +0.000 A 
ATOM     22  N   UNL     1      -1.750  12.003  20.665  0.00  0.00    +0.000 NA
ENDBRANCH  11  20
ENDBRANCH   1  14
BRANCH   8  23
ATOM     23  C   UNL     1       2.030   3.019  21.049  0.00  0.00    +0.000 C 
ATOM     24  N   UNL     1       0.675   3.014  20.845  0.00  0.00    +0.000 N 
ATOM     25  O   UNL     1       2.516   2.701  22.124  0.00  0.00    +0.000 OA
ATOM     26  H   UNL     1       0.295   3.225  19.930  0.00  0.00    +0.000 HD
ATOM     27  H   UNL     1       0.070   2.696  21.588  0.00  0.00    +0.000 HD
ENDBRANCH   8  23
TORSDOF 3
ENDMDL
MODEL 6
REMARK VINA RESULT:      -8.5      1.418      1.627
REMARK  Name = 
REMARK  4 active torsions:
REMARK  status: ('A' for Active; 'I' for Inactive)
REMARK    1  A    between atoms: C_1  and  N_2
REMARK    2  A    between atoms: C_4  and  C_5
REMARK    3  A    between atoms: C_8  and  C_9
REMARK    4  A    between atoms: C_16  and  C_17
REMARK                            x       y       z     vdW  Elec       q    Type
REMARK                         _______ _______ _______ _____ _____    ______ ____
ROOT
ATOM      1  C   UNL     1       3.142   6.821  18.321  0.00  0.00    +0.000 A 
ATOM      2  C   UNL     1       3.880   7.343  17.250  0.00  0.00    +0.000 A 
ATOM      3  N   UNL     1       4.732   6.648  16.470  0.00  0.00    +0.000 NA
ATOM      4  C   UNL     1       4.884   5.348  16.776  0.00  0.00    +0.000 A 
ATOM      5  C   UNL     1       4.216   4.708  17.817  0.00  0.00    +0.000 A 
ATOM      6  C   UNL     1       4.425   3.348  18.102  0.00  0.00    +0.000 A 
ATOM      7  C   UNL     1       3.746   2.749  19.156  0.00  0.00    +0.000 A 
ATOM      8  C   UNL     1       2.867   3.532  19.876  0.00  0.00    +0.000 A 
ATOM      9  N   UNL     1       2.636   4.843  19.607  0.00  0.00    +0.000 NA
ATOM     10  C   UNL     1       3.311   5.451  18.603  0.00  0.00    +0.000 A 
ENDROOT
BRANCH   1  14
ATOM     11  C   UNL     1       0.586   9.441  20.628  0.00  0.00    +0.000 A 
ATOM     12  C   UNL     1       0.882   9.726  19.293  0.00  0.00    +0.000 A 
ATOM     13  C   UNL     1       1.680   8.861  18.542  0.00  0.00    +0.000 A 
ATOM     14  C   UNL     1       2.255   7.711  19.111  0.00  0.00    +0.000 A 
ATOM     15  C   UNL     1       1.975   7.468  20.468  0.00  0.00    +0.000 A 
ATOM     16  C   UNL     1       1.139   8.302  21.211  0.00  0.00    +0.000 A 
BRANCH  11  20
ATOM     17  C   UNL     1      -2.429  13.170  21.830  0.00  0.00    +0.000 C 
ATOM     18  N   UNL     1      -1.644  11.962  21.877  0.00  0.00    +0.000 N 
ATOM     19  C   UNL     1      -1.015  11.355  20.833  0.00  0.00    +0.000 A 
ATOM     20  C   UNL     1      -0.309  10.303  21.369  0.00  0.00    +0.000 A 
ATOM     21  C   UNL     1      -0.610  10.354  22.749  0.00  0.00    +0.000 A 
ATOM     22  N   UNL     1      -1.430  11.357  23.060  0.00  0.00    +0.000 NA
ENDBRANCH  11  20
ENDBRANCH   1  14
BRANCH   8  23
ATOM     23  C   UNL     1       2.121   2.949  21.039  0.00  0.00    +0.000 C 
ATOM     24  N   UNL     1       0.754   2.933  20.934  0.00  0.00    +0.000 N 
ATOM     25  O   UNL     1       2.691   2.513  22.028  0.00  0.00    +0.000 OA
ATOM     26  H   UNL     1       0.303   3.245  20.083  0.00  0.00    +0.000 HD
ATOM     27  H   UNL     1       0.212   2.509  21.673  0.00  0.00    +0.000 HD
ENDBRANCH   8  23
TORSDOF 3
ENDMDL
MODEL 7
REMARK VINA RESULT:      -8.4      0.949      1.566
REMARK  Name = 
REMARK  4 active torsions:
REMARK  status: ('A' for Active; 'I' for Inactive)
REMARK    1  A    between atoms: C_1  and  N_2
REMARK    2  A    between atoms: C_4  and  C_5
REMARK    3  A    between atoms: C_8  and  C_9
REMARK    4  A    between atoms: C_16  and  C_17
REMARK                            x       y       z     vdW  Elec       q    Type
REMARK                         _______ _______ _______ _____ _____    ______ ____
ROOT
ATOM      1  C   UNL     1       3.343   6.809  17.917  0.00  0.00    +0.000 A 
ATOM      2  C   UNL     1       4.335   7.422  17.140  0.00  0.00    +0.000 A 
ATOM      3  N   UNL     1       5.199   6.786  16.323  0.00  0.00    +0.000 NA
ATOM      4  C   UNL     1       5.090   5.447  16.279  0.00  0.00    +0.000 A 
ATOM      5  C   UNL     1       4.153   4.716  17.004  0.00  0.00    +0.000 A 
ATOM      6  C   UNL     1       4.095   3.314  16.932  0.00  0.00    +0.000 A 
ATOM      7  C   UNL     1       3.151   2.620  17.679  0.00  0.00    +0.000 A 
ATOM      8  C   UNL     1       2.286   3.360  18.459  0.00  0.00    +0.000 A 
ATOM      9  N   UNL     1       2.312   4.715  18.531  0.00  0.00    +0.000 NA
ATOM     10  C   UNL     1       3.245   5.406  17.833  0.00  0.00    +0.000 A 
ENDROOT
BRANCH   1  14
ATOM     11  C   UNL     1       0.780   9.190  20.464  0.00  0.00    +0.000 A 
ATOM     12  C   UNL     1       1.379   8.023  20.944  0.00  0.00    +0.000 A 
ATOM     13  C   UNL     1       2.232   7.275  20.130  0.00  0.00    +0.000 A 
ATOM     14  C   UNL     1       2.473   7.635  18.792  0.00  0.00    +0.000 A 
ATOM     15  C   UNL     1       1.827   8.791  18.320  0.00  0.00    +0.000 A 
ATOM     16  C   UNL     1       1.012   9.570  19.142  0.00  0.00    +0.000 A 
BRANCH  11  20
ATOM     17  C   UNL     1      -1.960  12.897  22.250  0.00  0.00    +0.000 C 
ATOM     18  N   UNL     1      -1.248  11.651  22.112  0.00  0.00    +0.000 N 
ATOM     19  C   UNL     1      -0.694  11.148  20.975  0.00  0.00    +0.000 A 
ATOM     20  C   UNL     1      -0.034   9.999  21.344  0.00  0.00    +0.000 A 
ATOM     21  C   UNL     1      -0.284   9.889  22.730  0.00  0.00    +0.000 A 
ATOM     22  N   UNL     1      -1.031  10.889  23.199  0.00  0.00    +0.000 NA
ENDBRANCH  11  20
ENDBRANCH   1  14
BRANCH   8  23
ATOM     23  C   UNL     1       1.259   2.667  19.306  0.00  0.00    +0.000 C 
ATOM     24  N   UNL     1       0.647   1.578  18.743  0.00  0.00    +0.000 N 
ATOM     25  O   UNL     1       0.978   3.048  20.432  0.00  0.00    +0.000 OA
ATOM     26  H   UNL     1       0.935   1.243  17.832  0.00  0.00    +0.000 HD
ATOM     27  H   UNL     1      -0.018   1.053  19.292  0.00  0.00    +0.000 HD
ENDBRANCH   8  23
TORSDOF 3
ENDMDL
MODEL 8
REMARK VINA RESULT:      -8.4      0.853      1.143
REMARK  Name = 
REMARK  4 active torsions:
REMARK  status: ('A' for Active; 'I' for Inactive)
REMARK    1  A    between atoms: C_1  and  N_2
REMARK    2  A    between atoms: C_4  and  C_5
REMARK    3  A    between atoms: C_8  and  C_9
REMARK    4  A    between atoms: C_16  and  C_17
REMARK                            x       y       z     vdW  Elec       q    Type
REMARK                         _______ _______ _______ _____ _____    ______ ____
ROOT
ATOM      1  C   UNL     1       3.499   6.823  17.722  0.00  0.00    +0.000 A 
ATOM      2  C   UNL     1       4.586   7.365  17.023  0.00  0.00    +0.000 A 
ATOM      3  N   UNL     1       5.518   6.660  16.350  0.00  0.00    +0.000 NA
ATOM      4  C   UNL     1       5.382   5.323  16.381  0.00  0.00    +0.000 A 
ATOM      5  C   UNL     1       4.353   4.659  17.044  0.00  0.00    +0.000 A 
ATOM      6  C   UNL     1       4.268   3.257  17.058  0.00  0.00    +0.000 A 
ATOM      7  C   UNL     1       3.230   2.631  17.739  0.00  0.00    +0.000 A 
ATOM      8  C   UNL     1       2.304   3.438  18.368  0.00  0.00    +0.000 A 
ATOM      9  N   UNL     1       2.355   4.794  18.353  0.00  0.00    +0.000 NA
ATOM     10  C   UNL     1       3.376   5.420  17.720  0.00  0.00    +0.000 A 
ENDROOT
BRANCH   1  14
ATOM     11  C   UNL     1       0.790   9.468  19.817  0.00  0.00    +0.000 A 
ATOM     12  C   UNL     1       1.129   9.704  18.483  0.00  0.00    +0.000 A 
ATOM     13  C   UNL     1       1.977   8.829  17.800  0.00  0.00    +0.000 A 
ATOM     14  C   UNL     1       2.560   7.722  18.440  0.00  0.00    +0.000 A 
ATOM     15  C   UNL     1       2.235   7.529  19.794  0.00  0.00    +0.000 A 
ATOM     16  C   UNL     1       1.351   8.371  20.469  0.00  0.00    +0.000 A 
BRANCH  11  20
ATOM     17  C   UNL     1      -2.598  12.967  20.664  0.00  0.00    +0.000 C 
ATOM     18  N   UNL     1      -1.657  11.889  20.836  0.00  0.00    +0.000 N 
ATOM     19  C   UNL     1      -1.032  11.185  19.853  0.00  0.00    +0.000 A 
ATOM     20  C   UNL     1      -0.154  10.336  20.486  0.00  0.00    +0.000 A 
ATOM     21  C   UNL     1      -0.356  10.595  21.861  0.00  0.00    +0.000 A 
ATOM     22  N   UNL     1      -1.277  11.533  22.078  0.00  0.00    +0.000 NA
ENDBRANCH  11  20
ENDBRANCH   1  14
BRANCH   8  23
ATOM     23  C   UNL     1       1.173   2.822  19.138  0.00  0.00    +0.000 C 
ATOM     24  N   UNL     1       0.690   1.634  18.656  0.00  0.00    +0.000 N 
ATOM     25  O   UNL     1       0.703   3.345  20.137  0.00  0.00    +0.000 OA
ATOM     26  H   UNL     1       1.130   1.187  17.861  0.00  0.00    +0.000 HD
ATOM     27  H   UNL     1      -0.041   1.160  19.167  0.00  0.00    +0.000 HD
ENDBRANCH   8  23
TORSDOF 3
ENDMDL
MODEL 9
REMARK VINA RESULT:      -8.4      1.328      1.816
REMARK  Name = 
REMARK  4 active torsions:
REMARK  status: ('A' for Active; 'I' for Inactive)
REMARK    1  A    between atoms: C_1  and  N_2
REMARK    2  A    between atoms: C_4  and  C_5
REMARK    3  A    between atoms: C_8  and  C_9
REMARK    4  A    between atoms: C_16  and  C_17
REMARK                            x       y       z     vdW  Elec       q    Type
REMARK                         _______ _______ _______ _____ _____    ______ ____
ROOT
ATOM      1  C   UNL     1       3.403   6.544  18.012  0.00  0.00    +0.000 A 
ATOM      2  C   UNL     1       4.233   6.915  16.945  0.00  0.00    +0.000 A 
ATOM      3  N   UNL     1       5.107   6.107  16.313  0.00  0.00    +0.000 NA
ATOM      4  C   UNL     1       5.185   4.846  16.774  0.00  0.00    +0.000 A 
ATOM      5  C   UNL     1       4.422   4.354  17.830  0.00  0.00    +0.000 A 
ATOM      6  C   UNL     1       4.556   3.031  18.283  0.00  0.00    +0.000 A 
ATOM      7  C   UNL     1       3.782   2.580  19.346  0.00  0.00    +0.000 A 
ATOM      8  C   UNL     1       2.889   3.470  19.906  0.00  0.00    +0.000 A 
ATOM      9  N   UNL     1       2.730   4.747  19.474  0.00  0.00    +0.000 NA
ATOM     10  C   UNL     1       3.496   5.212  18.459  0.00  0.00    +0.000 A 
ENDROOT
BRANCH   1  14
ATOM     11  C   UNL     1       0.744   9.446  19.810  0.00  0.00    +0.000 A 
ATOM     12  C   UNL     1       1.265   8.392  20.564  0.00  0.00    +0.000 A 
ATOM     13  C   UNL     1       2.149   7.477  19.989  0.00  0.00    +0.000 A 
ATOM     14  C   UNL     1       2.501   7.549  18.629  0.00  0.00    +0.000 A 
ATOM     15  C   UNL     1       1.931   8.595  17.882  0.00  0.00    +0.000 A 
ATOM     16  C   UNL     1       1.085   9.542  18.462  0.00  0.00    +0.000 A 
BRANCH  11  20
ATOM     17  C   UNL     1      -2.510  13.106  20.487  0.00  0.00    +0.000 C 
ATOM     18  N   UNL     1      -1.552  12.053  20.715  0.00  0.00    +0.000 N 
ATOM     19  C   UNL     1      -1.062  11.180  19.793  0.00  0.00    +0.000 A 
ATOM     20  C   UNL     1      -0.105  10.434  20.440  0.00  0.00    +0.000 A 
ATOM     21  C   UNL     1      -0.122  10.925  21.765  0.00  0.00    +0.000 A 
ATOM     22  N   UNL     1      -1.009  11.906  21.938  0.00  0.00    +0.000 NA
ENDBRANCH  11  20
ENDBRANCH   1  14
BRANCH   8  23
ATOM     23  C   UNL     1       2.042   3.050  21.071  0.00  0.00    +0.000 C 
ATOM     24  N   UNL     1       0.687   3.045  20.862  0.00  0.00    +0.000 N 
ATOM     25  O   UNL     1       2.524   2.732  22.147  0.00  0.00    +0.000 OA
ATOM     26  H   UNL     1       0.310   3.256  19.947  0.00  0.00    +0.000 HD
ATOM     27  H   UNL     1       0.080   2.727  21.604  0.00  0.00    +0.000 HD
ENDBRANCH   8  23
TORSDOF 3
ENDMDL
