MODEL 1
REMARK VINA RESULT:      -7.6      0.000      0.000
REMARK  Name = 
REMARK  2 active torsions:
REMARK  status: ('A' for Active; 'I' for Inactive)
REMARK    1  A    between atoms: N_1  and  N_2
REMARK    2  A    between atoms: C_3  and  C_4
REMARK                            x       y       z     vdW  Elec       q    Type
REMARK                         _______ _______ _______ _____ _____    ______ ____
ROOT
ATOM      1  N   UNL     1       5.679   5.226  16.928  0.00  0.00    +0.000 N 
ATOM      2  C   UNL     1       4.715   4.281  16.537  0.00  0.00    +0.000 A 
ATOM      3  N   UNL     1       4.742   3.720  15.363  0.00  0.00    +0.000 NA
ATOM      4  C   UNL     1       5.729   4.100  14.442  0.00  0.00    +0.000 A 
ATOM      5  C   UNL     1       5.712   3.532  13.165  0.00  0.00    +0.000 A 
ATOM      6  C   UNL     1       6.662   3.899  12.206  0.00  0.00    +0.000 A 
ATOM      7  C   UNL     1       7.647   4.835  12.517  0.00  0.00    +0.000 A 
ATOM      8  C   UNL     1       7.684   5.401  13.790  0.00  0.00    +0.000 A 
ATOM      9  C   UNL     1       6.723   5.030  14.740  0.00  0.00    +0.000 A 
ATOM     10  C   UNL     1       6.733   5.604  16.091  0.00  0.00    +0.000 A 
ATOM     11  O   UNL     1       7.650   6.348  16.450  0.00  0.00    +0.000 OA
ENDROOT
BRANCH   2  12
ATOM     12  C   UNL     1       3.642   3.845  17.494  0.00  0.00    +0.000 A 
ATOM     13  C   UNL     1       2.443   4.550  17.669  0.00  0.00    +0.000 A 
ATOM     14  C   UNL     1       1.513   4.142  18.629  0.00  0.00    +0.000 A 
ATOM     15  C   UNL     1       1.753   2.992  19.370  0.00  0.00    +0.000 A 
ATOM     16  F   UNL     1       0.861   2.604  20.291  0.00  0.00    +0.000 F 
ATOM     17  C   UNL     1       2.901   2.237  19.165  0.00  0.00    +0.000 A 
ATOM     18  C   UNL     1       3.847   2.664  18.229  0.00  0.00    +0.000 A 
ENDBRANCH   2  12
BRANCH   1  19
ATOM     19  N   UNL     1       5.721   5.773  18.249  0.00  0.00    +0.000 N 
ATOM     20  H   UNL     1       5.063   6.551  18.285  0.00  0.00    +0.000 HD
ATOM     21  H   UNL     1       5.318   5.051  18.863  0.00  0.00    +0.000 HD
ENDBRANCH   1  19
TORSDOF 2
ENDMDL
MODEL 2
REMARK VINA RESULT:      -7.6      0.114      1.114
REMARK  Name = 
REMARK  2 active torsions:
REMARK  status: ('A' for Active; 'I' for Inactive)
REMARK    1  A    between atoms: N_1  and  N_2
REMARK    2  A    between atoms: C_3  and  C_4
REMARK                            x       y       z     vdW  Elec       q    Type
REMARK                         _______ _______ _______ _____ _____    ______ ____
ROOT
ATOM      1  N   UNL     1       5.721   5.210  16.933  0.00  0.00    +0.000 N 
ATOM      2  C   UNL     1       4.762   4.256  16.552  0.00  0.00    +0.000 A 
ATOM      3  N   UNL     1       4.782   3.695  15.377  0.00  0.00    +0.000 NA
ATOM      4  C   UNL     1       5.756   4.084  14.446  0.00  0.00    +0.000 A 
ATOM      5  C   UNL     1       5.731   3.517  13.169  0.00  0.00    +0.000 A 
ATOM      6  C   UNL     1       6.667   3.893  12.200  0.00  0.00    +0.000 A 
ATOM      7  C   UNL     1       7.647   4.837  12.501  0.00  0.00    +0.000 A 
ATOM      8  C   UNL     1       7.693   5.404  13.774  0.00  0.00    +0.000 A 
ATOM      9  C   UNL     1       6.744   5.024  14.733  0.00  0.00    +0.000 A 
ATOM     10  C   UNL     1       6.763   5.597  16.085  0.00  0.00    +0.000 A 
ATOM     11  O   UNL     1       7.677   6.350  16.435  0.00  0.00    +0.000 OA
ENDROOT
BRANCH   2  12
ATOM     12  C   UNL     1       3.703   3.811  17.520  0.00  0.00    +0.000 A 
ATOM     13  C   UNL     1       3.835   2.668  18.321  0.00  0.00    +0.000 A 
ATOM     14  C   UNL     1       2.786   2.257  19.149  0.00  0.00    +0.000 A 
ATOM     15  C   UNL     1       1.630   3.023  19.223  0.00  0.00    +0.000 A 
ATOM     16  F   UNL     1       0.627   2.626  20.015  0.00  0.00    +0.000 F 
ATOM     17  C   UNL     1       1.505   4.198  18.491  0.00  0.00    +0.000 A 
ATOM     18  C   UNL     1       2.540   4.591  17.638  0.00  0.00    +0.000 A 
ENDBRANCH   2  12
BRANCH   1  19
ATOM     19  N   UNL     1       5.772   5.757  18.253  0.00  0.00    +0.000 N 
ATOM     20  H   UNL     1       4.861   5.610  18.686  0.00  0.00    +0.000 HD
ATOM     21  H   UNL     1       6.420   5.155  18.781  0.00  0.00    +0.000 HD
ENDBRANCH   1  19
TORSDOF 2
ENDMDL
MODEL 3
REMARK VINA RESULT:      -7.4      3.175      6.476
REMARK  Name = 
REMARK  2 active torsions:
REMARK  status: ('A' for Active; 'I' for Inactive)
REMARK    1  A    between atoms: N_1  and  N_2
REMARK    2  A    between atoms: C_3  and  C_4
REMARK                            x       y       z     vdW  Elec       q    Type
REMARK                         _______ _______ _______ _____ _____    ______ ____
ROOT
ATOM      1  N   UNL     1       3.952   5.980  18.021  0.00  0.00    +0.000 N 
ATOM      2  C   UNL     1       4.579   4.788  17.617  0.00  0.00    +0.000 A 
ATOM      3  N   UNL     1       4.402   3.669  18.259  0.00  0.00    +0.000 NA
ATOM      4  C   UNL     1       3.604   3.658  19.412  0.00  0.00    +0.000 A 
ATOM      5  C   UNL     1       3.469   2.463  20.125  0.00  0.00    +0.000 A 
ATOM      6  C   UNL     1       2.703   2.409  21.294  0.00  0.00    +0.000 A 
ATOM      7  C   UNL     1       2.055   3.552  21.761  0.00  0.00    +0.000 A 
ATOM      8  C   UNL     1       2.170   4.748  21.055  0.00  0.00    +0.000 A 
ATOM      9  C   UNL     1       2.946   4.790  19.888  0.00  0.00    +0.000 A 
ATOM     10  C   UNL     1       3.088   6.032  19.118  0.00  0.00    +0.000 A 
ATOM     11  O   UNL     1       2.444   7.039  19.426  0.00  0.00    +0.000 OA
ENDROOT
BRANCH   2  12
ATOM     12  C   UNL     1       5.440   4.758  16.387  0.00  0.00    +0.000 A 
ATOM     13  C   UNL     1       6.781   5.165  16.384  0.00  0.00    +0.000 A 
ATOM     14  C   UNL     1       7.513   5.188  15.194  0.00  0.00    +0.000 A 
ATOM     15  C   UNL     1       6.924   4.744  14.017  0.00  0.00    +0.000 A 
ATOM     16  F   UNL     1       7.627   4.769  12.878  0.00  0.00    +0.000 F 
ATOM     17  C   UNL     1       5.618   4.269  14.009  0.00  0.00    +0.000 A 
ATOM     18  C   UNL     1       4.875   4.277  15.192  0.00  0.00    +0.000 A 
ENDBRANCH   2  12
BRANCH   1  19
ATOM     19  N   UNL     1       4.056   7.190  17.266  0.00  0.00    +0.000 N 
ATOM     20  H   UNL     1       4.893   7.126  16.688  0.00  0.00    +0.000 HD
ATOM     21  H   UNL     1       3.270   7.174  16.602  0.00  0.00    +0.000 HD
ENDBRANCH   1  19
TORSDOF 2
ENDMDL
MODEL 4
REMARK VINA RESULT:      -7.3      4.090      6.784
REMARK  Name = 
REMARK  2 active torsions:
REMARK  status: ('A' for Active; 'I' for Inactive)
REMARK    1  A    between atoms: N_1  and  N_2
REMARK    2  A    between atoms: C_3  and  C_4
REMARK                            x       y       z     vdW  Elec       q    Type
REMARK                         _______ _______ _______ _____ _____    ______ ____
ROOT
ATOM      1  N   UNL     1       4.780   3.773  17.711  0.00  0.00    +0.000 N 
ATOM      2  C   UNL     1       4.907   4.907  18.532  0.00  0.00    +0.000 A 
ATOM      3  N   UNL     1       4.138   5.095  19.565  0.00  0.00    +0.000 NA
ATOM      4  C   UNL     1       3.123   4.168  19.844  0.00  0.00    +0.000 A 
ATOM      5  C   UNL     1       2.267   4.411  20.922  0.00  0.00    +0.000 A 
ATOM      6  C   UNL     1       1.226   3.527  21.223  0.00  0.00    +0.000 A 
ATOM      7  C   UNL     1       1.033   2.382  20.451  0.00  0.00    +0.000 A 
ATOM      8  C   UNL     1       1.885   2.120  19.379  0.00  0.00    +0.000 A 
ATOM      9  C   UNL     1       2.920   3.018  19.085  0.00  0.00    +0.000 A 
ATOM     10  C   UNL     1       3.838   2.772  17.965  0.00  0.00    +0.000 A 
ATOM     11  O   UNL     1       3.780   1.718  17.324  0.00  0.00    +0.000 OA
ENDROOT
BRANCH   2  12
ATOM     12  C   UNL     1       5.983   5.922  18.269  0.00  0.00    +0.000 A 
ATOM     13  C   UNL     1       7.236   5.885  18.894  0.00  0.00    +0.000 A 
ATOM     14  C   UNL     1       8.172   6.898  18.670  0.00  0.00    +0.000 A 
ATOM     15  C   UNL     1       7.879   7.916  17.773  0.00  0.00    +0.000 A 
ATOM     16  F   UNL     1       8.776   8.887  17.561  0.00  0.00    +0.000 F 
ATOM     17  C   UNL     1       6.670   7.937  17.087  0.00  0.00    +0.000 A 
ATOM     18  C   UNL     1       5.721   6.942  17.336  0.00  0.00    +0.000 A 
ENDBRANCH   2  12
BRANCH   1  19
ATOM     19  N   UNL     1       5.684   3.504  16.635  0.00  0.00    +0.000 N 
ATOM     20  H   UNL     1       5.917   4.393  16.194  0.00  0.00    +0.000 HD
ATOM     21  H   UNL     1       6.558   3.187  17.077  0.00  0.00    +0.000 HD
ENDBRANCH   1  19
TORSDOF 2
ENDMDL
MODEL 5
REMARK VINA RESULT:      -7.3      3.026      6.166
REMARK  Name = 
REMARK  2 active torsions:
REMARK  status: ('A' for Active; 'I' for Inactive)
REMARK    1  A    between atoms: N_1  and  N_2
REMARK    2  A    between atoms: C_3  and  C_4
REMARK                            x       y       z     vdW  Elec       q    Type
REMARK                         _______ _______ _______ _____ _____    ______ ____
ROOT
ATOM      1  N   UNL     1       6.203   4.517  17.443  0.00  0.00    +0.000 N 
ATOM      2  C   UNL     1       5.414   4.361  16.291  0.00  0.00    +0.000 A 
ATOM      3  N   UNL     1       4.117   4.264  16.356  0.00  0.00    +0.000 NA
ATOM      4  C   UNL     1       3.490   4.266  17.610  0.00  0.00    +0.000 A 
ATOM      5  C   UNL     1       2.103   4.103  17.670  0.00  0.00    +0.000 A 
ATOM      6  C   UNL     1       1.438   4.074  18.899  0.00  0.00    +0.000 A 
ATOM      7  C   UNL     1       2.153   4.217  20.088  0.00  0.00    +0.000 A 
ATOM      8  C   UNL     1       3.535   4.393  20.044  0.00  0.00    +0.000 A 
ATOM      9  C   UNL     1       4.191   4.412  18.806  0.00  0.00    +0.000 A 
ATOM     10  C   UNL     1       5.645   4.598  18.722  0.00  0.00    +0.000 A 
ATOM     11  O   UNL     1       6.306   4.842  19.736  0.00  0.00    +0.000 OA
ENDROOT
BRANCH   2  12
ATOM     12  C   UNL     1       6.046   4.356  14.928  0.00  0.00    +0.000 A 
ATOM     13  C   UNL     1       7.178   5.120  14.609  0.00  0.00    +0.000 A 
ATOM     14  C   UNL     1       7.679   5.136  13.305  0.00  0.00    +0.000 A 
ATOM     15  C   UNL     1       7.087   4.339  12.333  0.00  0.00    +0.000 A 
ATOM     16  F   UNL     1       7.568   4.358  11.084  0.00  0.00    +0.000 F 
ATOM     17  C   UNL     1       6.008   3.519  12.642  0.00  0.00    +0.000 A 
ATOM     18  C   UNL     1       5.486   3.529  13.938  0.00  0.00    +0.000 A 
ENDBRANCH   2  12
BRANCH   1  19
ATOM     19  N   UNL     1       7.616   4.729  17.378  0.00  0.00    +0.000 N 
ATOM     20  H   UNL     1       7.809   5.291  16.550  0.00  0.00    +0.000 HD
ATOM     21  H   UNL     1       7.845   5.338  18.176  0.00  0.00    +0.000 HD
ENDBRANCH   1  19
TORSDOF 2
ENDMDL
MODEL 6
REMARK VINA RESULT:      -7.2      1.064      1.150
REMARK  Name = 
REMARK  2 active torsions:
REMARK  status: ('A' for Active; 'I' for Inactive)
REMARK    1  A    between atoms: N_1  and  N_2
REMARK    2  A    between atoms: C_3  and  C_4
REMARK                            x       y       z     vdW  Elec       q    Type
REMARK                         _______ _______ _______ _____ _____    ______ ____
ROOT
ATOM      1  N   UNL     1       5.770   5.070  18.021  0.00  0.00    +0.000 N 
ATOM      2  C   UNL     1       4.668   4.277  17.657  0.00  0.00    +0.000 A 
ATOM      3  N   UNL     1       4.532   3.804  16.452  0.00  0.00    +0.000 NA
ATOM      4  C   UNL     1       5.483   4.130  15.475  0.00  0.00    +0.000 A 
ATOM      5  C   UNL     1       5.296   3.664  14.170  0.00  0.00    +0.000 A 
ATOM      6  C   UNL     1       6.205   3.984  13.157  0.00  0.00    +0.000 A 
ATOM      7  C   UNL     1       7.321   4.771  13.440  0.00  0.00    +0.000 A 
ATOM      8  C   UNL     1       7.528   5.234  14.738  0.00  0.00    +0.000 A 
ATOM      9  C   UNL     1       6.605   4.912  15.742  0.00  0.00    +0.000 A 
ATOM     10  C   UNL     1       6.794   5.380  17.121  0.00  0.00    +0.000 A 
ATOM     11  O   UNL     1       7.821   5.982  17.446  0.00  0.00    +0.000 OA
ENDROOT
BRANCH   2  12
ATOM     12  C   UNL     1       3.628   3.903  18.675  0.00  0.00    +0.000 A 
ATOM     13  C   UNL     1       2.384   4.544  18.765  0.00  0.00    +0.000 A 
ATOM     14  C   UNL     1       1.485   4.206  19.780  0.00  0.00    +0.000 A 
ATOM     15  C   UNL     1       1.802   3.186  20.667  0.00  0.00    +0.000 A 
ATOM     16  F   UNL     1       0.940   2.866  21.640  0.00  0.00    +0.000 F 
ATOM     17  C   UNL     1       2.999   2.488  20.553  0.00  0.00    +0.000 A 
ATOM     18  C   UNL     1       3.913   2.848  19.559  0.00  0.00    +0.000 A 
ENDBRANCH   2  12
BRANCH   1  19
ATOM     19  N   UNL     1       5.983   5.509  19.366  0.00  0.00    +0.000 N 
ATOM     20  H   UNL     1       5.360   4.976  19.970  0.00  0.00    +0.000 HD
ATOM     21  H   UNL     1       6.932   5.197  19.615  0.00  0.00    +0.000 HD
ENDBRANCH   1  19
TORSDOF 2
ENDMDL
MODEL 7
REMARK VINA RESULT:      -7.2      1.117      1.650
REMARK  Name = 
REMARK  2 active torsions:
REMARK  status: ('A' for Active; 'I' for Inactive)
REMARK    1  A    between atoms: N_1  and  N_2
REMARK    2  A    between atoms: C_3  and  C_4
REMARK                            x       y       z     vdW  Elec       q    Type
REMARK                         _______ _______ _______ _____ _____    ______ ____
ROOT
ATOM      1  N   UNL     1       5.820   5.081  18.094  0.00  0.00    +0.000 N 
ATOM      2  C   UNL     1       4.732   4.248  17.779  0.00  0.00    +0.000 A 
ATOM      3  N   UNL     1       4.574   3.748  16.588  0.00  0.00    +0.000 NA
ATOM      4  C   UNL     1       5.484   4.085  15.575  0.00  0.00    +0.000 A 
ATOM      5  C   UNL     1       5.270   3.588  14.286  0.00  0.00    +0.000 A 
ATOM      6  C   UNL     1       6.137   3.917  13.239  0.00  0.00    +0.000 A 
ATOM      7  C   UNL     1       7.236   4.743  13.471  0.00  0.00    +0.000 A 
ATOM      8  C   UNL     1       7.469   5.237  14.754  0.00  0.00    +0.000 A 
ATOM      9  C   UNL     1       6.589   4.905  15.793  0.00  0.00    +0.000 A 
ATOM     10  C   UNL     1       6.805   5.405  17.156  0.00  0.00    +0.000 A 
ATOM     11  O   UNL     1       7.823   6.045  17.437  0.00  0.00    +0.000 OA
ENDROOT
BRANCH   2  12
ATOM     12  C   UNL     1       3.737   3.862  18.835  0.00  0.00    +0.000 A 
ATOM     13  C   UNL     1       3.991   2.875  19.799  0.00  0.00    +0.000 A 
ATOM     14  C   UNL     1       3.000   2.502  20.711  0.00  0.00    +0.000 A 
ATOM     15  C   UNL     1       1.776   3.159  20.701  0.00  0.00    +0.000 A 
ATOM     16  F   UNL     1       0.828   2.798  21.574  0.00  0.00    +0.000 F 
ATOM     17  C   UNL     1       1.526   4.188  19.801  0.00  0.00    +0.000 A 
ATOM     18  C   UNL     1       2.505   4.539  18.868  0.00  0.00    +0.000 A 
ENDBRANCH   2  12
BRANCH   1  19
ATOM     19  N   UNL     1       6.061   5.553  19.422  0.00  0.00    +0.000 N 
ATOM     20  H   UNL     1       6.640   6.389  19.356  0.00  0.00    +0.000 HD
ATOM     21  H   UNL     1       5.151   5.883  19.772  0.00  0.00    +0.000 HD
ENDBRANCH   1  19
TORSDOF 2
ENDMDL
MODEL 8
REMARK VINA RESULT:      -7.1      3.112      6.428
REMARK  Name = 
REMARK  2 active torsions:
REMARK  status: ('A' for Active; 'I' for Inactive)
REMARK    1  A    between atoms: N_1  and  N_2
REMARK    2  A    between atoms: C_3  and  C_4
REMARK                            x       y       z     vdW  Elec       q    Type
REMARK                         _______ _______ _______ _____ _____    ______ ____
ROOT
ATOM      1  N   UNL     1       3.793   5.995  18.021  0.00  0.00    +0.000 N 
ATOM      2  C   UNL     1       4.265   4.786  17.482  0.00  0.00    +0.000 A 
ATOM      3  N   UNL     1       3.902   3.633  17.965  0.00  0.00    +0.000 NA
ATOM      4  C   UNL     1       3.056   3.592  19.083  0.00  0.00    +0.000 A 
ATOM      5  C   UNL     1       2.720   2.349  19.627  0.00  0.00    +0.000 A 
ATOM      6  C   UNL     1       1.899   2.260  20.756  0.00  0.00    +0.000 A 
ATOM      7  C   UNL     1       1.396   3.416  21.351  0.00  0.00    +0.000 A 
ATOM      8  C   UNL     1       1.712   4.663  20.812  0.00  0.00    +0.000 A 
ATOM      9  C   UNL     1       2.542   4.738  19.685  0.00  0.00    +0.000 A 
ATOM     10  C   UNL     1       2.893   6.033  19.090  0.00  0.00    +0.000 A 
ATOM     11  O   UNL     1       2.383   7.077  19.509  0.00  0.00    +0.000 OA
ENDROOT
BRANCH   2  12
ATOM     12  C   UNL     1       5.172   4.786  16.284  0.00  0.00    +0.000 A 
ATOM     13  C   UNL     1       4.738   4.430  15.000  0.00  0.00    +0.000 A 
ATOM     14  C   UNL     1       5.642   4.375  13.936  0.00  0.00    +0.000 A 
ATOM     15  C   UNL     1       6.967   4.736  14.142  0.00  0.00    +0.000 A 
ATOM     16  F   UNL     1       7.832   4.680  13.121  0.00  0.00    +0.000 F 
ATOM     17  C   UNL     1       7.405   5.160  15.391  0.00  0.00    +0.000 A 
ATOM     18  C   UNL     1       6.509   5.183  16.463  0.00  0.00    +0.000 A 
ENDBRANCH   2  12
BRANCH   1  19
ATOM     19  N   UNL     1       4.102   7.264  17.436  0.00  0.00    +0.000 N 
ATOM     20  H   UNL     1       4.717   7.761  18.078  0.00  0.00    +0.000 HD
ATOM     21  H   UNL     1       4.684   7.057  16.612  0.00  0.00    +0.000 HD
ENDBRANCH   1  19
TORSDOF 2
ENDMDL
MODEL 9
REMARK VINA RESULT:      -7.1      3.018      6.171
REMARK  Name = 
REMARK  2 active torsions:
REMARK  status: ('A' for Active; 'I' for Inactive)
REMARK    1  A    between atoms: N_1  and  N_2
REMARK    2  A    between atoms: C_3  and  C_4
REMARK                            x       y       z     vdW  Elec       q    Type
REMARK                         _______ _______ _______ _____ _____    ______ ____
ROOT
ATOM      1  N   UNL     1       6.153   4.470  17.358  0.00  0.00    +0.000 N 
ATOM      2  C   UNL     1       5.314   4.305  16.243  0.00  0.00    +0.000 A 
ATOM      3  N   UNL     1       4.021   4.218  16.365  0.00  0.00    +0.000 NA
ATOM      4  C   UNL     1       3.448   4.242  17.645  0.00  0.00    +0.000 A 
ATOM      5  C   UNL     1       2.064   4.090  17.766  0.00  0.00    +0.000 A 
ATOM      6  C   UNL     1       1.452   4.083  19.024  0.00  0.00    +0.000 A 
ATOM      7  C   UNL     1       2.219   4.237  20.178  0.00  0.00    +0.000 A 
ATOM      8  C   UNL     1       3.599   4.401  20.073  0.00  0.00    +0.000 A 
ATOM      9  C   UNL     1       4.201   4.399  18.807  0.00  0.00    +0.000 A 
ATOM     10  C   UNL     1       5.651   4.572  18.659  0.00  0.00    +0.000 A 
ATOM     11  O   UNL     1       6.357   4.825  19.639  0.00  0.00    +0.000 OA
ENDROOT
BRANCH   2  12
ATOM     12  C   UNL     1       5.887   4.276  14.855  0.00  0.00    +0.000 A 
ATOM     13  C   UNL     1       5.317   3.536  13.809  0.00  0.00    +0.000 A 
ATOM     14  C   UNL     1       5.935   3.485  12.557  0.00  0.00    +0.000 A 
ATOM     15  C   UNL     1       7.089   4.224  12.331  0.00  0.00    +0.000 A 
ATOM     16  F   UNL     1       7.681   4.171  11.131  0.00  0.00    +0.000 F 
ATOM     17  C   UNL     1       7.634   5.020  13.331  0.00  0.00    +0.000 A 
ATOM     18  C   UNL     1       7.034   5.045  14.593  0.00  0.00    +0.000 A 
ENDBRANCH   2  12
BRANCH   1  19
ATOM     19  N   UNL     1       7.564   4.670  17.229  0.00  0.00    +0.000 N 
ATOM     20  H   UNL     1       8.019   4.184  18.001  0.00  0.00    +0.000 HD
ATOM     21  H   UNL     1       7.843   4.153  16.384  0.00  0.00    +0.000 HD
ENDBRANCH   1  19
TORSDOF 2
ENDMDL
