MODEL 1
REMARK VINA RESULT:      -7.6      0.000      0.000
REMARK  Name = 
REMARK  6 active torsions:
REMARK  status: ('A' for Active; 'I' for Inactive)
REMARK    1  A    between atoms: C_1  and  C_2
REMARK    2  A    between atoms: C_5  and  N_6
REMARK    3  A    between atoms: N_6  and  S_7
REMARK    4  A    between atoms: S_7  and  C_10
REMARK    5  A    between atoms: C_18  and  C_20
REMARK    6  A    between atoms: C_26  and  C_27
REMARK                            x       y       z     vdW  Elec       q    Type
REMARK                         _______ _______ _______ _____ _____    ______ ____
ROOT
ATOM      1  C   UNL     1      -1.951  11.268  18.508  0.00  0.00    +0.000 A 
ATOM      2  C   UNL     1      -1.953  10.641  17.215  0.00  0.00    +0.000 A 
ATOM      3  C   UNL     1      -3.066  10.609  16.380  0.00  0.00    +0.000 A 
ATOM      4 BR   UNL     1      -2.957   9.853  14.654  0.00  0.00    +0.000 Br
ATOM      5  C   UNL     1      -4.236  11.178  16.804  0.00  0.00    +0.000 A 
ATOM      6  C   UNL     1      -4.254  11.771  18.066  0.00  0.00    +0.000 A 
ATOM      7  C   UNL     1      -3.145  11.866  18.968  0.00  0.00    +0.000 A 
ATOM      8  N   UNL     1      -3.635  12.631  20.087  0.00  0.00    +0.000 N 
ATOM      9  C   UNL     1      -3.208  13.153  21.312  0.00  0.00    +0.000 C 
ATOM     10  O   UNL     1      -3.954  13.911  21.943  0.00  0.00    +0.000 OA
ATOM     11  C   UNL     1      -5.080  12.885  19.902  0.00  0.00    +0.000 C 
ATOM     12  C   UNL     1      -5.492  12.458  18.530  0.00  0.00    +0.000 C 
ENDROOT
BRANCH   1  13
ATOM     13  S   UNL     1      -0.283  11.395  19.141  0.00  0.00    +0.000 S 
ATOM     14  O   UNL     1      -0.249  10.774  20.448  0.00  0.00    +0.000 OA
ATOM     15  O   UNL     1       0.148  12.778  19.024  0.00  0.00    +0.000 OA
BRANCH  13  16
ATOM     16  N   UNL     1       0.829  10.584  18.129  0.00  0.00    +0.000 N 
ATOM     17  H   UNL     1       0.299  10.398  17.274  0.00  0.00    +0.000 HD
BRANCH  16  22
ATOM     18  C   UNL     1       3.389   5.708  19.739  0.00  0.00    +0.000 C 
ATOM     19  C   UNL     1       2.678   6.962  19.309  0.00  0.00    +0.000 A 
ATOM     20  C   UNL     1       1.758   7.587  20.172  0.00  0.00    +0.000 A 
ATOM     21  C   UNL     1       1.135   8.791  19.815  0.00  0.00    +0.000 A 
ATOM     22  C   UNL     1       1.427   9.367  18.582  0.00  0.00    +0.000 A 
ATOM     23  C   UNL     1       2.308   8.735  17.718  0.00  0.00    +0.000 A 
ATOM     24  C   UNL     1       2.939   7.536  18.055  0.00  0.00    +0.000 A 
ATOM     25  C   UNL     1       3.878   6.928  17.053  0.00  0.00    +0.000 C 
ENDBRANCH  16  22
ENDBRANCH  13  16
ENDBRANCH   1  13
BRANCH   9  26
ATOM     26  C   UNL     1      -1.973  12.753  22.008  0.00  0.00    +0.000 C 
ATOM     27  C   UNL     1      -1.735  13.193  23.443  0.00  0.00    +0.000 C 
ATOM     28  C   UNL     1      -2.086  11.764  23.159  0.00  0.00    +0.000 C 
ENDBRANCH   9  26
TORSDOF 4
ENDMDL
MODEL 2
REMARK VINA RESULT:      -7.6      1.053      1.738
REMARK  Name = 
REMARK  6 active torsions:
REMARK  status: ('A' for Active; 'I' for Inactive)
REMARK    1  A    between atoms: C_1  and  C_2
REMARK    2  A    between atoms: C_5  and  N_6
REMARK    3  A    between atoms: N_6  and  S_7
REMARK    4  A    between atoms: S_7  and  C_10
REMARK    5  A    between atoms: C_18  and  C_20
REMARK    6  A    between atoms: C_26  and  C_27
REMARK                            x       y       z     vdW  Elec       q    Type
REMARK                         _______ _______ _______ _____ _____    ______ ____
ROOT
ATOM      1  C   UNL     1      -2.482  11.822  18.785  0.00  0.00    +0.000 A 
ATOM      2  C   UNL     1      -2.286  11.200  17.504  0.00  0.00    +0.000 A 
ATOM      3  C   UNL     1      -3.322  10.931  16.615  0.00  0.00    +0.000 A 
ATOM      4 BR   UNL     1      -2.968  10.204  14.910  0.00  0.00    +0.000 Br
ATOM      5  C   UNL     1      -4.607  11.244  16.971  0.00  0.00    +0.000 A 
ATOM      6  C   UNL     1      -4.814  11.827  18.221  0.00  0.00    +0.000 A 
ATOM      7  C   UNL     1      -3.798  12.158  19.174  0.00  0.00    +0.000 A 
ATOM      8  N   UNL     1      -4.496  12.811  20.255  0.00  0.00    +0.000 N 
ATOM      9  C   UNL     1      -4.252  13.419  21.490  0.00  0.00    +0.000 C 
ATOM     10  O   UNL     1      -5.172  14.007  22.071  0.00  0.00    +0.000 OA
ATOM     11  C   UNL     1      -5.950  12.755  19.994  0.00  0.00    +0.000 C 
ATOM     12  C   UNL     1      -6.191  12.242  18.611  0.00  0.00    +0.000 C 
ENDROOT
BRANCH   1  13
ATOM     13  S   UNL     1      -0.914  12.301  19.498  0.00  0.00    +0.000 S 
ATOM     14  O   UNL     1      -0.782  11.640  20.779  0.00  0.00    +0.000 OA
ATOM     15  O   UNL     1      -0.814  13.750  19.455  0.00  0.00    +0.000 OA
BRANCH  13  16
ATOM     16  N   UNL     1       0.391  11.820  18.506  0.00  0.00    +0.000 N 
ATOM     17  H   UNL     1       0.023  11.893  17.554  0.00  0.00    +0.000 HD
BRANCH  16  22
ATOM     18  C   UNL     1       2.559   6.593  19.455  0.00  0.00    +0.000 C 
ATOM     19  C   UNL     1       2.034   7.981  19.212  0.00  0.00    +0.000 A 
ATOM     20  C   UNL     1       2.262   8.619  17.978  0.00  0.00    +0.000 A 
ATOM     21  C   UNL     1       1.724   9.886  17.709  0.00  0.00    +0.000 A 
ATOM     22  C   UNL     1       0.964  10.523  18.686  0.00  0.00    +0.000 A 
ATOM     23  C   UNL     1       0.767   9.908  19.914  0.00  0.00    +0.000 A 
ATOM     24  C   UNL     1       1.293   8.648  20.200  0.00  0.00    +0.000 A 
ATOM     25  C   UNL     1       1.025   8.064  21.558  0.00  0.00    +0.000 C 
ENDBRANCH  16  22
ENDBRANCH  13  16
ENDBRANCH   1  13
BRANCH   9  26
ATOM     26  C   UNL     1      -2.998  13.291  22.254  0.00  0.00    +0.000 C 
ATOM     27  C   UNL     1      -2.965  13.669  23.725  0.00  0.00    +0.000 C 
ATOM     28  C   UNL     1      -2.922  12.223  23.334  0.00  0.00    +0.000 C 
ENDBRANCH   9  26
TORSDOF 4
ENDMDL
MODEL 3
REMARK VINA RESULT:      -7.5      1.385      1.779
REMARK  Name = 
REMARK  6 active torsions:
REMARK  status: ('A' for Active; 'I' for Inactive)
REMARK    1  A    between atoms: C_1  and  C_2
REMARK    2  A    between atoms: C_5  and  N_6
REMARK    3  A    between atoms: N_6  and  S_7
REMARK    4  A    between atoms: S_7  and  C_10
REMARK    5  A    between atoms: C_18  and  C_20
REMARK    6  A    between atoms: C_26  and  C_27
REMARK                            x       y       z     vdW  Elec       q    Type
REMARK                         _______ _______ _______ _____ _____    ______ ____
ROOT
ATOM      1  C   UNL     1      -2.539  11.956  18.858  0.00  0.00    +0.000 A 
ATOM      2  C   UNL     1      -2.315  11.400  17.551  0.00  0.00    +0.000 A 
ATOM      3  C   UNL     1      -3.338  10.953  16.722  0.00  0.00    +0.000 A 
ATOM      4 BR   UNL     1      -2.966  10.330  14.980  0.00  0.00    +0.000 Br
ATOM      5  C   UNL     1      -4.632  11.013  17.164  0.00  0.00    +0.000 A 
ATOM      6  C   UNL     1      -4.862  11.530  18.439  0.00  0.00    +0.000 A 
ATOM      7  C   UNL     1      -3.866  12.033  19.336  0.00  0.00    +0.000 A 
ATOM      8  N   UNL     1      -4.601  12.527  20.475  0.00  0.00    +0.000 N 
ATOM      9  C   UNL     1      -4.395  13.152  21.707  0.00  0.00    +0.000 C 
ATOM     10  O   UNL     1      -5.369  13.549  22.359  0.00  0.00    +0.000 OA
ATOM     11  C   UNL     1      -6.033  12.201  20.302  0.00  0.00    +0.000 C 
ATOM     12  C   UNL     1      -6.264  11.672  18.924  0.00  0.00    +0.000 C 
ENDROOT
BRANCH   1  13
ATOM     13  S   UNL     1      -1.045  12.712  19.485  0.00  0.00    +0.000 S 
ATOM     14  O   UNL     1      -1.362  14.065  19.891  0.00  0.00    +0.000 OA
ATOM     15  O   UNL     1       0.014  12.515  18.509  0.00  0.00    +0.000 OA
BRANCH  13  16
ATOM     16  N   UNL     1      -0.445  11.867  20.844  0.00  0.00    +0.000 N 
ATOM     17  H   UNL     1       0.213  12.522  21.275  0.00  0.00    +0.000 HD
BRANCH  16  22
ATOM     18  C   UNL     1       2.258   6.906  19.849  0.00  0.00    +0.000 C 
ATOM     19  C   UNL     1       1.508   8.183  20.105  0.00  0.00    +0.000 A 
ATOM     20  C   UNL     1       0.905   8.413  21.357  0.00  0.00    +0.000 A 
ATOM     21  C   UNL     1       0.258   9.625  21.636  0.00  0.00    +0.000 A 
ATOM     22  C   UNL     1       0.205  10.609  20.653  0.00  0.00    +0.000 A 
ATOM     23  C   UNL     1       0.771  10.370  19.409  0.00  0.00    +0.000 A 
ATOM     24  C   UNL     1       1.419   9.171  19.112  0.00  0.00    +0.000 A 
ATOM     25  C   UNL     1       2.001   9.006  17.737  0.00  0.00    +0.000 C 
ENDBRANCH  16  22
ENDBRANCH  13  16
ENDBRANCH   1  13
BRANCH   9  26
ATOM     26  C   UNL     1      -3.092  13.252  22.389  0.00  0.00    +0.000 C 
ATOM     27  C   UNL     1      -3.035  13.583  23.871  0.00  0.00    +0.000 C 
ATOM     28  C   UNL     1      -2.736  12.188  23.415  0.00  0.00    +0.000 C 
ENDBRANCH   9  26
TORSDOF 4
ENDMDL
MODEL 4
REMARK VINA RESULT:      -7.4      6.381      9.084
REMARK  Name = 
REMARK  6 active torsions:
REMARK  status: ('A' for Active; 'I' for Inactive)
REMARK    1  A    between atoms: C_1  and  C_2
REMARK    2  A    between atoms: C_5  and  N_6
REMARK    3  A    between atoms: N_6  and  S_7
REMARK    4  A    between atoms: S_7  and  C_10
REMARK    5  A    between atoms: C_18  and  C_20
REMARK    6  A    between atoms: C_26  and  C_27
REMARK                            x       y       z     vdW  Elec       q    Type
REMARK                         _______ _______ _______ _____ _____    ______ ____
ROOT
ATOM      1  C   UNL     1       3.572   6.530  18.117  0.00  0.00    +0.000 A 
ATOM      2  C   UNL     1       3.285   7.890  17.752  0.00  0.00    +0.000 A 
ATOM      3  C   UNL     1       2.360   8.685  18.421  0.00  0.00    +0.000 A 
ATOM      4 BR   UNL     1       2.115  10.494  17.942  0.00  0.00    +0.000 Br
ATOM      5  C   UNL     1       1.656   8.155  19.469  0.00  0.00    +0.000 A 
ATOM      6  C   UNL     1       1.909   6.829  19.820  0.00  0.00    +0.000 A 
ATOM      7  C   UNL     1       2.862   5.960  19.198  0.00  0.00    +0.000 A 
ATOM      8  N   UNL     1       2.812   4.739  19.963  0.00  0.00    +0.000 N 
ATOM      9  C   UNL     1       3.405   3.474  20.023  0.00  0.00    +0.000 C 
ATOM     10  O   UNL     1       3.154   2.729  20.978  0.00  0.00    +0.000 OA
ATOM     11  C   UNL     1       1.733   4.843  20.969  0.00  0.00    +0.000 C 
ATOM     12  C   UNL     1       1.210   6.243  20.998  0.00  0.00    +0.000 C 
ENDROOT
BRANCH   1  13
ATOM     13  S   UNL     1       5.026   5.941  17.258  0.00  0.00    +0.000 S 
ATOM     14  O   UNL     1       5.988   5.508  18.249  0.00  0.00    +0.000 OA
ATOM     15  O   UNL     1       5.432   6.953  16.297  0.00  0.00    +0.000 OA
BRANCH  13  16
ATOM     16  N   UNL     1       4.655   4.613  16.249  0.00  0.00    +0.000 N 
ATOM     17  H   UNL     1       4.783   3.797  16.853  0.00  0.00    +0.000 HD
BRANCH  16  22
ATOM     18  C   UNL     1       7.412   3.806  11.283  0.00  0.00    +0.000 C 
ATOM     19  C   UNL     1       6.709   3.977  12.602  0.00  0.00    +0.000 A 
ATOM     20  C   UNL     1       7.417   4.441  13.727  0.00  0.00    +0.000 A 
ATOM     21  C   UNL     1       6.765   4.670  14.947  0.00  0.00    +0.000 A 
ATOM     22  C   UNL     1       5.398   4.423  15.044  0.00  0.00    +0.000 A 
ATOM     23  C   UNL     1       4.708   3.935  13.944  0.00  0.00    +0.000 A 
ATOM     24  C   UNL     1       5.339   3.702  12.722  0.00  0.00    +0.000 A 
ATOM     25  C   UNL     1       4.506   3.173  11.588  0.00  0.00    +0.000 C 
ENDBRANCH  16  22
ENDBRANCH  13  16
ENDBRANCH   1  13
BRANCH   9  26
ATOM     26  C   UNL     1       4.210   2.874  18.944  0.00  0.00    +0.000 C 
ATOM     27  C   UNL     1       4.266   1.363  18.791  0.00  0.00    +0.000 C 
ATOM     28  C   UNL     1       3.478   2.174  17.808  0.00  0.00    +0.000 C 
ENDBRANCH   9  26
TORSDOF 4
ENDMDL
MODEL 5
REMARK VINA RESULT:      -7.3      1.332      1.535
REMARK  Name = 
REMARK  6 active torsions:
REMARK  status: ('A' for Active; 'I' for Inactive)
REMARK    1  A    between atoms: C_1  and  C_2
REMARK    2  A    between atoms: C_5  and  N_6
REMARK    3  A    between atoms: N_6  and  S_7
REMARK    4  A    between atoms: S_7  and  C_10
REMARK    5  A    between atoms: C_18  and  C_20
REMARK    6  A    between atoms: C_26  and  C_27
REMARK                            x       y       z     vdW  Elec       q    Type
REMARK                         _______ _______ _______ _____ _____    ______ ____
ROOT
ATOM      1  C   UNL     1      -2.825  11.925  19.154  0.00  0.00    +0.000 A 
ATOM      2  C   UNL     1      -2.517  11.297  17.899  0.00  0.00    +0.000 A 
ATOM      3  C   UNL     1      -3.468  11.033  16.918  0.00  0.00    +0.000 A 
ATOM      4 BR   UNL     1      -2.963  10.295  15.256  0.00  0.00    +0.000 Br
ATOM      5  C   UNL     1      -4.777  11.359  17.152  0.00  0.00    +0.000 A 
ATOM      6  C   UNL     1      -5.094  11.950  18.374  0.00  0.00    +0.000 A 
ATOM      7  C   UNL     1      -4.168  12.276  19.418  0.00  0.00    +0.000 A 
ATOM      8  N   UNL     1      -4.957  12.939  20.426  0.00  0.00    +0.000 N 
ATOM      9  C   UNL     1      -4.824  13.550  21.676  0.00  0.00    +0.000 C 
ATOM     10  O   UNL     1      -5.788  14.149  22.167  0.00  0.00    +0.000 OA
ATOM     11  C   UNL     1      -6.381  12.895  20.031  0.00  0.00    +0.000 C 
ATOM     12  C   UNL     1      -6.497  12.379  18.633  0.00  0.00    +0.000 C 
ENDROOT
BRANCH   1  13
ATOM     13  S   UNL     1      -1.326  12.393  20.008  0.00  0.00    +0.000 S 
ATOM     14  O   UNL     1      -1.342  11.773  21.317  0.00  0.00    +0.000 OA
ATOM     15  O   UNL     1      -1.184  13.837  19.930  0.00  0.00    +0.000 OA
BRANCH  13  16
ATOM     16  N   UNL     1       0.061  11.848  19.171  0.00  0.00    +0.000 N 
ATOM     17  H   UNL     1      -0.213  11.881  18.186  0.00  0.00    +0.000 HD
BRANCH  16  22
ATOM     18  C   UNL     1       2.329   6.667  20.132  0.00  0.00    +0.000 C 
ATOM     19  C   UNL     1       1.691   8.004  19.874  0.00  0.00    +0.000 A 
ATOM     20  C   UNL     1       0.923   8.628  20.876  0.00  0.00    +0.000 A 
ATOM     21  C   UNL     1       0.377   9.904  20.678  0.00  0.00    +0.000 A 
ATOM     22  C   UNL     1       0.591  10.554  19.466  0.00  0.00    +0.000 A 
ATOM     23  C   UNL     1       1.321   9.926  18.467  0.00  0.00    +0.000 A 
ATOM     24  C   UNL     1       1.873   8.657  18.645  0.00  0.00    +0.000 A 
ATOM     25  C   UNL     1       2.648   8.060  17.505  0.00  0.00    +0.000 C 
ENDBRANCH  16  22
ENDBRANCH  13  16
ENDBRANCH   1  13
BRANCH   9  26
ATOM     26  C   UNL     1      -3.648  13.414  22.555  0.00  0.00    +0.000 C 
ATOM     27  C   UNL     1      -3.669  14.017  23.948  0.00  0.00    +0.000 C 
ATOM     28  C   UNL     1      -3.771  12.531  23.787  0.00  0.00    +0.000 C 
ENDBRANCH   9  26
TORSDOF 4
ENDMDL
MODEL 6
REMARK VINA RESULT:      -7.2      3.600      5.329
REMARK  Name = 
REMARK  6 active torsions:
REMARK  status: ('A' for Active; 'I' for Inactive)
REMARK    1  A    between atoms: C_1  and  C_2
REMARK    2  A    between atoms: C_5  and  N_6
REMARK    3  A    between atoms: N_6  and  S_7
REMARK    4  A    between atoms: S_7  and  C_10
REMARK    5  A    between atoms: C_18  and  C_20
REMARK    6  A    between atoms: C_26  and  C_27
REMARK                            x       y       z     vdW  Elec       q    Type
REMARK                         _______ _______ _______ _____ _____    ______ ____
ROOT
ATOM      1  C   UNL     1      -0.441  11.352  19.719  0.00  0.00    +0.000 A 
ATOM      2  C   UNL     1       0.432  10.645  18.821  0.00  0.00    +0.000 A 
ATOM      3  C   UNL     1       1.136   9.500  19.179  0.00  0.00    +0.000 A 
ATOM      4 BR   UNL     1       2.183   8.574  17.911  0.00  0.00    +0.000 Br
ATOM      5  C   UNL     1       1.024   9.017  20.455  0.00  0.00    +0.000 A 
ATOM      6  C   UNL     1       0.197   9.705  21.342  0.00  0.00    +0.000 A 
ATOM      7  C   UNL     1      -0.577  10.872  21.040  0.00  0.00    +0.000 A 
ATOM      8  N   UNL     1      -1.321  11.152  22.244  0.00  0.00    +0.000 N 
ATOM      9  C   UNL     1      -2.263  12.052  22.749  0.00  0.00    +0.000 C 
ATOM     10  O   UNL     1      -2.771  11.843  23.858  0.00  0.00    +0.000 OA
ATOM     11  C   UNL     1      -0.890  10.217  23.305  0.00  0.00    +0.000 C 
ATOM     12  C   UNL     1      -0.000   9.169  22.719  0.00  0.00    +0.000 C 
ENDROOT
BRANCH   1  13
ATOM     13  S   UNL     1      -1.411  12.562  18.828  0.00  0.00    +0.000 S 
ATOM     14  O   UNL     1      -2.797  12.400  19.216  0.00  0.00    +0.000 OA
ATOM     15  O   UNL     1      -1.074  12.473  17.418  0.00  0.00    +0.000 OA
BRANCH  13  16
ATOM     16  N   UNL     1      -0.925  14.153  19.216  0.00  0.00    +0.000 N 
ATOM     17  H   UNL     1      -1.131  14.691  18.370  0.00  0.00    +0.000 HD
BRANCH  16  22
ATOM     18  C   UNL     1       4.559  15.207  20.533  0.00  0.00    +0.000 C 
ATOM     19  C   UNL     1       3.130  14.884  20.193  0.00  0.00    +0.000 A 
ATOM     20  C   UNL     1       2.222  14.533  21.210  0.00  0.00    +0.000 A 
ATOM     21  C   UNL     1       0.871  14.293  20.921  0.00  0.00    +0.000 A 
ATOM     22  C   UNL     1       0.429  14.395  19.605  0.00  0.00    +0.000 A 
ATOM     23  C   UNL     1       1.331  14.710  18.599  0.00  0.00    +0.000 A 
ATOM     24  C   UNL     1       2.678  14.953  18.866  0.00  0.00    +0.000 A 
ATOM     25  C   UNL     1       3.577  15.287  17.710  0.00  0.00    +0.000 C 
ENDBRANCH  16  22
ENDBRANCH  13  16
ENDBRANCH   1  13
BRANCH   9  26
ATOM     26  C   UNL     1      -2.607  13.343  22.127  0.00  0.00    +0.000 C 
ATOM     27  C   UNL     1      -3.576  14.285  22.821  0.00  0.00    +0.000 C 
ATOM     28  C   UNL     1      -2.115  14.616  22.798  0.00  0.00    +0.000 C 
ENDBRANCH   9  26
TORSDOF 4
ENDMDL
MODEL 7
REMARK VINA RESULT:      -7.2      2.476      3.660
REMARK  Name = 
REMARK  6 active torsions:
REMARK  status: ('A' for Active; 'I' for Inactive)
REMARK    1  A    between atoms: C_1  and  C_2
REMARK    2  A    between atoms: C_5  and  N_6
REMARK    3  A    between atoms: N_6  and  S_7
REMARK    4  A    between atoms: S_7  and  C_10
REMARK    5  A    between atoms: C_18  and  C_20
REMARK    6  A    between atoms: C_26  and  C_27
REMARK                            x       y       z     vdW  Elec       q    Type
REMARK                         _______ _______ _______ _____ _____    ______ ____
ROOT
ATOM      1  C   UNL     1      -3.955  12.479  19.574  0.00  0.00    +0.000 A 
ATOM      2  C   UNL     1      -3.212  11.797  18.550  0.00  0.00    +0.000 A 
ATOM      3  C   UNL     1      -3.773  11.368  17.351  0.00  0.00    +0.000 A 
ATOM      4 BR   UNL     1      -2.706  10.568  16.016  0.00  0.00    +0.000 Br
ATOM      5  C   UNL     1      -5.107  11.577  17.125  0.00  0.00    +0.000 A 
ATOM      6  C   UNL     1      -5.844  12.219  18.120  0.00  0.00    +0.000 A 
ATOM      7  C   UNL     1      -5.333  12.710  19.363  0.00  0.00    +0.000 A 
ATOM      8  N   UNL     1      -6.451  13.361  19.999  0.00  0.00    +0.000 N 
ATOM      9  C   UNL     1      -6.774  14.071  21.160  0.00  0.00    +0.000 C 
ATOM     10  O   UNL     1      -7.886  14.603  21.258  0.00  0.00    +0.000 OA
ATOM     11  C   UNL     1      -7.664  13.146  19.181  0.00  0.00    +0.000 C 
ATOM     12  C   UNL     1      -7.284  12.521  17.877  0.00  0.00    +0.000 C 
ENDROOT
BRANCH   1  13
ATOM     13  S   UNL     1      -2.850  13.157  20.806  0.00  0.00    +0.000 S 
ATOM     14  O   UNL     1      -3.044  12.419  22.037  0.00  0.00    +0.000 OA
ATOM     15  O   UNL     1      -3.020  14.599  20.833  0.00  0.00    +0.000 OA
BRANCH  13  16
ATOM     16  N   UNL     1      -1.217  12.994  20.332  0.00  0.00    +0.000 N 
ATOM     17  H   UNL     1      -1.213  13.272  19.347  0.00  0.00    +0.000 HD
BRANCH  16  22
ATOM     18  C   UNL     1       1.273   7.883  21.097  0.00  0.00    +0.000 C 
ATOM     19  C   UNL     1       0.664   9.242  20.893  0.00  0.00    +0.000 A 
ATOM     20  C   UNL     1       0.632   9.819  19.610  0.00  0.00    +0.000 A 
ATOM     21  C   UNL     1       0.009  11.056  19.388  0.00  0.00    +0.000 A 
ATOM     22  C   UNL     1      -0.575  11.724  20.461  0.00  0.00    +0.000 A 
ATOM     23  C   UNL     1      -0.514  11.171  21.732  0.00  0.00    +0.000 A 
ATOM     24  C   UNL     1       0.100   9.941  21.972  0.00  0.00    +0.000 A 
ATOM     25  C   UNL     1       0.114   9.424  23.382  0.00  0.00    +0.000 C 
ENDBRANCH  16  22
ENDBRANCH  13  16
ENDBRANCH   1  13
BRANCH   9  26
ATOM     26  C   UNL     1      -5.938  14.118  22.373  0.00  0.00    +0.000 C 
ATOM     27  C   UNL     1      -6.555  14.518  23.702  0.00  0.00    +0.000 C 
ATOM     28  C   UNL     1      -6.193  13.084  23.460  0.00  0.00    +0.000 C 
ENDBRANCH   9  26
TORSDOF 4
ENDMDL
MODEL 8
REMARK VINA RESULT:      -7.2      2.531      4.216
REMARK  Name = 
REMARK  6 active torsions:
REMARK  status: ('A' for Active; 'I' for Inactive)
REMARK    1  A    between atoms: C_1  and  C_2
REMARK    2  A    between atoms: C_5  and  N_6
REMARK    3  A    between atoms: N_6  and  S_7
REMARK    4  A    between atoms: S_7  and  C_10
REMARK    5  A    between atoms: C_18  and  C_20
REMARK    6  A    between atoms: C_26  and  C_27
REMARK                            x       y       z     vdW  Elec       q    Type
REMARK                         _______ _______ _______ _____ _____    ______ ____
ROOT
ATOM      1  C   UNL     1      -1.875  12.341  20.086  0.00  0.00    +0.000 A 
ATOM      2  C   UNL     1      -1.372  12.911  21.306  0.00  0.00    +0.000 A 
ATOM      3  C   UNL     1      -2.172  13.579  22.228  0.00  0.00    +0.000 A 
ATOM      4 BR   UNL     1      -1.452  14.211  23.853  0.00  0.00    +0.000 Br
ATOM      5  C   UNL     1      -3.507  13.735  21.965  0.00  0.00    +0.000 A 
ATOM      6  C   UNL     1      -4.004  13.205  20.775  0.00  0.00    +0.000 A 
ATOM      7  C   UNL     1      -3.250  12.484  19.794  0.00  0.00    +0.000 A 
ATOM      8  N   UNL     1      -4.215  12.076  18.804  0.00  0.00    +0.000 N 
ATOM      9  C   UNL     1      -4.300  11.362  17.605  0.00  0.00    +0.000 C 
ATOM     10  O   UNL     1      -5.411  11.118  17.119  0.00  0.00    +0.000 OA
ATOM     11  C   UNL     1      -5.529  12.666  19.138  0.00  0.00    +0.000 C 
ATOM     12  C   UNL     1      -5.464  13.298  20.491  0.00  0.00    +0.000 C 
ENDROOT
BRANCH   1  13
ATOM     13  S   UNL     1      -0.641  11.293  19.326  0.00  0.00    +0.000 S 
ATOM     14  O   UNL     1       0.075  12.081  18.345  0.00  0.00    +0.000 OA
ATOM     15  O   UNL     1      -1.286  10.067  18.889  0.00  0.00    +0.000 OA
BRANCH  13  16
ATOM     16  N   UNL     1       0.482  10.720  20.480  0.00  0.00    +0.000 N 
ATOM     17  H   UNL     1       1.241  11.405  20.453  0.00  0.00    +0.000 HD
BRANCH  16  22
ATOM     18  C   UNL     1       2.811   5.541  19.666  0.00  0.00    +0.000 C 
ATOM     19  C   UNL     1       2.158   6.880  19.868  0.00  0.00    +0.000 A 
ATOM     20  C   UNL     1       1.420   7.139  21.040  0.00  0.00    +0.000 A 
ATOM     21  C   UNL     1       0.860   8.402  21.276  0.00  0.00    +0.000 A 
ATOM     22  C   UNL     1       1.029   9.409  20.330  0.00  0.00    +0.000 A 
ATOM     23  C   UNL     1       1.728   9.144  19.161  0.00  0.00    +0.000 A 
ATOM     24  C   UNL     1       2.294   7.894  18.908  0.00  0.00    +0.000 A 
ATOM     25  C   UNL     1       3.033   7.704  17.614  0.00  0.00    +0.000 C 
ENDBRANCH  16  22
ENDBRANCH  13  16
ENDBRANCH   1  13
BRANCH   9  26
ATOM     26  C   UNL     1      -3.146  10.990  16.767  0.00  0.00    +0.000 C 
ATOM     27  C   UNL     1      -3.167   9.691  15.980  0.00  0.00    +0.000 C 
ATOM     28  C   UNL     1      -3.326  10.994  15.256  0.00  0.00    +0.000 C 
ENDBRANCH   9  26
TORSDOF 4
ENDMDL
MODEL 9
REMARK VINA RESULT:      -7.2      3.855      5.867
REMARK  Name = 
REMARK  6 active torsions:
REMARK  status: ('A' for Active; 'I' for Inactive)
REMARK    1  A    between atoms: C_1  and  C_2
REMARK    2  A    between atoms: C_5  and  N_6
REMARK    3  A    between atoms: N_6  and  S_7
REMARK    4  A    between atoms: S_7  and  C_10
REMARK    5  A    between atoms: C_18  and  C_20
REMARK    6  A    between atoms: C_26  and  C_27
REMARK                            x       y       z     vdW  Elec       q    Type
REMARK                         _______ _______ _______ _____ _____    ______ ____
ROOT
ATOM      1  C   UNL     1      -0.502  11.315  19.708  0.00  0.00    +0.000 A 
ATOM      2  C   UNL     1       0.377  10.605  18.819  0.00  0.00    +0.000 A 
ATOM      3  C   UNL     1       1.107   9.483  19.198  0.00  0.00    +0.000 A 
ATOM      4 BR   UNL     1       2.162   8.548  17.943  0.00  0.00    +0.000 Br
ATOM      5  C   UNL     1       1.017   9.030  20.487  0.00  0.00    +0.000 A 
ATOM      6  C   UNL     1       0.185   9.723  21.365  0.00  0.00    +0.000 A 
ATOM      7  C   UNL     1      -0.616  10.866  21.042  0.00  0.00    +0.000 A 
ATOM      8  N   UNL     1      -1.354  11.160  22.246  0.00  0.00    +0.000 N 
ATOM      9  C   UNL     1      -2.310  12.053  22.738  0.00  0.00    +0.000 C 
ATOM     10  O   UNL     1      -2.802  11.861  23.856  0.00  0.00    +0.000 OA
ATOM     11  C   UNL     1      -0.894  10.260  23.326  0.00  0.00    +0.000 C 
ATOM     12  C   UNL     1       0.012   9.217  22.756  0.00  0.00    +0.000 C 
ENDROOT
BRANCH   1  13
ATOM     13  S   UNL     1      -1.505  12.483  18.798  0.00  0.00    +0.000 S 
ATOM     14  O   UNL     1      -2.894  12.112  18.970  0.00  0.00    +0.000 OA
ATOM     15  O   UNL     1      -0.981  12.585  17.447  0.00  0.00    +0.000 OA
BRANCH  13  16
ATOM     16  N   UNL     1      -1.295  14.073  19.387  0.00  0.00    +0.000 N 
ATOM     17  H   UNL     1      -1.989  14.624  18.876  0.00  0.00    +0.000 HD
BRANCH  16  22
ATOM     18  C   UNL     1       3.715  16.805  18.796  0.00  0.00    +0.000 C 
ATOM     19  C   UNL     1       2.415  16.058  18.917  0.00  0.00    +0.000 A 
ATOM     20  C   UNL     1       2.368  14.821  19.587  0.00  0.00    +0.000 A 
ATOM     21  C   UNL     1       1.154  14.142  19.767  0.00  0.00    +0.000 A 
ATOM     22  C   UNL     1      -0.017  14.701  19.264  0.00  0.00    +0.000 A 
ATOM     23  C   UNL     1       0.034  15.904  18.576  0.00  0.00    +0.000 A 
ATOM     24  C   UNL     1       1.232  16.595  18.387  0.00  0.00    +0.000 A 
ATOM     25  C   UNL     1       1.185  17.891  17.629  0.00  0.00    +0.000 C 
ENDBRANCH  16  22
ENDBRANCH  13  16
ENDBRANCH   1  13
BRANCH   9  26
ATOM     26  C   UNL     1      -2.686  13.321  22.088  0.00  0.00    +0.000 C 
ATOM     27  C   UNL     1      -3.607  14.295  22.802  0.00  0.00    +0.000 C 
ATOM     28  C   UNL     1      -2.149  14.616  22.677  0.00  0.00    +0.000 C 
ENDBRANCH   9  26
TORSDOF 4
ENDMDL
