MODEL 1
REMARK VINA RESULT:      -7.8      0.000      0.000
REMARK  Name = 
REMARK  5 active torsions:
REMARK  status: ('A' for Active; 'I' for Inactive)
REMARK    1  A    between atoms: C_1  and  N_2
REMARK    2  A    between atoms: C_6  and  C_8
REMARK    3  A    between atoms: C_11  and  S_12
REMARK    4  A    between atoms: S_12  and  N_15
REMARK    5  A    between atoms: N_15  and  C_16
REMARK                            x       y       z     vdW  Elec       q    Type
REMARK                         _______ _______ _______ _____ _____    ______ ____
ROOT
ATOM      1  C   UNL     1       2.331   7.010  18.867  0.00  0.00    +0.000 A 
ATOM      2  C   UNL     1       2.166   7.903  17.799  0.00  0.00    +0.000 A 
ATOM      3  C   UNL     1       1.715   9.202  18.030  0.00  0.00    +0.000 A 
ATOM      4  C   UNL     1       1.317   9.581  19.312  0.00  0.00    +0.000 A 
ATOM      5  C   UNL     1       1.413   8.678  20.382  0.00  0.00    +0.000 A 
ATOM      6  C   UNL     1       1.923   7.391  20.153  0.00  0.00    +0.000 A 
ENDROOT
BRANCH   1  12
ATOM      7  C   UNL     1       6.707   4.902  14.631  0.00  0.00    +0.000 C 
ATOM      8  N   UNL     1       6.162   4.997  15.981  0.00  0.00    +0.000 NA
ATOM      9  C   UNL     1       5.117   3.974  16.212  0.00  0.00    +0.000 C 
ATOM     10  C   UNL     1       4.467   4.078  17.613  0.00  0.00    +0.000 C 
ATOM     11  N   UNL     1       4.027   5.445  17.907  0.00  0.00    +0.000 N 
ATOM     12  C   UNL     1       2.860   5.631  18.650  0.00  0.00    +0.000 C 
ATOM     13  O   UNL     1       2.206   4.698  19.117  0.00  0.00    +0.000 OA
ATOM     14  C   UNL     1       5.083   6.441  17.680  0.00  0.00    +0.000 C 
ATOM     15  C   UNL     1       5.607   6.342  16.235  0.00  0.00    +0.000 C 
ENDBRANCH   1  12
BRANCH   4  16
ATOM     16  S   UNL     1       0.713  11.235  19.577  0.00  0.00    +0.000 S 
ATOM     17  O   UNL     1      -0.274  11.172  20.637  0.00  0.00    +0.000 OA
ATOM     18  O   UNL     1       1.863  12.107  19.675  0.00  0.00    +0.000 OA
BRANCH  16  19
ATOM     19  N   UNL     1      -0.138  11.587  18.164  0.00  0.00    +0.000 N 
ATOM     20  H   UNL     1       0.143  12.469  17.741  0.00  0.00    +0.000 HD
BRANCH  19  21
ATOM     21  C   UNL     1      -1.497  11.192  18.050  0.00  0.00    +0.000 A 
ATOM     22  C   UNL     1      -1.825  10.019  17.369  0.00  0.00    +0.000 A 
ATOM     23  C   UNL     1      -3.165   9.662  17.205  0.00  0.00    +0.000 A 
ATOM     24  C   UNL     1      -4.172  10.465  17.740  0.00  0.00    +0.000 A 
ATOM     25  C   UNL     1      -3.840  11.633  18.428  0.00  0.00    +0.000 A 
ATOM     26  C   UNL     1      -2.503  12.006  18.569  0.00  0.00    +0.000 A 
ENDBRANCH  19  21
ENDBRANCH  16  19
ENDBRANCH   4  16
TORSDOF 4
ENDMDL
MODEL 2
REMARK VINA RESULT:      -7.7      0.165      1.378
REMARK  Name = 
REMARK  5 active torsions:
REMARK  status: ('A' for Active; 'I' for Inactive)
REMARK    1  A    between atoms: C_1  and  N_2
REMARK    2  A    between atoms: C_6  and  C_8
REMARK    3  A    between atoms: C_11  and  S_12
REMARK    4  A    between atoms: S_12  and  N_15
REMARK    5  A    between atoms: N_15  and  C_16
REMARK                            x       y       z     vdW  Elec       q    Type
REMARK                         _______ _______ _______ _____ _____    ______ ____
ROOT
ATOM      1  C   UNL     1       2.273   6.934  19.053  0.00  0.00    +0.000 A 
ATOM      2  C   UNL     1       1.840   7.338  20.323  0.00  0.00    +0.000 A 
ATOM      3  C   UNL     1       1.291   8.605  20.510  0.00  0.00    +0.000 A 
ATOM      4  C   UNL     1       1.275   9.517  19.456  0.00  0.00    +0.000 A 
ATOM      5  C   UNL     1       1.765   9.152  18.192  0.00  0.00    +0.000 A 
ATOM      6  C   UNL     1       2.263   7.856  17.997  0.00  0.00    +0.000 A 
ENDROOT
BRANCH   1  12
ATOM      7  C   UNL     1       6.593   4.916  14.715  0.00  0.00    +0.000 C 
ATOM      8  N   UNL     1       6.074   4.995  16.077  0.00  0.00    +0.000 NA
ATOM      9  C   UNL     1       5.049   3.955  16.324  0.00  0.00    +0.000 C 
ATOM     10  C   UNL     1       4.428   4.041  17.738  0.00  0.00    +0.000 C 
ATOM     11  N   UNL     1       3.973   5.400  18.049  0.00  0.00    +0.000 N 
ATOM     12  C   UNL     1       2.819   5.565  18.818  0.00  0.00    +0.000 C 
ATOM     13  O   UNL     1       2.189   4.619  19.293  0.00  0.00    +0.000 OA
ATOM     14  C   UNL     1       5.009   6.414  17.806  0.00  0.00    +0.000 C 
ATOM     15  C   UNL     1       5.504   6.330  16.350  0.00  0.00    +0.000 C 
ENDBRANCH   1  12
BRANCH   4  16
ATOM     16  S   UNL     1       0.598  11.142  19.727  0.00  0.00    +0.000 S 
ATOM     17  O   UNL     1      -0.472  11.011  20.695  0.00  0.00    +0.000 OA
ATOM     18  O   UNL     1       1.709  12.042  19.955  0.00  0.00    +0.000 OA
BRANCH  16  19
ATOM     19  N   UNL     1      -0.141  11.524  18.260  0.00  0.00    +0.000 N 
ATOM     20  H   UNL     1       0.201  12.394  17.857  0.00  0.00    +0.000 HD
BRANCH  19  21
ATOM     21  C   UNL     1      -1.502  11.181  18.053  0.00  0.00    +0.000 A 
ATOM     22  C   UNL     1      -2.511  11.992  18.574  0.00  0.00    +0.000 A 
ATOM     23  C   UNL     1      -3.849  11.623  18.421  0.00  0.00    +0.000 A 
ATOM     24  C   UNL     1      -4.177  10.458  17.729  0.00  0.00    +0.000 A 
ATOM     25  C   UNL     1      -3.166   9.653  17.200  0.00  0.00    +0.000 A 
ATOM     26  C   UNL     1      -1.828  10.006  17.376  0.00  0.00    +0.000 A 
ENDBRANCH  19  21
ENDBRANCH  16  19
ENDBRANCH   4  16
TORSDOF 4
ENDMDL
MODEL 3
REMARK VINA RESULT:      -7.6      0.907      1.325
REMARK  Name = 
REMARK  5 active torsions:
REMARK  status: ('A' for Active; 'I' for Inactive)
REMARK    1  A    between atoms: C_1  and  N_2
REMARK    2  A    between atoms: C_6  and  C_8
REMARK    3  A    between atoms: C_11  and  S_12
REMARK    4  A    between atoms: S_12  and  N_15
REMARK    5  A    between atoms: N_15  and  C_16
REMARK                            x       y       z     vdW  Elec       q    Type
REMARK                         _______ _______ _______ _____ _____    ______ ____
ROOT
ATOM      1  C   UNL     1       2.529   7.116  19.190  0.00  0.00    +0.000 A 
ATOM      2  C   UNL     1       2.362   7.937  18.066  0.00  0.00    +0.000 A 
ATOM      3  C   UNL     1       1.698   9.158  18.179  0.00  0.00    +0.000 A 
ATOM      4  C   UNL     1       1.100   9.515  19.386  0.00  0.00    +0.000 A 
ATOM      5  C   UNL     1       1.201   8.674  20.506  0.00  0.00    +0.000 A 
ATOM      6  C   UNL     1       1.920   7.474  20.401  0.00  0.00    +0.000 A 
ENDROOT
BRANCH   1  12
ATOM      7  C   UNL     1       6.164   4.780  14.408  0.00  0.00    +0.000 C 
ATOM      8  N   UNL     1       5.936   5.108  15.812  0.00  0.00    +0.000 NA
ATOM      9  C   UNL     1       5.218   4.017  16.509  0.00  0.00    +0.000 C 
ATOM     10  C   UNL     1       4.901   4.348  17.987  0.00  0.00    +0.000 C 
ATOM     11  N   UNL     1       4.256   5.657  18.123  0.00  0.00    +0.000 N 
ATOM     12  C   UNL     1       3.279   5.828  19.106  0.00  0.00    +0.000 C 
ATOM     13  O   UNL     1       2.967   4.942  19.902  0.00  0.00    +0.000 OA
ATOM     14  C   UNL     1       4.991   6.726  17.432  0.00  0.00    +0.000 C 
ATOM     15  C   UNL     1       5.178   6.368  15.945  0.00  0.00    +0.000 C 
ENDBRANCH   1  12
BRANCH   4  16
ATOM     16  S   UNL     1       0.229  11.064  19.497  0.00  0.00    +0.000 S 
ATOM     17  O   UNL     1       0.485  11.613  20.813  0.00  0.00    +0.000 OA
ATOM     18  O   UNL     1       0.532  11.819  18.299  0.00  0.00    +0.000 OA
BRANCH  16  19
ATOM     19  N   UNL     1      -1.397  10.618  19.482  0.00  0.00    +0.000 N 
ATOM     20  H   UNL     1      -1.608   9.863  20.133  0.00  0.00    +0.000 HD
BRANCH  19  21
ATOM     21  C   UNL     1      -2.127  10.676  18.267  0.00  0.00    +0.000 A 
ATOM     22  C   UNL     1      -3.245  11.507  18.166  0.00  0.00    +0.000 A 
ATOM     23  C   UNL     1      -3.998  11.520  16.991  0.00  0.00    +0.000 A 
ATOM     24  C   UNL     1      -3.621  10.721  15.912  0.00  0.00    +0.000 A 
ATOM     25  C   UNL     1      -2.498   9.898  16.012  0.00  0.00    +0.000 A 
ATOM     26  C   UNL     1      -1.760   9.864  17.195  0.00  0.00    +0.000 A 
ENDBRANCH  19  21
ENDBRANCH  16  19
ENDBRANCH   4  16
TORSDOF 4
ENDMDL
MODEL 4
REMARK VINA RESULT:      -7.6      0.840      1.288
REMARK  Name = 
REMARK  5 active torsions:
REMARK  status: ('A' for Active; 'I' for Inactive)
REMARK    1  A    between atoms: C_1  and  N_2
REMARK    2  A    between atoms: C_6  and  C_8
REMARK    3  A    between atoms: C_11  and  S_12
REMARK    4  A    between atoms: S_12  and  N_15
REMARK    5  A    between atoms: N_15  and  C_16
REMARK                            x       y       z     vdW  Elec       q    Type
REMARK                         _______ _______ _______ _____ _____    ______ ____
ROOT
ATOM      1  C   UNL     1       2.491   6.792  18.963  0.00  0.00    +0.000 A 
ATOM      2  C   UNL     1       2.085   7.227  20.232  0.00  0.00    +0.000 A 
ATOM      3  C   UNL     1       1.433   8.450  20.382  0.00  0.00    +0.000 A 
ATOM      4  C   UNL     1       1.283   9.296  19.284  0.00  0.00    +0.000 A 
ATOM      5  C   UNL     1       1.742   8.904  18.016  0.00  0.00    +0.000 A 
ATOM      6  C   UNL     1       2.346   7.647  17.862  0.00  0.00    +0.000 A 
ENDROOT
BRANCH   1  12
ATOM      7  C   UNL     1       6.714   4.900  14.477  0.00  0.00    +0.000 C 
ATOM      8  N   UNL     1       6.272   5.018  15.863  0.00  0.00    +0.000 NA
ATOM      9  C   UNL     1       5.365   3.908  16.233  0.00  0.00    +0.000 C 
ATOM     10  C   UNL     1       4.823   4.026  17.678  0.00  0.00    +0.000 C 
ATOM     11  N   UNL     1       4.263   5.355  17.940  0.00  0.00    +0.000 N 
ATOM     12  C   UNL     1       3.146   5.464  18.771  0.00  0.00    +0.000 C 
ATOM     13  O   UNL     1       2.636   4.497  19.338  0.00  0.00    +0.000 OA
ATOM     14  C   UNL     1       5.184   6.440  17.573  0.00  0.00    +0.000 C 
ATOM     15  C   UNL     1       5.598   6.311  16.096  0.00  0.00    +0.000 C 
ENDBRANCH   1  12
BRANCH   4  16
ATOM     16  S   UNL     1       0.476  10.868  19.505  0.00  0.00    +0.000 S 
ATOM     17  O   UNL     1       0.850  11.367  20.813  0.00  0.00    +0.000 OA
ATOM     18  O   UNL     1       0.710  11.649  18.309  0.00  0.00    +0.000 OA
BRANCH  16  19
ATOM     19  N   UNL     1      -1.161  10.473  19.605  0.00  0.00    +0.000 N 
ATOM     20  H   UNL     1      -1.346   9.706  20.249  0.00  0.00    +0.000 HD
BRANCH  19  21
ATOM     21  C   UNL     1      -1.980  10.591  18.452  0.00  0.00    +0.000 A 
ATOM     22  C   UNL     1      -1.688   9.840  17.312  0.00  0.00    +0.000 A 
ATOM     23  C   UNL     1      -2.458  10.000  16.159  0.00  0.00    +0.000 A 
ATOM     24  C   UNL     1      -3.530  10.891  16.153  0.00  0.00    +0.000 A 
ATOM     25  C   UNL     1      -3.826  11.634  17.297  0.00  0.00    +0.000 A 
ATOM     26  C   UNL     1      -3.040  11.495  18.442  0.00  0.00    +0.000 A 
ENDBRANCH  19  21
ENDBRANCH  16  19
ENDBRANCH   4  16
TORSDOF 4
ENDMDL
MODEL 5
REMARK VINA RESULT:      -7.6      3.180      8.558
REMARK  Name = 
REMARK  5 active torsions:
REMARK  status: ('A' for Active; 'I' for Inactive)
REMARK    1  A    between atoms: C_1  and  N_2
REMARK    2  A    between atoms: C_6  and  C_8
REMARK    3  A    between atoms: C_11  and  S_12
REMARK    4  A    between atoms: S_12  and  N_15
REMARK    5  A    between atoms: N_15  and  C_16
REMARK                            x       y       z     vdW  Elec       q    Type
REMARK                         _______ _______ _______ _____ _____    ______ ____
ROOT
ATOM      1  C   UNL     1       2.222   7.583  18.914  0.00  0.00    +0.000 A 
ATOM      2  C   UNL     1       2.042   6.769  20.041  0.00  0.00    +0.000 A 
ATOM      3  C   UNL     1       2.569   5.479  20.069  0.00  0.00    +0.000 A 
ATOM      4  C   UNL     1       3.179   4.953  18.931  0.00  0.00    +0.000 A 
ATOM      5  C   UNL     1       3.310   5.732  17.770  0.00  0.00    +0.000 A 
ATOM      6  C   UNL     1       2.829   7.049  17.769  0.00  0.00    +0.000 A 
ENDROOT
BRANCH   1  12
ATOM      7  C   UNL     1      -1.310  10.779  23.256  0.00  0.00    +0.000 C 
ATOM      8  N   UNL     1      -0.167  10.666  22.355  0.00  0.00    +0.000 NA
ATOM      9  C   UNL     1      -0.525  11.079  20.979  0.00  0.00    +0.000 C 
ATOM     10  C   UNL     1       0.642  10.917  19.976  0.00  0.00    +0.000 C 
ATOM     11  N   UNL     1       1.242   9.582  20.052  0.00  0.00    +0.000 N 
ATOM     12  C   UNL     1       1.710   8.985  18.880  0.00  0.00    +0.000 C 
ATOM     13  O   UNL     1       1.690   9.550  17.786  0.00  0.00    +0.000 OA
ATOM     14  C   UNL     1       1.598   9.198  21.426  0.00  0.00    +0.000 C 
ATOM     15  C   UNL     1       0.362   9.288  22.340  0.00  0.00    +0.000 C 
ENDBRANCH   1  12
BRANCH   4  16
ATOM     16  S   UNL     1       3.815   3.290  18.979  0.00  0.00    +0.000 S 
ATOM     17  O   UNL     1       3.314   2.668  20.188  0.00  0.00    +0.000 OA
ATOM     18  O   UNL     1       3.581   2.698  17.679  0.00  0.00    +0.000 OA
BRANCH  16  19
ATOM     19  N   UNL     1       5.473   3.497  19.211  0.00  0.00    +0.000 N 
ATOM     20  H   UNL     1       5.762   3.341  20.175  0.00  0.00    +0.000 HD
BRANCH  19  21
ATOM     21  C   UNL     1       6.168   4.476  18.454  0.00  0.00    +0.000 A 
ATOM     22  C   UNL     1       6.735   5.578  19.097  0.00  0.00    +0.000 A 
ATOM     23  C   UNL     1       7.367   6.571  18.346  0.00  0.00    +0.000 A 
ATOM     24  C   UNL     1       7.452   6.450  16.960  0.00  0.00    +0.000 A 
ATOM     25  C   UNL     1       6.892   5.343  16.320  0.00  0.00    +0.000 A 
ATOM     26  C   UNL     1       6.236   4.363  17.067  0.00  0.00    +0.000 A 
ENDBRANCH  19  21
ENDBRANCH  16  19
ENDBRANCH   4  16
TORSDOF 4
ENDMDL
MODEL 6
REMARK VINA RESULT:      -7.6      3.238      8.109
REMARK  Name = 
REMARK  5 active torsions:
REMARK  status: ('A' for Active; 'I' for Inactive)
REMARK    1  A    between atoms: C_1  and  N_2
REMARK    2  A    between atoms: C_6  and  C_8
REMARK    3  A    between atoms: C_11  and  S_12
REMARK    4  A    between atoms: S_12  and  N_15
REMARK    5  A    between atoms: N_15  and  C_16
REMARK                            x       y       z     vdW  Elec       q    Type
REMARK                         _______ _______ _______ _____ _____    ______ ____
ROOT
ATOM      1  C   UNL     1       1.830   7.153  20.172  0.00  0.00    +0.000 A 
ATOM      2  C   UNL     1       2.594   7.204  18.998  0.00  0.00    +0.000 A 
ATOM      3  C   UNL     1       3.097   6.033  18.435  0.00  0.00    +0.000 A 
ATOM      4  C   UNL     1       2.937   4.818  19.099  0.00  0.00    +0.000 A 
ATOM      5  C   UNL     1       2.230   4.757  20.310  0.00  0.00    +0.000 A 
ATOM      6  C   UNL     1       1.676   5.932  20.842  0.00  0.00    +0.000 A 
ENDROOT
BRANCH   1  12
ATOM      7  C   UNL     1       2.151  13.260  18.134  0.00  0.00    +0.000 C 
ATOM      8  N   UNL     1       1.408  12.097  18.612  0.00  0.00    +0.000 NA
ATOM      9  C   UNL     1       1.401  12.036  20.091  0.00  0.00    +0.000 C 
ATOM     10  C   UNL     1       0.675  10.784  20.641  0.00  0.00    +0.000 C 
ATOM     11  N   UNL     1       1.155   9.555  20.003  0.00  0.00    +0.000 N 
ATOM     12  C   UNL     1       1.238   8.388  20.766  0.00  0.00    +0.000 C 
ATOM     13  O   UNL     1       0.877   8.329  21.943  0.00  0.00    +0.000 OA
ATOM     14  C   UNL     1       1.145   9.636  18.536  0.00  0.00    +0.000 C 
ATOM     15  C   UNL     1       1.971  10.847  18.064  0.00  0.00    +0.000 C 
ENDBRANCH   1  12
BRANCH   4  16
ATOM     16  S   UNL     1       3.617   3.339  18.377  0.00  0.00    +0.000 S 
ATOM     17  O   UNL     1       3.089   2.211  19.117  0.00  0.00    +0.000 OA
ATOM     18  O   UNL     1       3.448   3.439  16.942  0.00  0.00    +0.000 OA
BRANCH  16  19
ATOM     19  N   UNL     1       5.258   3.421  18.755  0.00  0.00    +0.000 N 
ATOM     20  H   UNL     1       5.467   3.087  19.694  0.00  0.00    +0.000 HD
BRANCH  19  21
ATOM     21  C   UNL     1       6.045   4.480  18.231  0.00  0.00    +0.000 A 
ATOM     22  C   UNL     1       6.679   5.370  19.099  0.00  0.00    +0.000 A 
ATOM     23  C   UNL     1       7.404   6.446  18.583  0.00  0.00    +0.000 A 
ATOM     24  C   UNL     1       7.512   6.618  17.204  0.00  0.00    +0.000 A 
ATOM     25  C   UNL     1       6.884   5.721  16.338  0.00  0.00    +0.000 A 
ATOM     26  C   UNL     1       6.137   4.660  16.852  0.00  0.00    +0.000 A 
ENDBRANCH  19  21
ENDBRANCH  16  19
ENDBRANCH   4  16
TORSDOF 4
ENDMDL
MODEL 7
REMARK VINA RESULT:      -7.5      3.145      8.447
REMARK  Name = 
REMARK  5 active torsions:
REMARK  status: ('A' for Active; 'I' for Inactive)
REMARK    1  A    between atoms: C_1  and  N_2
REMARK    2  A    between atoms: C_6  and  C_8
REMARK    3  A    between atoms: C_11  and  S_12
REMARK    4  A    between atoms: S_12  and  N_15
REMARK    5  A    between atoms: N_15  and  C_16
REMARK                            x       y       z     vdW  Elec       q    Type
REMARK                         _______ _______ _______ _____ _____    ______ ____
ROOT
ATOM      1  C   UNL     1       2.158   7.613  18.876  0.00  0.00    +0.000 A 
ATOM      2  C   UNL     1       2.789   7.029  17.769  0.00  0.00    +0.000 A 
ATOM      3  C   UNL     1       3.230   5.708  17.826  0.00  0.00    +0.000 A 
ATOM      4  C   UNL     1       3.146   4.999  19.024  0.00  0.00    +0.000 A 
ATOM      5  C   UNL     1       2.577   5.591  20.162  0.00  0.00    +0.000 A 
ATOM      6  C   UNL     1       2.082   6.901  20.081  0.00  0.00    +0.000 A 
ENDROOT
BRANCH   1  12
ATOM      7  C   UNL     1      -1.307  10.875  23.223  0.00  0.00    +0.000 C 
ATOM      8  N   UNL     1      -0.184  10.752  22.299  0.00  0.00    +0.000 NA
ATOM      9  C   UNL     1      -0.576  11.130  20.923  0.00  0.00    +0.000 C 
ATOM     10  C   UNL     1       0.571  10.956  19.898  0.00  0.00    +0.000 C 
ATOM     11  N   UNL     1       1.185   9.628  19.991  0.00  0.00    +0.000 N 
ATOM     12  C   UNL     1       1.632   9.009  18.822  0.00  0.00    +0.000 C 
ATOM     13  O   UNL     1       1.582   9.549  17.716  0.00  0.00    +0.000 OA
ATOM     14  C   UNL     1       1.574   9.279  21.364  0.00  0.00    +0.000 C 
ATOM     15  C   UNL     1       0.358   9.378  22.304  0.00  0.00    +0.000 C 
ENDBRANCH   1  12
BRANCH   4  16
ATOM     16  S   UNL     1       3.747   3.323  19.082  0.00  0.00    +0.000 S 
ATOM     17  O   UNL     1       3.300   2.746  20.333  0.00  0.00    +0.000 OA
ATOM     18  O   UNL     1       3.427   2.703  17.814  0.00  0.00    +0.000 OA
BRANCH  16  19
ATOM     19  N   UNL     1       5.419   3.496  19.216  0.00  0.00    +0.000 N 
ATOM     20  H   UNL     1       5.767   3.286  20.149  0.00  0.00    +0.000 HD
BRANCH  19  21
ATOM     21  C   UNL     1       6.079   4.505  18.467  0.00  0.00    +0.000 A 
ATOM     22  C   UNL     1       6.145   4.408  17.076  0.00  0.00    +0.000 A 
ATOM     23  C   UNL     1       6.846   5.369  16.345  0.00  0.00    +0.000 A 
ATOM     24  C   UNL     1       7.459   6.435  17.001  0.00  0.00    +0.000 A 
ATOM     25  C   UNL     1       7.385   6.534  18.391  0.00  0.00    +0.000 A 
ATOM     26  C   UNL     1       6.707   5.560  19.126  0.00  0.00    +0.000 A 
ENDBRANCH  19  21
ENDBRANCH  16  19
ENDBRANCH   4  16
TORSDOF 4
ENDMDL
MODEL 8
REMARK VINA RESULT:      -7.5      1.771      2.811
REMARK  Name = 
REMARK  5 active torsions:
REMARK  status: ('A' for Active; 'I' for Inactive)
REMARK    1  A    between atoms: C_1  and  N_2
REMARK    2  A    between atoms: C_6  and  C_8
REMARK    3  A    between atoms: C_11  and  S_12
REMARK    4  A    between atoms: S_12  and  N_15
REMARK    5  A    between atoms: N_15  and  C_16
REMARK                            x       y       z     vdW  Elec       q    Type
REMARK                         _______ _______ _______ _____ _____    ______ ____
ROOT
ATOM      1  C   UNL     1       2.741   7.606  18.384  0.00  0.00    +0.000 A 
ATOM      2  C   UNL     1       2.178   7.660  19.666  0.00  0.00    +0.000 A 
ATOM      3  C   UNL     1       1.297   8.686  20.006  0.00  0.00    +0.000 A 
ATOM      4  C   UNL     1       1.062   9.725  19.106  0.00  0.00    +0.000 A 
ATOM      5  C   UNL     1       1.669   9.721  17.841  0.00  0.00    +0.000 A 
ATOM      6  C   UNL     1       2.509   8.656  17.485  0.00  0.00    +0.000 A 
ENDROOT
BRANCH   1  12
ATOM      7  C   UNL     1       1.988   1.242  19.075  0.00  0.00    +0.000 C 
ATOM      8  N   UNL     1       2.304   2.424  18.278  0.00  0.00    +0.000 NA
ATOM      9  C   UNL     1       3.727   2.804  18.422  0.00  0.00    +0.000 C 
ATOM     10  C   UNL     1       4.092   4.090  17.641  0.00  0.00    +0.000 C 
ATOM     11  N   UNL     1       3.159   5.183  17.930  0.00  0.00    +0.000 N 
ATOM     12  C   UNL     1       3.647   6.490  17.981  0.00  0.00    +0.000 C 
ATOM     13  O   UNL     1       4.821   6.777  17.743  0.00  0.00    +0.000 OA
ATOM     14  C   UNL     1       1.753   4.785  17.772  0.00  0.00    +0.000 C 
ATOM     15  C   UNL     1       1.443   3.563  18.657  0.00  0.00    +0.000 C 
ENDBRANCH   1  12
BRANCH   4  16
ATOM     16  S   UNL     1      -0.042  11.042  19.575  0.00  0.00    +0.000 S 
ATOM     17  O   UNL     1       0.163  11.299  20.986  0.00  0.00    +0.000 OA
ATOM     18  O   UNL     1       0.100  12.097  18.593  0.00  0.00    +0.000 OA
BRANCH  16  19
ATOM     19  N   UNL     1      -1.575  10.354  19.440  0.00  0.00    +0.000 N 
ATOM     20  H   UNL     1      -1.656   9.464  19.930  0.00  0.00    +0.000 HD
BRANCH  19  21
ATOM     21  C   UNL     1      -2.317  10.528  18.243  0.00  0.00    +0.000 A 
ATOM     22  C   UNL     1      -1.930   9.858  17.081  0.00  0.00    +0.000 A 
ATOM     23  C   UNL     1      -2.624  10.075  15.890  0.00  0.00    +0.000 A 
ATOM     24  C   UNL     1      -3.716  10.942  15.866  0.00  0.00    +0.000 A 
ATOM     25  C   UNL     1      -4.107  11.604  17.031  0.00  0.00    +0.000 A 
ATOM     26  C   UNL     1      -3.397  11.408  18.217  0.00  0.00    +0.000 A 
ENDBRANCH  19  21
ENDBRANCH  16  19
ENDBRANCH   4  16
TORSDOF 4
ENDMDL
MODEL 9
REMARK VINA RESULT:      -7.5      1.650      2.674
REMARK  Name = 
REMARK  5 active torsions:
REMARK  status: ('A' for Active; 'I' for Inactive)
REMARK    1  A    between atoms: C_1  and  N_2
REMARK    2  A    between atoms: C_6  and  C_8
REMARK    3  A    between atoms: C_11  and  S_12
REMARK    4  A    between atoms: S_12  and  N_15
REMARK    5  A    between atoms: N_15  and  C_16
REMARK                            x       y       z     vdW  Elec       q    Type
REMARK                         _______ _______ _______ _____ _____    ______ ____
ROOT
ATOM      1  C   UNL     1       2.664   7.634  18.411  0.00  0.00    +0.000 A 
ATOM      2  C   UNL     1       2.266   7.511  19.749  0.00  0.00    +0.000 A 
ATOM      3  C   UNL     1       1.468   8.490  20.340  0.00  0.00    +0.000 A 
ATOM      4  C   UNL     1       1.158   9.651  19.634  0.00  0.00    +0.000 A 
ATOM      5  C   UNL     1       1.604   9.822  18.314  0.00  0.00    +0.000 A 
ATOM      6  C   UNL     1       2.358   8.807  17.707  0.00  0.00    +0.000 A 
ENDROOT
BRANCH   1  12
ATOM      7  C   UNL     1       2.234   1.220  18.869  0.00  0.00    +0.000 C 
ATOM      8  N   UNL     1       2.329   2.453  18.095  0.00  0.00    +0.000 NA
ATOM      9  C   UNL     1       3.738   2.876  17.928  0.00  0.00    +0.000 C 
ATOM     10  C   UNL     1       3.882   4.214  17.164  0.00  0.00    +0.000 C 
ATOM     11  N   UNL     1       3.018   5.256  17.727  0.00  0.00    +0.000 N 
ATOM     12  C   UNL     1       3.476   6.575  17.743  0.00  0.00    +0.000 C 
ATOM     13  O   UNL     1       4.556   6.916  17.257  0.00  0.00    +0.000 OA
ATOM     14  C   UNL     1       1.624   4.817  17.875  0.00  0.00    +0.000 C 
ATOM     15  C   UNL     1       1.555   3.539  18.730  0.00  0.00    +0.000 C 
ENDBRANCH   1  12
BRANCH   4  16
ATOM     16  S   UNL     1       0.165  10.904  20.420  0.00  0.00    +0.000 S 
ATOM     17  O   UNL     1      -0.907  10.229  21.124  0.00  0.00    +0.000 OA
ATOM     18  O   UNL     1       1.067  11.802  21.111  0.00  0.00    +0.000 OA
BRANCH  16  19
ATOM     19  N   UNL     1      -0.557  11.717  19.132  0.00  0.00    +0.000 N 
ATOM     20  H   UNL     1      -0.324  12.708  19.106  0.00  0.00    +0.000 HD
BRANCH  19  21
ATOM     21  C   UNL     1      -1.848  11.321  18.691  0.00  0.00    +0.000 A 
ATOM     22  C   UNL     1      -1.984  10.231  17.830  0.00  0.00    +0.000 A 
ATOM     23  C   UNL     1      -3.247   9.879  17.350  0.00  0.00    +0.000 A 
ATOM     24  C   UNL     1      -4.371  10.602  17.747  0.00  0.00    +0.000 A 
ATOM     25  C   UNL     1      -4.233  11.687  18.615  0.00  0.00    +0.000 A 
ATOM     26  C   UNL     1      -2.968  12.056  19.075  0.00  0.00    +0.000 A 
ENDBRANCH  19  21
ENDBRANCH  16  19
ENDBRANCH   4  16
TORSDOF 4
ENDMDL
