MODEL 1
REMARK VINA RESULT:      -9.4      0.000      0.000
REMARK  Name = 
REMARK  6 active torsions:
REMARK  status: ('A' for Active; 'I' for Inactive)
REMARK    1  A    between atoms: C_1  and  C_2
REMARK    2  A    between atoms: C_3  and  C_4
REMARK    3  A    between atoms: N_6  and  C_7
REMARK    4  A    between atoms: C_11  and  N_12
REMARK    5  A    between atoms: N_18  and  C_19
REMARK    6  A    between atoms: C_22  and  C_23
REMARK                            x       y       z     vdW  Elec       q    Type
REMARK                         _______ _______ _______ _____ _____    ______ ____
ROOT
ATOM      1  N   UNL     1       3.653  13.737  17.968  0.00  0.00    +0.000 N 
ATOM      2  C   UNL     1       2.471  13.462  18.661  0.00  0.00    +0.000 A 
ATOM      3  N   UNL     1       1.838  14.387  19.366  0.00  0.00    +0.000 NA
ATOM      4  C   UNL     1       0.781  13.962  20.037  0.00  0.00    +0.000 A 
ATOM      5  N   UNL     1       0.325  12.716  20.067  0.00  0.00    +0.000 NA
ATOM      6  C   UNL     1       1.029  11.858  19.342  0.00  0.00    +0.000 A 
ATOM      7  N   UNL     1       0.637  10.523  19.459  0.00  0.00    +0.000 N 
ATOM      8  N   UNL     1       2.081  12.196  18.607  0.00  0.00    +0.000 NA
ATOM      9  H   UNL     1       4.016  12.868  17.600  0.00  0.00    +0.000 HD
ATOM     10  H   UNL     1      -0.109  10.457  20.136  0.00  0.00    +0.000 HD
ENDROOT
BRANCH   1  15
ATOM     11  C   UNL     1       6.878  15.634  18.041  0.00  0.00    +0.000 A 
ATOM     12  C   UNL     1       6.446  16.816  18.640  0.00  0.00    +0.000 A 
ATOM     13  C   UNL     1       5.120  16.958  19.044  0.00  0.00    +0.000 A 
ATOM     14  C   UNL     1       4.211  15.922  18.832  0.00  0.00    +0.000 A 
ATOM     15  C   UNL     1       4.606  14.744  18.187  0.00  0.00    +0.000 A 
ATOM     16  C   UNL     1       5.951  14.613  17.816  0.00  0.00    +0.000 A 
BRANCH  11  19
ATOM     17  C   UNL     1       9.184  14.808  18.401  0.00  0.00    +0.000 C 
ATOM     18  O   UNL     1       9.039  14.344  19.526  0.00  0.00    +0.000 OA
ATOM     19  N   UNL     1       8.211  15.404  17.634  0.00  0.00    +0.000 N 
ATOM     20  H   UNL     1       8.427  15.620  16.669  0.00  0.00    +0.000 HD
BRANCH  17  23
ATOM     21  C   UNL     1      12.247  13.289  16.637  0.00  0.00    +0.000 C 
ATOM     22  C   UNL     1      10.940  13.539  17.304  0.00  0.00    +0.000 C 
ATOM     23  C   UNL     1      10.507  14.739  17.721  0.00  0.00    +0.000 C 
ENDBRANCH  17  23
ENDBRANCH  11  19
ENDBRANCH   1  15
BRANCH   7  24
ATOM     24  C   UNL     1       1.304   9.340  19.129  0.00  0.00    +0.000 A 
ATOM     25  C   UNL     1       1.573   8.408  20.142  0.00  0.00    +0.000 A 
ATOM     26  C   UNL     1       2.246   7.213  19.864  0.00  0.00    +0.000 A 
ATOM     27  C   UNL     1       2.648   6.917  18.558  0.00  0.00    +0.000 A 
ATOM     28  C   UNL     1       2.347   7.817  17.537  0.00  0.00    +0.000 A 
ATOM     29  C   UNL     1       1.708   9.022  17.827  0.00  0.00    +0.000 A 
BRANCH  27  30
ATOM     30  C   UNL     1       3.246   5.587  18.272  0.00  0.00    +0.000 C 
ATOM     31  O   UNL     1       4.107   5.540  17.393  0.00  0.00    +0.000 OA
ATOM     32  N   UNL     1       2.877   4.471  19.021  0.00  0.00    +0.000 N 
ATOM     33  C   UNL     1       3.720   3.281  18.950  0.00  0.00    +0.000 C 
ATOM     34  C   UNL     1       2.955   2.095  18.376  0.00  0.00    +0.000 C 
ATOM     35  C   UNL     1       1.664   1.853  19.157  0.00  0.00    +0.000 C 
ATOM     36  C   UNL     1       0.818   3.121  19.204  0.00  0.00    +0.000 C 
ATOM     37  C   UNL     1       1.615   4.304  19.750  0.00  0.00    +0.000 C 
ENDBRANCH  27  30
ENDBRANCH   7  24
TORSDOF 5
ENDMDL
MODEL 2
REMARK VINA RESULT:      -9.2      5.097     10.027
REMARK  Name = 
REMARK  6 active torsions:
REMARK  status: ('A' for Active; 'I' for Inactive)
REMARK    1  A    between atoms: C_1  and  C_2
REMARK    2  A    between atoms: C_3  and  C_4
REMARK    3  A    between atoms: N_6  and  C_7
REMARK    4  A    between atoms: C_11  and  N_12
REMARK    5  A    between atoms: N_18  and  C_19
REMARK    6  A    between atoms: C_22  and  C_23
REMARK                            x       y       z     vdW  Elec       q    Type
REMARK                         _______ _______ _______ _____ _____    ______ ____
ROOT
ATOM      1  N   UNL     1       5.230   5.955  17.893  0.00  0.00    +0.000 N 
ATOM      2  C   UNL     1       4.271   5.356  18.713  0.00  0.00    +0.000 A 
ATOM      3  N   UNL     1       4.085   4.043  18.736  0.00  0.00    +0.000 NA
ATOM      4  C   UNL     1       3.086   3.627  19.495  0.00  0.00    +0.000 A 
ATOM      5  N   UNL     1       2.272   4.397  20.206  0.00  0.00    +0.000 NA
ATOM      6  C   UNL     1       2.527   5.695  20.113  0.00  0.00    +0.000 A 
ATOM      7  N   UNL     1       1.608   6.525  20.757  0.00  0.00    +0.000 N 
ATOM      8  N   UNL     1       3.528   6.206  19.407  0.00  0.00    +0.000 NA
ATOM      9  H   UNL     1       5.119   6.958  17.954  0.00  0.00    +0.000 HD
ATOM     10  H   UNL     1       0.869   5.959  21.148  0.00  0.00    +0.000 HD
ENDROOT
BRANCH   1  15
ATOM     11  C   UNL     1       5.673   4.564  14.447  0.00  0.00    +0.000 A 
ATOM     12  C   UNL     1       7.064   4.579  14.361  0.00  0.00    +0.000 A 
ATOM     13  C   UNL     1       7.834   5.007  15.441  0.00  0.00    +0.000 A 
ATOM     14  C   UNL     1       7.212   5.440  16.612  0.00  0.00    +0.000 A 
ATOM     15  C   UNL     1       5.816   5.484  16.708  0.00  0.00    +0.000 A 
ATOM     16  C   UNL     1       5.065   5.023  15.618  0.00  0.00    +0.000 A 
BRANCH  11  19
ATOM     17  C   UNL     1       5.234   3.391  12.312  0.00  0.00    +0.000 C 
ATOM     18  O   UNL     1       6.367   2.980  12.092  0.00  0.00    +0.000 OA
ATOM     19  N   UNL     1       4.828   4.117  13.407  0.00  0.00    +0.000 N 
ATOM     20  H   UNL     1       3.837   4.276  13.537  0.00  0.00    +0.000 HD
BRANCH  17  23
ATOM     21  C   UNL     1       2.665   3.948   9.503  0.00  0.00    +0.000 C 
ATOM     22  C   UNL     1       3.766   4.062  10.496  0.00  0.00    +0.000 C 
ATOM     23  C   UNL     1       4.127   3.099  11.360  0.00  0.00    +0.000 C 
ENDBRANCH  17  23
ENDBRANCH  11  19
ENDBRANCH   1  15
BRANCH   7  24
ATOM     24  C   UNL     1       1.355   7.894  20.618  0.00  0.00    +0.000 A 
ATOM     25  C   UNL     1       1.053   8.646  21.762  0.00  0.00    +0.000 A 
ATOM     26  C   UNL     1       0.785  10.017  21.676  0.00  0.00    +0.000 A 
ATOM     27  C   UNL     1       0.832  10.668  20.439  0.00  0.00    +0.000 A 
ATOM     28  C   UNL     1       1.175   9.937  19.302  0.00  0.00    +0.000 A 
ATOM     29  C   UNL     1       1.405   8.564  19.391  0.00  0.00    +0.000 A 
BRANCH  27  30
ATOM     30  C   UNL     1       0.668  12.144  20.394  0.00  0.00    +0.000 C 
ATOM     31  O   UNL     1       1.674  12.824  20.597  0.00  0.00    +0.000 OA
ATOM     32  N   UNL     1      -0.566  12.708  20.073  0.00  0.00    +0.000 N 
ATOM     33  C   UNL     1      -0.606  14.119  19.702  0.00  0.00    +0.000 C 
ATOM     34  C   UNL     1      -1.447  14.926  20.684  0.00  0.00    +0.000 C 
ATOM     35  C   UNL     1      -2.841  14.318  20.830  0.00  0.00    +0.000 C 
ATOM     36  C   UNL     1      -2.749  12.846  21.218  0.00  0.00    +0.000 C 
ATOM     37  C   UNL     1      -1.874  12.065  20.240  0.00  0.00    +0.000 C 
ENDBRANCH  27  30
ENDBRANCH   7  24
TORSDOF 5
ENDMDL
MODEL 3
REMARK VINA RESULT:      -9.2      4.254     10.058
REMARK  Name = 
REMARK  6 active torsions:
REMARK  status: ('A' for Active; 'I' for Inactive)
REMARK    1  A    between atoms: C_1  and  C_2
REMARK    2  A    between atoms: C_3  and  C_4
REMARK    3  A    between atoms: N_6  and  C_7
REMARK    4  A    between atoms: C_11  and  N_12
REMARK    5  A    between atoms: N_18  and  C_19
REMARK    6  A    between atoms: C_22  and  C_23
REMARK                            x       y       z     vdW  Elec       q    Type
REMARK                         _______ _______ _______ _____ _____    ______ ____
ROOT
ATOM      1  N   UNL     1       5.280   6.073  17.776  0.00  0.00    +0.000 N 
ATOM      2  C   UNL     1       4.432   5.460  18.701  0.00  0.00    +0.000 A 
ATOM      3  N   UNL     1       4.391   4.143  18.853  0.00  0.00    +0.000 NA
ATOM      4  C   UNL     1       3.481   3.700  19.703  0.00  0.00    +0.000 A 
ATOM      5  N   UNL     1       2.623   4.446  20.388  0.00  0.00    +0.000 NA
ATOM      6  C   UNL     1       2.730   5.749  20.162  0.00  0.00    +0.000 A 
ATOM      7  N   UNL     1       1.758   6.538  20.780  0.00  0.00    +0.000 N 
ATOM      8  N   UNL     1       3.634   6.290  19.356  0.00  0.00    +0.000 NA
ATOM      9  H   UNL     1       5.063   7.060  17.752  0.00  0.00    +0.000 HD
ATOM     10  H   UNL     1       1.104   5.938  21.263  0.00  0.00    +0.000 HD
ENDROOT
BRANCH   1  15
ATOM     11  C   UNL     1       5.696   4.590  14.365  0.00  0.00    +0.000 A 
ATOM     12  C   UNL     1       7.087   4.549  14.291  0.00  0.00    +0.000 A 
ATOM     13  C   UNL     1       7.863   4.971  15.368  0.00  0.00    +0.000 A 
ATOM     14  C   UNL     1       7.250   5.454  16.523  0.00  0.00    +0.000 A 
ATOM     15  C   UNL     1       5.856   5.554  16.606  0.00  0.00    +0.000 A 
ATOM     16  C   UNL     1       5.096   5.098  15.520  0.00  0.00    +0.000 A 
BRANCH  11  19
ATOM     17  C   UNL     1       5.221   3.358  12.271  0.00  0.00    +0.000 C 
ATOM     18  O   UNL     1       6.330   2.871  12.088  0.00  0.00    +0.000 OA
ATOM     19  N   UNL     1       4.842   4.152  13.328  0.00  0.00    +0.000 N 
ATOM     20  H   UNL     1       3.860   4.376  13.432  0.00  0.00    +0.000 HD
BRANCH  17  23
ATOM     21  C   UNL     1       2.639   4.005   9.492  0.00  0.00    +0.000 C 
ATOM     22  C   UNL     1       3.743   4.089  10.486  0.00  0.00    +0.000 C 
ATOM     23  C   UNL     1       4.114   3.095  11.310  0.00  0.00    +0.000 C 
ENDBRANCH  17  23
ENDBRANCH  11  19
ENDBRANCH   1  15
BRANCH   7  24
ATOM     24  C   UNL     1       1.351   7.853  20.533  0.00  0.00    +0.000 A 
ATOM     25  C   UNL     1       1.534   8.388  19.249  0.00  0.00    +0.000 A 
ATOM     26  C   UNL     1       1.151   9.701  18.953  0.00  0.00    +0.000 A 
ATOM     27  C   UNL     1       0.561  10.502  19.935  0.00  0.00    +0.000 A 
ATOM     28  C   UNL     1       0.335   9.965  21.202  0.00  0.00    +0.000 A 
ATOM     29  C   UNL     1       0.752   8.667  21.500  0.00  0.00    +0.000 A 
BRANCH  27  30
ATOM     30  C   UNL     1       0.051  11.846  19.560  0.00  0.00    +0.000 C 
ATOM     31  O   UNL     1      -1.011  11.886  18.937  0.00  0.00    +0.000 OA
ATOM     32  N   UNL     1       0.730  12.996  19.959  0.00  0.00    +0.000 N 
ATOM     33  C   UNL     1       0.032  14.276  19.877  0.00  0.00    +0.000 C 
ATOM     34  C   UNL     1       0.727  15.224  18.908  0.00  0.00    +0.000 C 
ATOM     35  C   UNL     1       2.203  15.384  19.271  0.00  0.00    +0.000 C 
ATOM     36  C   UNL     1       2.889  14.024  19.345  0.00  0.00    +0.000 C 
ATOM     37  C   UNL     1       2.155  13.079  20.294  0.00  0.00    +0.000 C 
ENDBRANCH  27  30
ENDBRANCH   7  24
TORSDOF 5
ENDMDL
MODEL 4
REMARK VINA RESULT:      -8.8      1.681      2.520
REMARK  Name = 
REMARK  6 active torsions:
REMARK  status: ('A' for Active; 'I' for Inactive)
REMARK    1  A    between atoms: C_1  and  C_2
REMARK    2  A    between atoms: C_3  and  C_4
REMARK    3  A    between atoms: N_6  and  C_7
REMARK    4  A    between atoms: C_11  and  N_12
REMARK    5  A    between atoms: N_18  and  C_19
REMARK    6  A    between atoms: C_22  and  C_23
REMARK                            x       y       z     vdW  Elec       q    Type
REMARK                         _______ _______ _______ _____ _____    ______ ____
ROOT
ATOM      1  N   UNL     1       2.877  13.471  18.468  0.00  0.00    +0.000 N 
ATOM      2  C   UNL     1       2.011  13.025  19.469  0.00  0.00    +0.000 A 
ATOM      3  N   UNL     1       1.586  13.823  20.439  0.00  0.00    +0.000 NA
ATOM      4  C   UNL     1       0.839  13.243  21.362  0.00  0.00    +0.000 A 
ATOM      5  N   UNL     1       0.502  11.960  21.401  0.00  0.00    +0.000 NA
ATOM      6  C   UNL     1       0.983  11.237  20.398  0.00  0.00    +0.000 A 
ATOM      7  N   UNL     1       0.739   9.866  20.487  0.00  0.00    +0.000 N 
ATOM      8  N   UNL     1       1.709  11.737  19.406  0.00  0.00    +0.000 NA
ATOM      9  H   UNL     1       3.155  12.675  17.910  0.00  0.00    +0.000 HD
ATOM     10  H   UNL     1       0.264   9.671  21.357  0.00  0.00    +0.000 HD
ENDROOT
BRANCH   1  15
ATOM     11  C   UNL     1       6.012  15.492  18.157  0.00  0.00    +0.000 A 
ATOM     12  C   UNL     1       5.519  16.750  18.501  0.00  0.00    +0.000 A 
ATOM     13  C   UNL     1       4.184  16.909  18.865  0.00  0.00    +0.000 A 
ATOM     14  C   UNL     1       3.326  15.810  18.869  0.00  0.00    +0.000 A 
ATOM     15  C   UNL     1       3.781  14.545  18.478  0.00  0.00    +0.000 A 
ATOM     16  C   UNL     1       5.135  14.404  18.143  0.00  0.00    +0.000 A 
BRANCH  11  19
ATOM     17  C   UNL     1       8.304  14.690  18.635  0.00  0.00    +0.000 C 
ATOM     18  O   UNL     1       8.122  14.280  19.775  0.00  0.00    +0.000 OA
ATOM     19  N   UNL     1       7.358  15.246  17.806  0.00  0.00    +0.000 N 
ATOM     20  H   UNL     1       7.607  15.417  16.840  0.00  0.00    +0.000 HD
BRANCH  17  23
ATOM     21  C   UNL     1      11.381  13.110  16.949  0.00  0.00    +0.000 C 
ATOM     22  C   UNL     1      10.059  13.389  17.571  0.00  0.00    +0.000 C 
ATOM     23  C   UNL     1       9.650  14.593  18.004  0.00  0.00    +0.000 C 
ENDBRANCH  17  23
ENDBRANCH  11  19
ENDBRANCH   1  15
BRANCH   7  24
ATOM     24  C   UNL     1       1.336   8.784  19.832  0.00  0.00    +0.000 A 
ATOM     25  C   UNL     1       1.640   8.902  18.469  0.00  0.00    +0.000 A 
ATOM     26  C   UNL     1       2.231   7.846  17.766  0.00  0.00    +0.000 A 
ATOM     27  C   UNL     1       2.547   6.652  18.422  0.00  0.00    +0.000 A 
ATOM     28  C   UNL     1       2.289   6.541  19.788  0.00  0.00    +0.000 A 
ATOM     29  C   UNL     1       1.667   7.585  20.473  0.00  0.00    +0.000 A 
BRANCH  27  30
ATOM     30  C   UNL     1       3.287   5.597  17.683  0.00  0.00    +0.000 C 
ATOM     31  O   UNL     1       2.741   4.499  17.582  0.00  0.00    +0.000 OA
ATOM     32  N   UNL     1       4.515   5.882  17.086  0.00  0.00    +0.000 N 
ATOM     33  C   UNL     1       5.035   4.946  16.094  0.00  0.00    +0.000 C 
ATOM     34  C   UNL     1       6.356   4.336  16.549  0.00  0.00    +0.000 C 
ATOM     35  C   UNL     1       7.361   5.429  16.908  0.00  0.00    +0.000 C 
ATOM     36  C   UNL     1       6.774   6.381  17.945  0.00  0.00    +0.000 C 
ATOM     37  C   UNL     1       5.435   6.951  17.484  0.00  0.00    +0.000 C 
ENDBRANCH  27  30
ENDBRANCH   7  24
TORSDOF 5
ENDMDL
MODEL 5
REMARK VINA RESULT:      -8.8      4.068      9.954
REMARK  Name = 
REMARK  6 active torsions:
REMARK  status: ('A' for Active; 'I' for Inactive)
REMARK    1  A    between atoms: C_1  and  C_2
REMARK    2  A    between atoms: C_3  and  C_4
REMARK    3  A    between atoms: N_6  and  C_7
REMARK    4  A    between atoms: C_11  and  N_12
REMARK    5  A    between atoms: N_18  and  C_19
REMARK    6  A    between atoms: C_22  and  C_23
REMARK                            x       y       z     vdW  Elec       q    Type
REMARK                         _______ _______ _______ _____ _____    ______ ____
ROOT
ATOM      1  N   UNL     1       1.981  12.955  20.354  0.00  0.00    +0.000 N 
ATOM      2  C   UNL     1       1.857  14.247  19.838  0.00  0.00    +0.000 A 
ATOM      3  N   UNL     1       0.679  14.772  19.531  0.00  0.00    +0.000 NA
ATOM      4  C   UNL     1       0.722  15.970  18.973  0.00  0.00    +0.000 A 
ATOM      5  N   UNL     1       1.819  16.662  18.694  0.00  0.00    +0.000 NA
ATOM      6  C   UNL     1       2.950  16.053  19.025  0.00  0.00    +0.000 A 
ATOM      7  N   UNL     1       4.114  16.713  18.629  0.00  0.00    +0.000 N 
ATOM      8  N   UNL     1       3.007  14.869  19.621  0.00  0.00    +0.000 NA
ATOM      9  H   UNL     1       2.965  12.727  20.405  0.00  0.00    +0.000 HD
ATOM     10  H   UNL     1       3.864  17.539  18.105  0.00  0.00    +0.000 HD
ENDROOT
BRANCH   1  15
ATOM     11  C   UNL     1      -0.318  10.360  18.946  0.00  0.00    +0.000 A 
ATOM     12  C   UNL     1      -0.600   9.638  20.104  0.00  0.00    +0.000 A 
ATOM     13  C   UNL     1      -0.066  10.032  21.329  0.00  0.00    +0.000 A 
ATOM     14  C   UNL     1       0.771  11.145  21.400  0.00  0.00    +0.000 A 
ATOM     15  C   UNL     1       1.112  11.859  20.244  0.00  0.00    +0.000 A 
ATOM     16  C   UNL     1       0.540  11.459  19.028  0.00  0.00    +0.000 A 
BRANCH  11  19
ATOM     17  C   UNL     1      -2.135  10.288  17.266  0.00  0.00    +0.000 C 
ATOM     18  O   UNL     1      -3.005  10.860  17.911  0.00  0.00    +0.000 OA
ATOM     19  N   UNL     1      -0.845  10.041  17.675  0.00  0.00    +0.000 N 
ATOM     20  H   UNL     1      -0.187   9.683  16.995  0.00  0.00    +0.000 HD
BRANCH  17  23
ATOM     21  C   UNL     1      -3.785  10.062  13.797  0.00  0.00    +0.000 C 
ATOM     22  C   UNL     1      -3.360  10.436  15.173  0.00  0.00    +0.000 C 
ATOM     23  C   UNL     1      -2.416   9.801  15.887  0.00  0.00    +0.000 C 
ENDBRANCH  17  23
ENDBRANCH  11  19
ENDBRANCH   1  15
BRANCH   7  24
ATOM     24  C   UNL     1       5.430  16.255  18.506  0.00  0.00    +0.000 A 
ATOM     25  C   UNL     1       6.481  17.108  18.871  0.00  0.00    +0.000 A 
ATOM     26  C   UNL     1       7.815  16.700  18.759  0.00  0.00    +0.000 A 
ATOM     27  C   UNL     1       8.123  15.418  18.293  0.00  0.00    +0.000 A 
ATOM     28  C   UNL     1       7.084  14.548  17.969  0.00  0.00    +0.000 A 
ATOM     29  C   UNL     1       5.758  14.974  18.050  0.00  0.00    +0.000 A 
BRANCH  27  30
ATOM     30  C   UNL     1       9.539  14.969  18.304  0.00  0.00    +0.000 C 
ATOM     31  O   UNL     1      10.257  15.361  17.384  0.00  0.00    +0.000 OA
ATOM     32  N   UNL     1      10.025  14.189  19.353  0.00  0.00    +0.000 N 
ATOM     33  C   UNL     1      11.471  14.062  19.509  0.00  0.00    +0.000 C 
ATOM     34  C   UNL     1      11.919  12.615  19.347  0.00  0.00    +0.000 C 
ATOM     35  C   UNL     1      11.145  11.699  20.294  0.00  0.00    +0.000 C 
ATOM     36  C   UNL     1       9.642  11.866  20.095  0.00  0.00    +0.000 C 
ATOM     37  C   UNL     1       9.221  13.328  20.226  0.00  0.00    +0.000 C 
ENDBRANCH  27  30
ENDBRANCH   7  24
TORSDOF 5
ENDMDL
MODEL 6
REMARK VINA RESULT:      -8.7      4.076     10.114
REMARK  Name = 
REMARK  6 active torsions:
REMARK  status: ('A' for Active; 'I' for Inactive)
REMARK    1  A    between atoms: C_1  and  C_2
REMARK    2  A    between atoms: C_3  and  C_4
REMARK    3  A    between atoms: N_6  and  C_7
REMARK    4  A    between atoms: C_11  and  N_12
REMARK    5  A    between atoms: N_18  and  C_19
REMARK    6  A    between atoms: C_22  and  C_23
REMARK                            x       y       z     vdW  Elec       q    Type
REMARK                         _______ _______ _______ _____ _____    ______ ____
ROOT
ATOM      1  N   UNL     1       7.917   9.657  17.589  0.00  0.00    +0.000 N 
ATOM      2  C   UNL     1       8.822  10.561  18.151  0.00  0.00    +0.000 A 
ATOM      3  N   UNL     1       9.997  10.175  18.629  0.00  0.00    +0.000 NA
ATOM      4  C   UNL     1      10.712  11.124  19.207  0.00  0.00    +0.000 A 
ATOM      5  N   UNL     1      10.351  12.393  19.354  0.00  0.00    +0.000 NA
ATOM      6  C   UNL     1       9.156  12.684  18.857  0.00  0.00    +0.000 A 
ATOM      7  N   UNL     1       8.711  13.982  19.109  0.00  0.00    +0.000 N 
ATOM      8  N   UNL     1       8.383  11.809  18.227  0.00  0.00    +0.000 NA
ATOM      9  H   UNL     1       7.054  10.148  17.399  0.00  0.00    +0.000 HD
ATOM     10  H   UNL     1       9.390  14.459  19.684  0.00  0.00    +0.000 HD
ENDROOT
BRANCH   1  15
ATOM     11  C   UNL     1       7.020   6.056  17.106  0.00  0.00    +0.000 A 
ATOM     12  C   UNL     1       7.608   5.509  18.245  0.00  0.00    +0.000 A 
ATOM     13  C   UNL     1       8.253   6.329  19.169  0.00  0.00    +0.000 A 
ATOM     14  C   UNL     1       8.330   7.703  18.948  0.00  0.00    +0.000 A 
ATOM     15  C   UNL     1       7.792   8.273  17.786  0.00  0.00    +0.000 A 
ATOM     16  C   UNL     1       7.125   7.432  16.887  0.00  0.00    +0.000 A 
BRANCH  11  19
ATOM     17  C   UNL     1       6.774   5.022  14.870  0.00  0.00    +0.000 C 
ATOM     18  O   UNL     1       7.855   5.349  14.396  0.00  0.00    +0.000 OA
ATOM     19  N   UNL     1       6.324   5.295  16.141  0.00  0.00    +0.000 N 
ATOM     20  H   UNL     1       5.470   4.849  16.453  0.00  0.00    +0.000 HD
BRANCH  17  23
ATOM     21  C   UNL     1       5.379   2.935  11.954  0.00  0.00    +0.000 C 
ATOM     22  C   UNL     1       6.224   3.720  12.894  0.00  0.00    +0.000 C 
ATOM     23  C   UNL     1       5.804   4.231  14.063  0.00  0.00    +0.000 C 
ENDBRANCH  17  23
ENDBRANCH  11  19
ENDBRANCH   1  15
BRANCH   7  24
ATOM     24  C   UNL     1       7.430  14.541  19.041  0.00  0.00    +0.000 A 
ATOM     25  C   UNL     1       6.787  14.907  20.232  0.00  0.00    +0.000 A 
ATOM     26  C   UNL     1       5.503  15.463  20.218  0.00  0.00    +0.000 A 
ATOM     27  C   UNL     1       4.841  15.680  19.006  0.00  0.00    +0.000 A 
ATOM     28  C   UNL     1       5.490  15.360  17.814  0.00  0.00    +0.000 A 
ATOM     29  C   UNL     1       6.756  14.773  17.838  0.00  0.00    +0.000 A 
BRANCH  27  30
ATOM     30  C   UNL     1       3.534  16.386  19.014  0.00  0.00    +0.000 C 
ATOM     31  O   UNL     1       3.543  17.573  19.337  0.00  0.00    +0.000 OA
ATOM     32  N   UNL     1       2.373  15.727  18.609  0.00  0.00    +0.000 N 
ATOM     33  C   UNL     1       1.194  16.531  18.301  0.00  0.00    +0.000 C 
ATOM     34  C   UNL     1       0.040  16.202  19.240  0.00  0.00    +0.000 C 
ATOM     35  C   UNL     1      -0.254  14.703  19.232  0.00  0.00    +0.000 C 
ATOM     36  C   UNL     1       1.005  13.906  19.559  0.00  0.00    +0.000 C 
ATOM     37  C   UNL     1       2.158  14.277  18.629  0.00  0.00    +0.000 C 
ENDBRANCH  27  30
ENDBRANCH   7  24
TORSDOF 5
ENDMDL
MODEL 7
REMARK VINA RESULT:      -8.6      2.490      9.585
REMARK  Name = 
REMARK  6 active torsions:
REMARK  status: ('A' for Active; 'I' for Inactive)
REMARK    1  A    between atoms: C_1  and  C_2
REMARK    2  A    between atoms: C_3  and  C_4
REMARK    3  A    between atoms: N_6  and  C_7
REMARK    4  A    between atoms: C_11  and  N_12
REMARK    5  A    between atoms: N_18  and  C_19
REMARK    6  A    between atoms: C_22  and  C_23
REMARK                            x       y       z     vdW  Elec       q    Type
REMARK                         _______ _______ _______ _____ _____    ______ ____
ROOT
ATOM      1  N   UNL     1       1.519   9.474  20.156  0.00  0.00    +0.000 N 
ATOM      2  C   UNL     1       0.599  10.320  19.531  0.00  0.00    +0.000 A 
ATOM      3  N   UNL     1      -0.466   9.853  18.894  0.00  0.00    +0.000 NA
ATOM      4  C   UNL     1      -1.201  10.764  18.279  0.00  0.00    +0.000 A 
ATOM      5  N   UNL     1      -0.957  12.068  18.240  0.00  0.00    +0.000 NA
ATOM      6  C   UNL     1       0.135  12.440  18.894  0.00  0.00    +0.000 A 
ATOM      7  N   UNL     1       0.472  13.788  18.763  0.00  0.00    +0.000 N 
ATOM      8  N   UNL     1       0.914  11.606  19.571  0.00  0.00    +0.000 NA
ATOM      9  H   UNL     1       2.299  10.033  20.474  0.00  0.00    +0.000 HD
ATOM     10  H   UNL     1      -0.180  14.232  18.132  0.00  0.00    +0.000 HD
ENDROOT
BRANCH   1  15
ATOM     11  C   UNL     1       2.757   6.334  18.539  0.00  0.00    +0.000 A 
ATOM     12  C   UNL     1       2.362   5.402  19.496  0.00  0.00    +0.000 A 
ATOM     13  C   UNL     1       1.666   5.808  20.633  0.00  0.00    +0.000 A 
ATOM     14  C   UNL     1       1.376   7.158  20.827  0.00  0.00    +0.000 A 
ATOM     15  C   UNL     1       1.806   8.123  19.907  0.00  0.00    +0.000 A 
ATOM     16  C   UNL     1       2.479   7.686  18.759  0.00  0.00    +0.000 A 
BRANCH  11  19
ATOM     17  C   UNL     1       4.805   5.939  17.205  0.00  0.00    +0.000 C 
ATOM     18  O   UNL     1       5.637   6.123  18.086  0.00  0.00    +0.000 OA
ATOM     19  N   UNL     1       3.438   5.996  17.349  0.00  0.00    +0.000 N 
ATOM     20  H   UNL     1       2.862   5.688  16.576  0.00  0.00    +0.000 HD
BRANCH  17  23
ATOM     21  C   UNL     1       6.229   3.871  14.290  0.00  0.00    +0.000 C 
ATOM     22  C   UNL     1       5.728   4.366  15.600  0.00  0.00    +0.000 C 
ATOM     23  C   UNL     1       5.235   5.596  15.822  0.00  0.00    +0.000 C 
ENDBRANCH  17  23
ENDBRANCH  11  19
ENDBRANCH   1  15
BRANCH   7  24
ATOM     24  C   UNL     1       1.672  14.462  19.015  0.00  0.00    +0.000 A 
ATOM     25  C   UNL     1       2.733  14.318  18.109  0.00  0.00    +0.000 A 
ATOM     26  C   UNL     1       3.956  14.964  18.320  0.00  0.00    +0.000 A 
ATOM     27  C   UNL     1       4.136  15.784  19.439  0.00  0.00    +0.000 A 
ATOM     28  C   UNL     1       3.073  15.968  20.322  0.00  0.00    +0.000 A 
ATOM     29  C   UNL     1       1.868  15.292  20.123  0.00  0.00    +0.000 A 
BRANCH  27  30
ATOM     30  C   UNL     1       5.398  16.556  19.571  0.00  0.00    +0.000 C 
ATOM     31  O   UNL     1       5.533  17.536  18.837  0.00  0.00    +0.000 OA
ATOM     32  N   UNL     1       6.345  16.203  20.532  0.00  0.00    +0.000 N 
ATOM     33  C   UNL     1       7.387  17.170  20.864  0.00  0.00    +0.000 C 
ATOM     34  C   UNL     1       8.771  16.628  20.527  0.00  0.00    +0.000 C 
ATOM     35  C   UNL     1       8.997  15.270  21.191  0.00  0.00    +0.000 C 
ATOM     36  C   UNL     1       7.886  14.296  20.816  0.00  0.00    +0.000 C 
ATOM     37  C   UNL     1       6.507  14.874  21.130  0.00  0.00    +0.000 C 
ENDBRANCH  27  30
ENDBRANCH   7  24
TORSDOF 5
ENDMDL
MODEL 8
REMARK VINA RESULT:      -8.6      2.500      4.419
REMARK  Name = 
REMARK  6 active torsions:
REMARK  status: ('A' for Active; 'I' for Inactive)
REMARK    1  A    between atoms: C_1  and  C_2
REMARK    2  A    between atoms: C_3  and  C_4
REMARK    3  A    between atoms: N_6  and  C_7
REMARK    4  A    between atoms: C_11  and  N_12
REMARK    5  A    between atoms: N_18  and  C_19
REMARK    6  A    between atoms: C_22  and  C_23
REMARK                            x       y       z     vdW  Elec       q    Type
REMARK                         _______ _______ _______ _____ _____    ______ ____
ROOT
ATOM      1  N   UNL     1       0.294  11.718  19.382  0.00  0.00    +0.000 N 
ATOM      2  C   UNL     1       0.151  10.927  20.525  0.00  0.00    +0.000 A 
ATOM      3  N   UNL     1      -0.194  11.441  21.697  0.00  0.00    +0.000 NA
ATOM      4  C   UNL     1      -0.208  10.588  22.707  0.00  0.00    +0.000 A 
ATOM      5  N   UNL     1       0.100   9.299  22.643  0.00  0.00    +0.000 NA
ATOM      6  C   UNL     1       0.446   8.877  21.434  0.00  0.00    +0.000 A 
ATOM      7  N   UNL     1       0.888   7.555  21.373  0.00  0.00    +0.000 N 
ATOM      8  N   UNL     1       0.453   9.648  20.354  0.00  0.00    +0.000 NA
ATOM      9  H   UNL     1       0.669  11.141  18.642  0.00  0.00    +0.000 HD
ATOM     10  H   UNL     1       0.906   7.169  22.306  0.00  0.00    +0.000 HD
ENDROOT
BRANCH   1  15
ATOM     11  C   UNL     1       2.087  15.000  19.243  0.00  0.00    +0.000 A 
ATOM     12  C   UNL     1       1.008  15.851  19.011  0.00  0.00    +0.000 A 
ATOM     13  C   UNL     1      -0.288  15.345  18.942  0.00  0.00    +0.000 A 
ATOM     14  C   UNL     1      -0.511  13.976  19.087  0.00  0.00    +0.000 A 
ATOM     15  C   UNL     1       0.559  13.091  19.270  0.00  0.00    +0.000 A 
ATOM     16  C   UNL     1       1.850  13.628  19.364  0.00  0.00    +0.000 A 
BRANCH  11  19
ATOM     17  C   UNL     1       4.292  15.621  18.305  0.00  0.00    +0.000 C 
ATOM     18  O   UNL     1       4.033  15.475  17.116  0.00  0.00    +0.000 OA
ATOM     19  N   UNL     1       3.424  15.441  19.356  0.00  0.00    +0.000 N 
ATOM     20  H   UNL     1       3.724  15.728  20.280  0.00  0.00    +0.000 HD
BRANCH  17  23
ATOM     21  C   UNL     1       8.133  15.757  18.489  0.00  0.00    +0.000 C 
ATOM     22  C   UNL     1       6.712  15.467  18.156  0.00  0.00    +0.000 C 
ATOM     23  C   UNL     1       5.650  16.053  18.734  0.00  0.00    +0.000 C 
ENDBRANCH  17  23
ENDBRANCH  11  19
ENDBRANCH   1  15
BRANCH   7  24
ATOM     24  C   UNL     1       1.616   6.877  20.390  0.00  0.00    +0.000 A 
ATOM     25  C   UNL     1       1.776   5.488  20.502  0.00  0.00    +0.000 A 
ATOM     26  C   UNL     1       2.502   4.765  19.549  0.00  0.00    +0.000 A 
ATOM     27  C   UNL     1       3.071   5.418  18.451  0.00  0.00    +0.000 A 
ATOM     28  C   UNL     1       2.881   6.792  18.308  0.00  0.00    +0.000 A 
ATOM     29  C   UNL     1       2.186   7.512  19.281  0.00  0.00    +0.000 A 
BRANCH  27  30
ATOM     30  C   UNL     1       3.727   4.610  17.392  0.00  0.00    +0.000 C 
ATOM     31  O   UNL     1       3.298   3.470  17.213  0.00  0.00    +0.000 OA
ATOM     32  N   UNL     1       4.739   5.162  16.607  0.00  0.00    +0.000 N 
ATOM     33  C   UNL     1       5.111   4.474  15.374  0.00  0.00    +0.000 C 
ATOM     34  C   UNL     1       6.561   4.007  15.416  0.00  0.00    +0.000 C 
ATOM     35  C   UNL     1       7.495   5.171  15.744  0.00  0.00    +0.000 C 
ATOM     36  C   UNL     1       7.069   5.856  17.038  0.00  0.00    +0.000 C 
ATOM     37  C   UNL     1       5.604   6.284  16.986  0.00  0.00    +0.000 C 
ENDBRANCH  27  30
ENDBRANCH   7  24
TORSDOF 5
ENDMDL
MODEL 9
REMARK VINA RESULT:      -8.6      2.430      3.836
REMARK  Name = 
REMARK  6 active torsions:
REMARK  status: ('A' for Active; 'I' for Inactive)
REMARK    1  A    between atoms: C_1  and  C_2
REMARK    2  A    between atoms: C_3  and  C_4
REMARK    3  A    between atoms: N_6  and  C_7
REMARK    4  A    between atoms: C_11  and  N_12
REMARK    5  A    between atoms: N_18  and  C_19
REMARK    6  A    between atoms: C_22  and  C_23
REMARK                            x       y       z     vdW  Elec       q    Type
REMARK                         _______ _______ _______ _____ _____    ______ ____
ROOT
ATOM      1  N   UNL     1       0.513  13.032  18.872  0.00  0.00    +0.000 N 
ATOM      2  C   UNL     1       0.247  12.351  20.063  0.00  0.00    +0.000 A 
ATOM      3  N   UNL     1      -0.102  12.985  21.173  0.00  0.00    +0.000 NA
ATOM      4  C   UNL     1      -0.240  12.220  22.242  0.00  0.00    +0.000 A 
ATOM      5  N   UNL     1      -0.051  10.907  22.292  0.00  0.00    +0.000 NA
ATOM      6  C   UNL     1       0.308  10.362  21.137  0.00  0.00    +0.000 A 
ATOM      7  N   UNL     1       0.628   9.004  21.199  0.00  0.00    +0.000 N 
ATOM      8  N   UNL     1       0.436  11.041  20.004  0.00  0.00    +0.000 NA
ATOM      9  H   UNL     1       0.866  12.367  18.198  0.00  0.00    +0.000 HD
ATOM     10  H   UNL     1       0.567   8.694  22.157  0.00  0.00    +0.000 HD
ENDROOT
BRANCH   1  15
ATOM     11  C   UNL     1       2.621  16.086  18.384  0.00  0.00    +0.000 A 
ATOM     12  C   UNL     1       1.620  17.046  18.244  0.00  0.00    +0.000 A 
ATOM     13  C   UNL     1       0.278  16.687  18.348  0.00  0.00    +0.000 A 
ATOM     14  C   UNL     1      -0.072  15.357  18.577  0.00  0.00    +0.000 A 
ATOM     15  C   UNL     1       0.910  14.363  18.671  0.00  0.00    +0.000 A 
ATOM     16  C   UNL     1       2.254  14.754  18.590  0.00  0.00    +0.000 A 
BRANCH  11  19
ATOM     17  C   UNL     1       4.753  16.885  19.355  0.00  0.00    +0.000 C 
ATOM     18  O   UNL     1       4.362  17.116  20.493  0.00  0.00    +0.000 OA
ATOM     19  N   UNL     1       4.002  16.377  18.321  0.00  0.00    +0.000 N 
ATOM     20  H   UNL     1       4.478  16.104  17.471  0.00  0.00    +0.000 HD
BRANCH  17  23
ATOM     21  C   UNL     1       8.329  16.160  18.133  0.00  0.00    +0.000 C 
ATOM     22  C   UNL     1       6.894  16.095  18.520  0.00  0.00    +0.000 C 
ATOM     23  C   UNL     1       6.173  17.131  18.981  0.00  0.00    +0.000 C 
ENDBRANCH  17  23
ENDBRANCH  11  19
ENDBRANCH   1  15
BRANCH   7  24
ATOM     24  C   UNL     1       1.333   8.188  20.309  0.00  0.00    +0.000 A 
ATOM     25  C   UNL     1       1.654   6.880  20.698  0.00  0.00    +0.000 A 
ATOM     26  C   UNL     1       2.365   6.026  19.847  0.00  0.00    +0.000 A 
ATOM     27  C   UNL     1       2.755   6.462  18.577  0.00  0.00    +0.000 A 
ATOM     28  C   UNL     1       2.403   7.746  18.164  0.00  0.00    +0.000 A 
ATOM     29  C   UNL     1       1.725   8.603  19.031  0.00  0.00    +0.000 A 
BRANCH  27  30
ATOM     30  C   UNL     1       3.397   5.495  17.649  0.00  0.00    +0.000 C 
ATOM     31  O   UNL     1       2.728   4.518  17.312  0.00  0.00    +0.000 OA
ATOM     32  N   UNL     1       4.675   5.739  17.148  0.00  0.00    +0.000 N 
ATOM     33  C   UNL     1       5.124   4.966  15.993  0.00  0.00    +0.000 C 
ATOM     34  C   UNL     1       6.341   4.116  16.336  0.00  0.00    +0.000 C 
ATOM     35  C   UNL     1       7.452   4.977  16.934  0.00  0.00    +0.000 C 
ATOM     36  C   UNL     1       6.937   5.764  18.135  0.00  0.00    +0.000 C 
ATOM     37  C   UNL     1       5.697   6.580  17.777  0.00  0.00    +0.000 C 
ENDBRANCH  27  30
ENDBRANCH   7  24
TORSDOF 5
ENDMDL
