MODEL 1
REMARK VINA RESULT:      -9.2      0.000      0.000
REMARK  Name = 
REMARK  3 active torsions:
REMARK  status: ('A' for Active; 'I' for Inactive)
REMARK    1  A    between atoms: C_1  and  C_2
REMARK    2  A    between atoms: C_3  and  C_4
REMARK    3  A    between atoms: C_11  and  C_12
REMARK                            x       y       z     vdW  Elec       q    Type
REMARK                         _______ _______ _______ _____ _____    ______ ____
ROOT
ATOM      1  C   UNL     1       2.269   6.680  19.646  0.00  0.00    +0.000 C 
ATOM      2  O   UNL     1       2.476   6.532  18.445  0.00  0.00    +0.000 OA
ATOM      3  N   UNL     1       2.667   5.741  20.582  0.00  0.00    +0.000 N 
ATOM      4  C   UNL     1       3.269   4.574  20.138  0.00  0.00    +0.000 A 
ATOM      5  N   UNL     1       2.873   3.385  20.592  0.00  0.00    +0.000 NA
ATOM      6  O   UNL     1       3.576   2.461  19.825  0.00  0.00    +0.000 OA
ATOM      7  N   UNL     1       4.488   3.084  18.985  0.00  0.00    +0.000 NA
ATOM      8  C   UNL     1       4.349   4.397  19.217  0.00  0.00    +0.000 A 
ATOM      9  H   UNL     1       2.112   5.671  21.424  0.00  0.00    +0.000 HD
ENDROOT
BRANCH   1  12
ATOM     10  C   UNL     1       1.655   9.539  18.236  0.00  0.00    +0.000 C 
ATOM     11  C   UNL     1       1.279   9.057  19.591  0.00  0.00    +0.000 A 
ATOM     12  C   UNL     1       1.533   7.818  20.168  0.00  0.00    +0.000 A 
ATOM     13  O   UNL     1       1.009   7.775  21.436  0.00  0.00    +0.000 OA
ATOM     14  C   UNL     1       0.452   8.998  21.686  0.00  0.00    +0.000 A 
ATOM     15  C   UNL     1      -0.157   9.396  22.876  0.00  0.00    +0.000 A 
ATOM     16  C   UNL     1      -0.663  10.702  22.912  0.00  0.00    +0.000 A 
ATOM     17  C   UNL     1      -0.554  11.542  21.807  0.00  0.00    +0.000 A 
ATOM     18  F   UNL     1      -1.053  12.782  21.872  0.00  0.00    +0.000 F 
ATOM     19  C   UNL     1       0.069  11.126  20.628  0.00  0.00    +0.000 A 
ATOM     20  C   UNL     1       0.584   9.819  20.576  0.00  0.00    +0.000 A 
ENDBRANCH   1  12
BRANCH   8  21
ATOM     21  C   UNL     1       5.317   5.362  18.688  0.00  0.00    +0.000 A 
ATOM     22  C   UNL     1       5.057   6.081  17.510  0.00  0.00    +0.000 A 
ATOM     23  C   UNL     1       6.047   6.885  16.934  0.00  0.00    +0.000 A 
ATOM     24  C   UNL     1       7.296   6.976  17.536  0.00  0.00    +0.000 A 
ATOM     25  F   UNL     1       8.259   7.707  16.960  0.00  0.00    +0.000 F 
ATOM     26  C   UNL     1       7.568   6.297  18.716  0.00  0.00    +0.000 A 
ATOM     27  C   UNL     1       6.581   5.493  19.292  0.00  0.00    +0.000 A 
ENDBRANCH   8  21
TORSDOF 2
ENDMDL
MODEL 2
REMARK VINA RESULT:      -9.2      0.576      1.084
REMARK  Name = 
REMARK  3 active torsions:
REMARK  status: ('A' for Active; 'I' for Inactive)
REMARK    1  A    between atoms: C_1  and  C_2
REMARK    2  A    between atoms: C_3  and  C_4
REMARK    3  A    between atoms: C_11  and  C_12
REMARK                            x       y       z     vdW  Elec       q    Type
REMARK                         _______ _______ _______ _____ _____    ______ ____
ROOT
ATOM      1  C   UNL     1       2.522   6.310  19.331  0.00  0.00    +0.000 C 
ATOM      2  O   UNL     1       2.735   6.123  18.136  0.00  0.00    +0.000 OA
ATOM      3  N   UNL     1       2.861   5.376  20.294  0.00  0.00    +0.000 N 
ATOM      4  C   UNL     1       3.409   4.169  19.885  0.00  0.00    +0.000 A 
ATOM      5  N   UNL     1       2.948   3.013  20.362  0.00  0.00    +0.000 NA
ATOM      6  O   UNL     1       3.612   2.037  19.626  0.00  0.00    +0.000 OA
ATOM      7  N   UNL     1       4.564   2.592  18.784  0.00  0.00    +0.000 NA
ATOM      8  C   UNL     1       4.489   3.916  18.983  0.00  0.00    +0.000 A 
ATOM      9  H   UNL     1       2.293   5.353  21.131  0.00  0.00    +0.000 HD
ENDROOT
BRANCH   1  12
ATOM     10  C   UNL     1       2.047   9.152  17.836  0.00  0.00    +0.000 C 
ATOM     11  C   UNL     1       1.645   8.729  19.203  0.00  0.00    +0.000 A 
ATOM     12  C   UNL     1       1.838   7.496  19.817  0.00  0.00    +0.000 A 
ATOM     13  O   UNL     1       1.308   7.515  21.082  0.00  0.00    +0.000 OA
ATOM     14  C   UNL     1       0.808   8.768  21.294  0.00  0.00    +0.000 A 
ATOM     15  C   UNL     1       0.214   9.229  22.469  0.00  0.00    +0.000 A 
ATOM     16  C   UNL     1      -0.231  10.558  22.465  0.00  0.00    +0.000 A 
ATOM     17  C   UNL     1      -0.078  11.359  21.338  0.00  0.00    +0.000 A 
ATOM     18  F   UNL     1      -0.518  12.622  21.365  0.00  0.00    +0.000 F 
ATOM     19  C   UNL     1       0.529  10.881  20.174  0.00  0.00    +0.000 A 
ATOM     20  C   UNL     1       0.982   9.550  20.162  0.00  0.00    +0.000 A 
ENDBRANCH   1  12
BRANCH   8  21
ATOM     21  C   UNL     1       5.510   4.819  18.443  0.00  0.00    +0.000 A 
ATOM     22  C   UNL     1       6.525   5.340  19.264  0.00  0.00    +0.000 A 
ATOM     23  C   UNL     1       7.402   6.315  18.776  0.00  0.00    +0.000 A 
ATOM     24  C   UNL     1       7.270   6.767  17.469  0.00  0.00    +0.000 A 
ATOM     25  F   UNL     1       8.078   7.735  17.017  0.00  0.00    +0.000 F 
ATOM     26  C   UNL     1       6.293   6.248  16.632  0.00  0.00    +0.000 A 
ATOM     27  C   UNL     1       5.415   5.275  17.116  0.00  0.00    +0.000 A 
ENDBRANCH   8  21
TORSDOF 2
ENDMDL
MODEL 3
REMARK VINA RESULT:      -8.9      1.153      1.466
REMARK  Name = 
REMARK  3 active torsions:
REMARK  status: ('A' for Active; 'I' for Inactive)
REMARK    1  A    between atoms: C_1  and  C_2
REMARK    2  A    between atoms: C_3  and  C_4
REMARK    3  A    between atoms: C_11  and  C_12
REMARK                            x       y       z     vdW  Elec       q    Type
REMARK                         _______ _______ _______ _____ _____    ______ ____
ROOT
ATOM      1  C   UNL     1       2.554   6.641  18.720  0.00  0.00    +0.000 C 
ATOM      2  O   UNL     1       3.113   6.864  17.650  0.00  0.00    +0.000 OA
ATOM      3  N   UNL     1       2.479   5.369  19.261  0.00  0.00    +0.000 N 
ATOM      4  C   UNL     1       3.008   4.309  18.539  0.00  0.00    +0.000 A 
ATOM      5  N   UNL     1       2.310   3.187  18.363  0.00  0.00    +0.000 NA
ATOM      6  O   UNL     1       3.073   2.430  17.480  0.00  0.00    +0.000 OA
ATOM      7  N   UNL     1       4.292   3.037  17.211  0.00  0.00    +0.000 NA
ATOM      8  C   UNL     1       4.287   4.178  17.914  0.00  0.00    +0.000 A 
ATOM      9  H   UNL     1       1.678   5.165  19.842  0.00  0.00    +0.000 HD
ENDROOT
BRANCH   1  12
ATOM     10  C   UNL     1       1.878   9.687  17.824  0.00  0.00    +0.000 C 
ATOM     11  C   UNL     1       1.593   8.999  19.111  0.00  0.00    +0.000 A 
ATOM     12  C   UNL     1       1.871   7.684  19.466  0.00  0.00    +0.000 A 
ATOM     13  O   UNL     1       1.438   7.443  20.745  0.00  0.00    +0.000 OA
ATOM     14  C   UNL     1       0.915   8.611  21.223  0.00  0.00    +0.000 A 
ATOM     15  C   UNL     1       0.397   8.818  22.502  0.00  0.00    +0.000 A 
ATOM     16  C   UNL     1      -0.089  10.103  22.779  0.00  0.00    +0.000 A 
ATOM     17  C   UNL     1      -0.047  11.106  21.815  0.00  0.00    +0.000 A 
ATOM     18  F   UNL     1      -0.524  12.321  22.110  0.00  0.00    +0.000 F 
ATOM     19  C   UNL     1       0.485  10.880  20.544  0.00  0.00    +0.000 A 
ATOM     20  C   UNL     1       0.978   9.597  20.250  0.00  0.00    +0.000 A 
ENDBRANCH   1  12
BRANCH   8  21
ATOM     21  C   UNL     1       5.509   4.972  18.070  0.00  0.00    +0.000 A 
ATOM     22  C   UNL     1       6.207   4.999  19.290  0.00  0.00    +0.000 A 
ATOM     23  C   UNL     1       7.283   5.874  19.473  0.00  0.00    +0.000 A 
ATOM     24  C   UNL     1       7.666   6.720  18.439  0.00  0.00    +0.000 A 
ATOM     25  F   UNL     1       8.665   7.592  18.631  0.00  0.00    +0.000 F 
ATOM     26  C   UNL     1       7.010   6.692  17.217  0.00  0.00    +0.000 A 
ATOM     27  C   UNL     1       5.934   5.820  17.032  0.00  0.00    +0.000 A 
ENDBRANCH   8  21
TORSDOF 2
ENDMDL
MODEL 4
REMARK VINA RESULT:      -8.9      1.342      1.390
REMARK  Name = 
REMARK  3 active torsions:
REMARK  status: ('A' for Active; 'I' for Inactive)
REMARK    1  A    between atoms: C_1  and  C_2
REMARK    2  A    between atoms: C_3  and  C_4
REMARK    3  A    between atoms: C_11  and  C_12
REMARK                            x       y       z     vdW  Elec       q    Type
REMARK                         _______ _______ _______ _____ _____    ______ ____
ROOT
ATOM      1  C   UNL     1       2.298   7.230  18.728  0.00  0.00    +0.000 C 
ATOM      2  O   UNL     1       2.936   7.602  17.746  0.00  0.00    +0.000 OA
ATOM      3  N   UNL     1       2.163   5.893  19.054  0.00  0.00    +0.000 N 
ATOM      4  C   UNL     1       2.722   4.943  18.211  0.00  0.00    +0.000 A 
ATOM      5  N   UNL     1       2.018   3.883  17.814  0.00  0.00    +0.000 NA
ATOM      6  O   UNL     1       2.828   3.252  16.875  0.00  0.00    +0.000 OA
ATOM      7  N   UNL     1       4.073   3.857  16.787  0.00  0.00    +0.000 NA
ATOM      8  C   UNL     1       4.040   4.874  17.660  0.00  0.00    +0.000 A 
ATOM      9  H   UNL     1       1.319   5.623  19.541  0.00  0.00    +0.000 HD
ENDROOT
BRANCH   1  12
ATOM     10  C   UNL     1       1.454  10.309  18.136  0.00  0.00    +0.000 C 
ATOM     11  C   UNL     1       1.234   9.490  19.358  0.00  0.00    +0.000 A 
ATOM     12  C   UNL     1       1.584   8.163  19.582  0.00  0.00    +0.000 A 
ATOM     13  O   UNL     1       1.193   7.782  20.841  0.00  0.00    +0.000 OA
ATOM     14  C   UNL     1       0.626   8.872  21.437  0.00  0.00    +0.000 A 
ATOM     15  C   UNL     1       0.129   8.933  22.739  0.00  0.00    +0.000 A 
ATOM     16  C   UNL     1      -0.412  10.160  23.145  0.00  0.00    +0.000 A 
ATOM     17  C   UNL     1      -0.442  11.249  22.280  0.00  0.00    +0.000 A 
ATOM     18  F   UNL     1      -0.971  12.405  22.697  0.00  0.00    +0.000 F 
ATOM     19  C   UNL     1       0.070  11.170  20.983  0.00  0.00    +0.000 A 
ATOM     20  C   UNL     1       0.618   9.946  20.560  0.00  0.00    +0.000 A 
ENDBRANCH   1  12
BRANCH   8  21
ATOM     21  C   UNL     1       5.262   5.598  18.022  0.00  0.00    +0.000 A 
ATOM     22  C   UNL     1       5.810   6.570  17.168  0.00  0.00    +0.000 A 
ATOM     23  C   UNL     1       7.054   7.145  17.452  0.00  0.00    +0.000 A 
ATOM     24  C   UNL     1       7.749   6.754  18.590  0.00  0.00    +0.000 A 
ATOM     25  F   UNL     1       8.961   7.268  18.836  0.00  0.00    +0.000 F 
ATOM     26  C   UNL     1       7.216   5.815  19.462  0.00  0.00    +0.000 A 
ATOM     27  C   UNL     1       5.975   5.239  19.180  0.00  0.00    +0.000 A 
ENDBRANCH   8  21
TORSDOF 2
ENDMDL
MODEL 5
REMARK VINA RESULT:      -8.7      1.226      1.316
REMARK  Name = 
REMARK  3 active torsions:
REMARK  status: ('A' for Active; 'I' for Inactive)
REMARK    1  A    between atoms: C_1  and  C_2
REMARK    2  A    between atoms: C_3  and  C_4
REMARK    3  A    between atoms: C_11  and  C_12
REMARK                            x       y       z     vdW  Elec       q    Type
REMARK                         _______ _______ _______ _____ _____    ______ ____
ROOT
ATOM      1  C   UNL     1       2.271   6.008  19.487  0.00  0.00    +0.000 C 
ATOM      2  O   UNL     1       2.148   5.523  18.366  0.00  0.00    +0.000 OA
ATOM      3  N   UNL     1       2.875   5.319  20.524  0.00  0.00    +0.000 N 
ATOM      4  C   UNL     1       3.304   4.020  20.297  0.00  0.00    +0.000 A 
ATOM      5  N   UNL     1       3.008   3.043  21.155  0.00  0.00    +0.000 NA
ATOM      6  O   UNL     1       3.455   1.881  20.536  0.00  0.00    +0.000 OA
ATOM      7  N   UNL     1       4.130   2.158  19.356  0.00  0.00    +0.000 NA
ATOM      8  C   UNL     1       4.096   3.492  19.230  0.00  0.00    +0.000 A 
ATOM      9  H   UNL     1       2.562   5.535  21.461  0.00  0.00    +0.000 HD
ENDROOT
BRANCH   1  12
ATOM     10  C   UNL     1       2.267   8.737  17.729  0.00  0.00    +0.000 C 
ATOM     11  C   UNL     1       1.743   8.499  19.099  0.00  0.00    +0.000 A 
ATOM     12  C   UNL     1       1.734   7.314  19.826  0.00  0.00    +0.000 A 
ATOM     13  O   UNL     1       1.148   7.520  21.050  0.00  0.00    +0.000 OA
ATOM     14  C   UNL     1       0.815   8.843  21.123  0.00  0.00    +0.000 A 
ATOM     15  C   UNL     1       0.232   9.486  22.215  0.00  0.00    +0.000 A 
ATOM     16  C   UNL     1      -0.025  10.855  22.070  0.00  0.00    +0.000 A 
ATOM     17  C   UNL     1       0.293  11.521  20.890  0.00  0.00    +0.000 A 
ATOM     18  F   UNL     1       0.029  12.829  20.782  0.00  0.00    +0.000 F 
ATOM     19  C   UNL     1       0.886  10.861  19.811  0.00  0.00    +0.000 A 
ATOM     20  C   UNL     1       1.152   9.486  19.941  0.00  0.00    +0.000 A 
ENDBRANCH   1  12
BRANCH   8  21
ATOM     21  C   UNL     1       4.916   4.176  18.226  0.00  0.00    +0.000 A 
ATOM     22  C   UNL     1       4.727   3.944  16.853  0.00  0.00    +0.000 A 
ATOM     23  C   UNL     1       5.612   4.484  15.913  0.00  0.00    +0.000 A 
ATOM     24  C   UNL     1       6.683   5.259  16.341  0.00  0.00    +0.000 A 
ATOM     25  F   UNL     1       7.557   5.736  15.445  0.00  0.00    +0.000 F 
ATOM     26  C   UNL     1       6.874   5.524  17.690  0.00  0.00    +0.000 A 
ATOM     27  C   UNL     1       5.993   4.985  18.631  0.00  0.00    +0.000 A 
ENDBRANCH   8  21
TORSDOF 2
ENDMDL
MODEL 6
REMARK VINA RESULT:      -8.6      3.463      7.826
REMARK  Name = 
REMARK  3 active torsions:
REMARK  status: ('A' for Active; 'I' for Inactive)
REMARK    1  A    between atoms: C_1  and  C_2
REMARK    2  A    between atoms: C_3  and  C_4
REMARK    3  A    between atoms: C_11  and  C_12
REMARK                            x       y       z     vdW  Elec       q    Type
REMARK                         _______ _______ _______ _____ _____    ______ ____
ROOT
ATOM      1  C   UNL     1       1.331   8.517  20.438  0.00  0.00    +0.000 C 
ATOM      2  O   UNL     1       1.744   9.543  19.905  0.00  0.00    +0.000 OA
ATOM      3  N   UNL     1       0.389   8.542  21.452  0.00  0.00    +0.000 N 
ATOM      4  C   UNL     1      -0.059   9.771  21.912  0.00  0.00    +0.000 A 
ATOM      5  N   UNL     1      -0.115  10.032  23.219  0.00  0.00    +0.000 NA
ATOM      6  O   UNL     1      -0.451  11.380  23.297  0.00  0.00    +0.000 OA
ATOM      7  N   UNL     1      -0.716  11.913  22.043  0.00  0.00    +0.000 NA
ATOM      8  C   UNL     1      -0.535  10.903  21.180  0.00  0.00    +0.000 A 
ATOM      9  H   UNL     1       0.424   7.792  22.128  0.00  0.00    +0.000 HD
ENDROOT
BRANCH   1  12
ATOM     10  C   UNL     1       3.066   7.625  17.844  0.00  0.00    +0.000 C 
ATOM     11  C   UNL     1       2.571   6.798  18.976  0.00  0.00    +0.000 A 
ATOM     12  C   UNL     1       1.848   7.205  20.091  0.00  0.00    +0.000 A 
ATOM     13  O   UNL     1       1.596   6.129  20.904  0.00  0.00    +0.000 OA
ATOM     14  C   UNL     1       2.125   5.027  20.294  0.00  0.00    +0.000 A 
ATOM     15  C   UNL     1       2.058   3.715  20.764  0.00  0.00    +0.000 A 
ATOM     16  C   UNL     1       2.673   2.736  19.973  0.00  0.00    +0.000 A 
ATOM     17  C   UNL     1       3.312   3.075  18.784  0.00  0.00    +0.000 A 
ATOM     18  F   UNL     1       3.895   2.117  18.054  0.00  0.00    +0.000 F 
ATOM     19  C   UNL     1       3.360   4.394  18.327  0.00  0.00    +0.000 A 
ATOM     20  C   UNL     1       2.746   5.389  19.108  0.00  0.00    +0.000 A 
ENDBRANCH   1  12
BRANCH   8  21
ATOM     21  C   UNL     1      -0.958  11.023  19.781  0.00  0.00    +0.000 A 
ATOM     22  C   UNL     1      -0.767  12.216  19.064  0.00  0.00    +0.000 A 
ATOM     23  C   UNL     1      -1.308  12.368  17.783  0.00  0.00    +0.000 A 
ATOM     24  C   UNL     1      -2.035  11.329  17.214  0.00  0.00    +0.000 A 
ATOM     25  F   UNL     1      -2.593  11.493  16.008  0.00  0.00    +0.000 F 
ATOM     26  C   UNL     1      -2.214  10.132  17.892  0.00  0.00    +0.000 A 
ATOM     27  C   UNL     1      -1.676   9.977  19.173  0.00  0.00    +0.000 A 
ENDBRANCH   8  21
TORSDOF 2
ENDMDL
MODEL 7
REMARK VINA RESULT:      -8.5      2.907      3.824
REMARK  Name = 
REMARK  3 active torsions:
REMARK  status: ('A' for Active; 'I' for Inactive)
REMARK    1  A    between atoms: C_1  and  C_2
REMARK    2  A    between atoms: C_3  and  C_4
REMARK    3  A    between atoms: C_11  and  C_12
REMARK                            x       y       z     vdW  Elec       q    Type
REMARK                         _______ _______ _______ _____ _____    ______ ____
ROOT
ATOM      1  C   UNL     1       2.928   7.139  19.079  0.00  0.00    +0.000 C 
ATOM      2  O   UNL     1       3.559   6.307  19.725  0.00  0.00    +0.000 OA
ATOM      3  N   UNL     1       3.120   7.315  17.720  0.00  0.00    +0.000 N 
ATOM      4  C   UNL     1       4.095   6.561  17.084  0.00  0.00    +0.000 A 
ATOM      5  N   UNL     1       4.976   7.135  16.264  0.00  0.00    +0.000 NA
ATOM      6  O   UNL     1       5.875   6.123  15.945  0.00  0.00    +0.000 OA
ATOM      7  N   UNL     1       5.477   4.903  16.472  0.00  0.00    +0.000 NA
ATOM      8  C   UNL     1       4.337   5.153  17.131  0.00  0.00    +0.000 A 
ATOM      9  H   UNL     1       2.951   8.240  17.349  0.00  0.00    +0.000 HD
ENDROOT
BRANCH   1  12
ATOM     10  C   UNL     1       1.521   9.794  17.849  0.00  0.00    +0.000 C 
ATOM     11  C   UNL     1       1.387   9.199  19.205  0.00  0.00    +0.000 A 
ATOM     12  C   UNL     1       1.982   8.046  19.704  0.00  0.00    +0.000 A 
ATOM     13  O   UNL     1       1.590   7.842  21.003  0.00  0.00    +0.000 OA
ATOM     14  C   UNL     1       0.773   8.882  21.349  0.00  0.00    +0.000 A 
ATOM     15  C   UNL     1       0.185   9.086  22.597  0.00  0.00    +0.000 A 
ATOM     16  C   UNL     1      -0.621  10.225  22.729  0.00  0.00    +0.000 A 
ATOM     17  C   UNL     1      -0.810  11.094  21.660  0.00  0.00    +0.000 A 
ATOM     18  F   UNL     1      -1.590  12.170  21.817  0.00  0.00    +0.000 F 
ATOM     19  C   UNL     1      -0.204  10.877  20.420  0.00  0.00    +0.000 A 
ATOM     20  C   UNL     1       0.609   9.739  20.271  0.00  0.00    +0.000 A 
ENDBRANCH   1  12
BRANCH   8  21
ATOM     21  C   UNL     1       3.492   4.058  17.618  0.00  0.00    +0.000 A 
ATOM     22  C   UNL     1       2.092   4.120  17.516  0.00  0.00    +0.000 A 
ATOM     23  C   UNL     1       1.292   3.143  18.117  0.00  0.00    +0.000 A 
ATOM     24  C   UNL     1       1.887   2.100  18.818  0.00  0.00    +0.000 A 
ATOM     25  F   UNL     1       1.121   1.191  19.434  0.00  0.00    +0.000 F 
ATOM     26  C   UNL     1       3.269   2.003  18.909  0.00  0.00    +0.000 A 
ATOM     27  C   UNL     1       4.070   2.979  18.311  0.00  0.00    +0.000 A 
ENDBRANCH   8  21
TORSDOF 2
ENDMDL
MODEL 8
REMARK VINA RESULT:      -8.5      3.485      7.835
REMARK  Name = 
REMARK  3 active torsions:
REMARK  status: ('A' for Active; 'I' for Inactive)
REMARK    1  A    between atoms: C_1  and  C_2
REMARK    2  A    between atoms: C_3  and  C_4
REMARK    3  A    between atoms: C_11  and  C_12
REMARK                            x       y       z     vdW  Elec       q    Type
REMARK                         _______ _______ _______ _____ _____    ______ ____
ROOT
ATOM      1  C   UNL     1       1.202   8.849  20.346  0.00  0.00    +0.000 C 
ATOM      2  O   UNL     1       1.514   9.888  19.771  0.00  0.00    +0.000 OA
ATOM      3  N   UNL     1       0.325   8.835  21.416  0.00  0.00    +0.000 N 
ATOM      4  C   UNL     1      -0.172  10.043  21.883  0.00  0.00    +0.000 A 
ATOM      5  N   UNL     1      -0.165  10.327  23.185  0.00  0.00    +0.000 NA
ATOM      6  O   UNL     1      -0.582  11.652  23.261  0.00  0.00    +0.000 OA
ATOM      7  N   UNL     1      -0.957  12.140  22.018  0.00  0.00    +0.000 NA
ATOM      8  C   UNL     1      -0.765  11.126  21.162  0.00  0.00    +0.000 A 
ATOM      9  H   UNL     1       0.450   8.103  22.102  0.00  0.00    +0.000 HD
ENDROOT
BRANCH   1  12
ATOM     10  C   UNL     1       2.845   8.020  17.672  0.00  0.00    +0.000 C 
ATOM     11  C   UNL     1       2.466   7.184  18.841  0.00  0.00    +0.000 A 
ATOM     12  C   UNL     1       1.781   7.565  19.989  0.00  0.00    +0.000 A 
ATOM     13  O   UNL     1       1.642   6.490  20.831  0.00  0.00    +0.000 OA
ATOM     14  C   UNL     1       2.205   5.413  20.208  0.00  0.00    +0.000 A 
ATOM     15  C   UNL     1       2.246   4.107  20.700  0.00  0.00    +0.000 A 
ATOM     16  C   UNL     1       2.877   3.154  19.890  0.00  0.00    +0.000 A 
ATOM     17  C   UNL     1       3.428   3.511  18.662  0.00  0.00    +0.000 A 
ATOM     18  F   UNL     1       4.029   2.578  17.915  0.00  0.00    +0.000 F 
ATOM     19  C   UNL     1       3.368   4.822  18.184  0.00  0.00    +0.000 A 
ATOM     20  C   UNL     1       2.736   5.791  18.984  0.00  0.00    +0.000 A 
ENDBRANCH   1  12
BRANCH   8  21
ATOM     21  C   UNL     1      -1.280  11.189  19.791  0.00  0.00    +0.000 A 
ATOM     22  C   UNL     1      -1.952  10.097  19.218  0.00  0.00    +0.000 A 
ATOM     23  C   UNL     1      -2.306  10.112  17.864  0.00  0.00    +0.000 A 
ATOM     24  C   UNL     1      -1.992  11.218  17.083  0.00  0.00    +0.000 A 
ATOM     25  F   UNL     1      -2.287  11.212  15.776  0.00  0.00    +0.000 F 
ATOM     26  C   UNL     1      -1.353  12.319  17.633  0.00  0.00    +0.000 A 
ATOM     27  C   UNL     1      -0.998  12.306  18.985  0.00  0.00    +0.000 A 
ENDBRANCH   8  21
TORSDOF 2
ENDMDL
MODEL 9
REMARK VINA RESULT:      -8.4      1.721      2.538
REMARK  Name = 
REMARK  3 active torsions:
REMARK  status: ('A' for Active; 'I' for Inactive)
REMARK    1  A    between atoms: C_1  and  C_2
REMARK    2  A    between atoms: C_3  and  C_4
REMARK    3  A    between atoms: C_11  and  C_12
REMARK                            x       y       z     vdW  Elec       q    Type
REMARK                         _______ _______ _______ _____ _____    ______ ____
ROOT
ATOM      1  C   UNL     1       2.195   6.642  19.284  0.00  0.00    +0.000 C 
ATOM      2  O   UNL     1       2.037   6.001  18.249  0.00  0.00    +0.000 OA
ATOM      3  N   UNL     1       2.591   6.045  20.467  0.00  0.00    +0.000 N 
ATOM      4  C   UNL     1       2.760   4.668  20.491  0.00  0.00    +0.000 A 
ATOM      5  N   UNL     1       2.227   3.932  21.466  0.00  0.00    +0.000 NA
ATOM      6  O   UNL     1       2.462   2.615  21.085  0.00  0.00    +0.000 OA
ATOM      7  N   UNL     1       3.242   2.548  19.939  0.00  0.00    +0.000 NA
ATOM      8  C   UNL     1       3.485   3.821  19.596  0.00  0.00    +0.000 A 
ATOM      9  H   UNL     1       2.277   6.477  21.326  0.00  0.00    +0.000 HD
ENDROOT
BRANCH   1  12
ATOM     10  C   UNL     1       0.414   8.264  21.461  0.00  0.00    +0.000 C 
ATOM     11  C   UNL     1       1.138   8.776  20.267  0.00  0.00    +0.000 A 
ATOM     12  C   UNL     1       1.915   8.066  19.359  0.00  0.00    +0.000 A 
ATOM     13  O   UNL     1       2.414   8.916  18.404  0.00  0.00    +0.000 OA
ATOM     14  C   UNL     1       1.928  10.163  18.679  0.00  0.00    +0.000 A 
ATOM     15  C   UNL     1       2.157  11.318  17.930  0.00  0.00    +0.000 A 
ATOM     16  C   UNL     1       1.557  12.495  18.398  0.00  0.00    +0.000 A 
ATOM     17  C   UNL     1       0.776  12.490  19.550  0.00  0.00    +0.000 A 
ATOM     18  F   UNL     1       0.222  13.632  19.972  0.00  0.00    +0.000 F 
ATOM     19  C   UNL     1       0.551  11.320  20.279  0.00  0.00    +0.000 A 
ATOM     20  C   UNL     1       1.145  10.130  19.823  0.00  0.00    +0.000 A 
ENDBRANCH   1  12
BRANCH   8  21
ATOM     21  C   UNL     1       4.480   4.149  18.571  0.00  0.00    +0.000 A 
ATOM     22  C   UNL     1       4.316   3.730  17.240  0.00  0.00    +0.000 A 
ATOM     23  C   UNL     1       5.340   3.918  16.305  0.00  0.00    +0.000 A 
ATOM     24  C   UNL     1       6.526   4.527  16.696  0.00  0.00    +0.000 A 
ATOM     25  F   UNL     1       7.524   4.664  15.814  0.00  0.00    +0.000 F 
ATOM     26  C   UNL     1       6.700   4.974  17.999  0.00  0.00    +0.000 A 
ATOM     27  C   UNL     1       5.680   4.786  18.935  0.00  0.00    +0.000 A 
ENDBRANCH   8  21
TORSDOF 2
ENDMDL
