MODEL 1
REMARK VINA RESULT:      -6.1      0.000      0.000
REMARK  Name = 
REMARK  5 active torsions:
REMARK  status: ('A' for Active; 'I' for Inactive)
REMARK    1  A    between atoms: C_1  and  S_2
REMARK    2  A    between atoms: S_2  and  C_3
REMARK    3  A    between atoms: C_8  and  N_9
REMARK    4  A    between atoms: N_9  and  C_10
REMARK    5  A    between atoms: C_10  and  C_11
REMARK                            x       y       z     vdW  Elec       q    Type
REMARK                         _______ _______ _______ _____ _____    ______ ____
ROOT
ATOM      1  N   UNL     1       5.999   4.099  18.256  0.00  0.00    +0.000 N 
ATOM      2  H   UNL     1       6.173   3.264  18.837  0.00  0.00    +0.000 HD
ENDROOT
BRANCH   1   8
ATOM      3  C   UNL     1       3.619   4.286  19.131  0.00  0.00    +0.000 A 
ATOM      4  C   UNL     1       2.455   5.068  19.204  0.00  0.00    +0.000 A 
ATOM      5  C   UNL     1       2.395   6.329  18.611  0.00  0.00    +0.000 A 
ATOM      6  C   UNL     1       3.507   6.841  17.951  0.00  0.00    +0.000 A 
ATOM      7  C   UNL     1       4.680   6.093  17.877  0.00  0.00    +0.000 A 
ATOM      8  C   UNL     1       4.764   4.801  18.437  0.00  0.00    +0.000 A 
BRANCH   3  10
ATOM      9  C   UNL     1       1.986   2.081  19.172  0.00  0.00    +0.000 C 
ATOM     10  S   UNL     1       3.528   2.666  19.942  0.00  0.00    +0.000 S 
ENDBRANCH   3  10
ENDBRANCH   1   8
BRANCH   1  11
ATOM     11  C   UNL     1       7.150   4.609  17.536  0.00  0.00    +0.000 C 
BRANCH  11  12
ATOM     12  C   UNL     1       6.978   4.520  16.046  0.00  0.00    +0.000 C 
ATOM     13  N   UNL     1       6.171   3.686  15.517  0.00  0.00    +0.000 NA
ATOM     14  C   UNL     1       6.213   3.787  14.073  0.00  0.00    +0.000 C 
ATOM     15  C   UNL     1       7.128   4.991  13.799  0.00  0.00    +0.000 C 
ATOM     16  N   UNL     1       7.643   5.315  15.100  0.00  0.00    +0.000 N 
ATOM     17  H   UNL     1       8.303   6.079  15.303  0.00  0.00    +0.000 HD
ENDBRANCH  11  12
ENDBRANCH   1  11
TORSDOF 4
ENDMDL
MODEL 2
REMARK VINA RESULT:      -6.0      1.060      1.077
REMARK  Name = 
REMARK  5 active torsions:
REMARK  status: ('A' for Active; 'I' for Inactive)
REMARK    1  A    between atoms: C_1  and  S_2
REMARK    2  A    between atoms: S_2  and  C_3
REMARK    3  A    between atoms: C_8  and  N_9
REMARK    4  A    between atoms: N_9  and  C_10
REMARK    5  A    between atoms: C_10  and  C_11
REMARK                            x       y       z     vdW  Elec       q    Type
REMARK                         _______ _______ _______ _____ _____    ______ ____
ROOT
ATOM      1  N   UNL     1       5.777   4.051  17.176  0.00  0.00    +0.000 N 
ATOM      2  H   UNL     1       5.876   3.067  17.471  0.00  0.00    +0.000 HD
ENDROOT
BRANCH   1   8
ATOM      3  C   UNL     1       3.437   4.171  18.162  0.00  0.00    +0.000 A 
ATOM      4  C   UNL     1       2.351   4.991  18.508  0.00  0.00    +0.000 A 
ATOM      5  C   UNL     1       2.399   6.371  18.313  0.00  0.00    +0.000 A 
ATOM      6  C   UNL     1       3.544   6.961  17.788  0.00  0.00    +0.000 A 
ATOM      7  C   UNL     1       4.643   6.171  17.451  0.00  0.00    +0.000 A 
ATOM      8  C   UNL     1       4.615   4.770  17.605  0.00  0.00    +0.000 A 
BRANCH   3  10
ATOM      9  C   UNL     1       4.222   2.264  19.973  0.00  0.00    +0.000 C 
ATOM     10  S   UNL     1       3.207   2.397  18.467  0.00  0.00    +0.000 S 
ENDBRANCH   3  10
ENDBRANCH   1   8
BRANCH   1  11
ATOM     11  C   UNL     1       6.966   4.654  16.605  0.00  0.00    +0.000 C 
BRANCH  11  12
ATOM     12  C   UNL     1       6.984   4.573  15.106  0.00  0.00    +0.000 C 
ATOM     13  N   UNL     1       6.244   3.750  14.473  0.00  0.00    +0.000 NA
ATOM     14  C   UNL     1       6.470   3.855  13.047  0.00  0.00    +0.000 C 
ATOM     15  C   UNL     1       7.425   5.051  12.898  0.00  0.00    +0.000 C 
ATOM     16  N   UNL     1       7.773   5.365  14.256  0.00  0.00    +0.000 N 
ATOM     17  H   UNL     1       8.409   6.121  14.546  0.00  0.00    +0.000 HD
ENDBRANCH  11  12
ENDBRANCH   1  11
TORSDOF 4
ENDMDL
MODEL 3
REMARK VINA RESULT:      -6.0      2.826      5.753
REMARK  Name = 
REMARK  5 active torsions:
REMARK  status: ('A' for Active; 'I' for Inactive)
REMARK    1  A    between atoms: C_1  and  S_2
REMARK    2  A    between atoms: S_2  and  C_3
REMARK    3  A    between atoms: C_8  and  N_9
REMARK    4  A    between atoms: N_9  and  C_10
REMARK    5  A    between atoms: C_10  and  C_11
REMARK                            x       y       z     vdW  Elec       q    Type
REMARK                         _______ _______ _______ _____ _____    ______ ____
ROOT
ATOM      1  N   UNL     1       5.206   3.774  19.210  0.00  0.00    +0.000 N 
ATOM      2  H   UNL     1       5.651   4.193  20.042  0.00  0.00    +0.000 HD
ENDROOT
BRANCH   1   8
ATOM      3  C   UNL     1       6.663   5.186  17.678  0.00  0.00    +0.000 A 
ATOM      4  C   UNL     1       6.913   5.613  16.364  0.00  0.00    +0.000 A 
ATOM      5  C   UNL     1       6.136   5.159  15.298  0.00  0.00    +0.000 A 
ATOM      6  C   UNL     1       5.107   4.250  15.524  0.00  0.00    +0.000 A 
ATOM      7  C   UNL     1       4.848   3.798  16.817  0.00  0.00    +0.000 A 
ATOM      8  C   UNL     1       5.593   4.263  17.921  0.00  0.00    +0.000 A 
BRANCH   3  10
ATOM      9  C   UNL     1       8.015   7.518  18.194  0.00  0.00    +0.000 C 
ATOM     10  S   UNL     1       7.754   5.882  18.949  0.00  0.00    +0.000 S 
ENDBRANCH   3  10
ENDBRANCH   1   8
BRANCH   1  11
ATOM     11  C   UNL     1       4.460   2.554  19.450  0.00  0.00    +0.000 C 
BRANCH  11  12
ATOM     12  C   UNL     1       3.099   2.821  20.026  0.00  0.00    +0.000 C 
ATOM     13  N   UNL     1       2.844   2.612  21.258  0.00  0.00    +0.000 NA
ATOM     14  C   UNL     1       1.460   2.923  21.549  0.00  0.00    +0.000 C 
ATOM     15  C   UNL     1       0.920   3.529  20.244  0.00  0.00    +0.000 C 
ATOM     16  N   UNL     1       1.996   3.322  19.316  0.00  0.00    +0.000 N 
ATOM     17  H   UNL     1       1.987   3.602  18.325  0.00  0.00    +0.000 HD
ENDBRANCH  11  12
ENDBRANCH   1  11
TORSDOF 4
ENDMDL
MODEL 4
REMARK VINA RESULT:      -6.0      1.340      1.771
REMARK  Name = 
REMARK  5 active torsions:
REMARK  status: ('A' for Active; 'I' for Inactive)
REMARK    1  A    between atoms: C_1  and  S_2
REMARK    2  A    between atoms: S_2  and  C_3
REMARK    3  A    between atoms: C_8  and  N_9
REMARK    4  A    between atoms: N_9  and  C_10
REMARK    5  A    between atoms: C_10  and  C_11
REMARK                            x       y       z     vdW  Elec       q    Type
REMARK                         _______ _______ _______ _____ _____    ______ ____
ROOT
ATOM      1  N   UNL     1       5.366   4.215  16.421  0.00  0.00    +0.000 N 
ATOM      2  H   UNL     1       5.242   3.190  16.405  0.00  0.00    +0.000 HD
ENDROOT
BRANCH   1   8
ATOM      3  C   UNL     1       3.171   4.487  17.675  0.00  0.00    +0.000 A 
ATOM      4  C   UNL     1       2.254   5.380  18.253  0.00  0.00    +0.000 A 
ATOM      5  C   UNL     1       2.485   6.756  18.246  0.00  0.00    +0.000 A 
ATOM      6  C   UNL     1       3.650   7.263  17.680  0.00  0.00    +0.000 A 
ATOM      7  C   UNL     1       4.584   6.398  17.114  0.00  0.00    +0.000 A 
ATOM      8  C   UNL     1       4.367   5.005  17.075  0.00  0.00    +0.000 A 
BRANCH   3  10
ATOM      9  C   UNL     1       3.435   2.357  19.384  0.00  0.00    +0.000 C 
ATOM     10  S   UNL     1       2.715   2.734  17.756  0.00  0.00    +0.000 S 
ENDBRANCH   3  10
ENDBRANCH   1   8
BRANCH   1  11
ATOM     11  C   UNL     1       6.678   4.690  16.026  0.00  0.00    +0.000 C 
BRANCH  11  12
ATOM     12  C   UNL     1       6.897   4.595  14.543  0.00  0.00    +0.000 C 
ATOM     13  N   UNL     1       7.666   5.406  13.930  0.00  0.00    +0.000 NA
ATOM     14  C   UNL     1       7.684   5.114  12.512  0.00  0.00    +0.000 C 
ATOM     15  C   UNL     1       6.860   3.824  12.375  0.00  0.00    +0.000 C 
ATOM     16  N   UNL     1       6.321   3.638  13.693  0.00  0.00    +0.000 N 
ATOM     17  H   UNL     1       5.706   2.862  13.979  0.00  0.00    +0.000 HD
ENDBRANCH  11  12
ENDBRANCH   1  11
TORSDOF 4
ENDMDL
MODEL 5
REMARK VINA RESULT:      -6.0      2.374      5.254
REMARK  Name = 
REMARK  5 active torsions:
REMARK  status: ('A' for Active; 'I' for Inactive)
REMARK    1  A    between atoms: C_1  and  S_2
REMARK    2  A    between atoms: S_2  and  C_3
REMARK    3  A    between atoms: C_8  and  N_9
REMARK    4  A    between atoms: N_9  and  C_10
REMARK    5  A    between atoms: C_10  and  C_11
REMARK                            x       y       z     vdW  Elec       q    Type
REMARK                         _______ _______ _______ _____ _____    ______ ____
ROOT
ATOM      1  N   UNL     1       4.638   2.765  17.865  0.00  0.00    +0.000 N 
ATOM      2  H   UNL     1       5.448   2.209  18.182  0.00  0.00    +0.000 HD
ENDROOT
BRANCH   1   8
ATOM      3  C   UNL     1       4.691   5.290  17.571  0.00  0.00    +0.000 A 
ATOM      4  C   UNL     1       4.945   6.364  16.703  0.00  0.00    +0.000 A 
ATOM      5  C   UNL     1       5.378   6.147  15.395  0.00  0.00    +0.000 A 
ATOM      6  C   UNL     1       5.589   4.850  14.938  0.00  0.00    +0.000 A 
ATOM      7  C   UNL     1       5.361   3.767  15.785  0.00  0.00    +0.000 A 
ATOM      8  C   UNL     1       4.891   3.950  17.101  0.00  0.00    +0.000 A 
BRANCH   3  10
ATOM      9  C   UNL     1       2.375   6.059  18.825  0.00  0.00    +0.000 C 
ATOM     10  S   UNL     1       4.120   5.743  19.232  0.00  0.00    +0.000 S 
ENDBRANCH   3  10
ENDBRANCH   1   8
BRANCH   1  11
ATOM     11  C   UNL     1       3.347   2.118  17.997  0.00  0.00    +0.000 C 
BRANCH  11  12
ATOM     12  C   UNL     1       2.702   2.394  19.325  0.00  0.00    +0.000 C 
ATOM     13  N   UNL     1       3.388   2.477  20.396  0.00  0.00    +0.000 NA
ATOM     14  C   UNL     1       2.527   2.724  21.533  0.00  0.00    +0.000 C 
ATOM     15  C   UNL     1       1.133   2.932  20.921  0.00  0.00    +0.000 C 
ATOM     16  N   UNL     1       1.329   2.599  19.538  0.00  0.00    +0.000 N 
ATOM     17  H   UNL     1       0.598   2.620  18.813  0.00  0.00    +0.000 HD
ENDBRANCH  11  12
ENDBRANCH   1  11
TORSDOF 4
ENDMDL
MODEL 6
REMARK VINA RESULT:      -6.0      1.947      3.463
REMARK  Name = 
REMARK  5 active torsions:
REMARK  status: ('A' for Active; 'I' for Inactive)
REMARK    1  A    between atoms: C_1  and  S_2
REMARK    2  A    between atoms: S_2  and  C_3
REMARK    3  A    between atoms: C_8  and  N_9
REMARK    4  A    between atoms: N_9  and  C_10
REMARK    5  A    between atoms: C_10  and  C_11
REMARK                            x       y       z     vdW  Elec       q    Type
REMARK                         _______ _______ _______ _____ _____    ______ ____
ROOT
ATOM      1  N   UNL     1       4.386   2.954  17.760  0.00  0.00    +0.000 N 
ATOM      2  H   UNL     1       5.083   2.342  18.213  0.00  0.00    +0.000 HD
ENDROOT
BRANCH   1   8
ATOM      3  C   UNL     1       2.710   4.202  19.209  0.00  0.00    +0.000 A 
ATOM      4  C   UNL     1       1.433   4.197  19.793  0.00  0.00    +0.000 A 
ATOM      5  C   UNL     1       0.551   3.135  19.590  0.00  0.00    +0.000 A 
ATOM      6  C   UNL     1       0.922   2.068  18.779  0.00  0.00    +0.000 A 
ATOM      7  C   UNL     1       2.178   2.055  18.174  0.00  0.00    +0.000 A 
ATOM      8  C   UNL     1       3.105   3.096  18.385  0.00  0.00    +0.000 A 
BRANCH   3  10
ATOM      9  C   UNL     1       3.021   6.793  18.362  0.00  0.00    +0.000 C 
ATOM     10  S   UNL     1       3.737   5.649  19.583  0.00  0.00    +0.000 S 
ENDBRANCH   3  10
ENDBRANCH   1   8
BRANCH   1  11
ATOM     11  C   UNL     1       4.897   3.808  16.705  0.00  0.00    +0.000 C 
BRANCH  11  12
ATOM     12  C   UNL     1       6.004   4.704  17.180  0.00  0.00    +0.000 C 
ATOM     13  N   UNL     1       6.163   5.876  16.704  0.00  0.00    +0.000 NA
ATOM     14  C   UNL     1       7.311   6.518  17.310  0.00  0.00    +0.000 C 
ATOM     15  C   UNL     1       7.765   5.539  18.404  0.00  0.00    +0.000 C 
ATOM     16  N   UNL     1       6.946   4.382  18.170  0.00  0.00    +0.000 N 
ATOM     17  H   UNL     1       6.978   3.511  18.718  0.00  0.00    +0.000 HD
ENDBRANCH  11  12
ENDBRANCH   1  11
TORSDOF 4
ENDMDL
MODEL 7
REMARK VINA RESULT:      -6.0      1.729      2.892
REMARK  Name = 
REMARK  5 active torsions:
REMARK  status: ('A' for Active; 'I' for Inactive)
REMARK    1  A    between atoms: C_1  and  S_2
REMARK    2  A    between atoms: S_2  and  C_3
REMARK    3  A    between atoms: C_8  and  N_9
REMARK    4  A    between atoms: N_9  and  C_10
REMARK    5  A    between atoms: C_10  and  C_11
REMARK                            x       y       z     vdW  Elec       q    Type
REMARK                         _______ _______ _______ _____ _____    ______ ____
ROOT
ATOM      1  N   UNL     1       5.043   3.305  18.819  0.00  0.00    +0.000 N 
ATOM      2  H   UNL     1       5.464   2.372  18.686  0.00  0.00    +0.000 HD
ENDROOT
BRANCH   1   8
ATOM      3  C   UNL     1       2.791   4.345  19.379  0.00  0.00    +0.000 A 
ATOM      4  C   UNL     1       1.686   4.352  20.244  0.00  0.00    +0.000 A 
ATOM      5  C   UNL     1       1.602   3.461  21.315  0.00  0.00    +0.000 A 
ATOM      6  C   UNL     1       2.614   2.530  21.526  0.00  0.00    +0.000 A 
ATOM      7  C   UNL     1       3.715   2.491  20.671  0.00  0.00    +0.000 A 
ATOM      8  C   UNL     1       3.846   3.399  19.600  0.00  0.00    +0.000 A 
BRANCH   3  10
ATOM      9  C   UNL     1       2.501   7.057  19.076  0.00  0.00    +0.000 C 
ATOM     10  S   UNL     1       2.751   5.576  18.047  0.00  0.00    +0.000 S 
ENDBRANCH   3  10
ENDBRANCH   1   8
BRANCH   1  11
ATOM     11  C   UNL     1       5.877   4.427  18.435  0.00  0.00    +0.000 C 
BRANCH  11  12
ATOM     12  C   UNL     1       6.194   4.427  16.967  0.00  0.00    +0.000 C 
ATOM     13  N   UNL     1       5.397   3.917  16.113  0.00  0.00    +0.000 NA
ATOM     14  C   UNL     1       5.948   4.024  14.778  0.00  0.00    +0.000 C 
ATOM     15  C   UNL     1       7.224   4.861  14.955  0.00  0.00    +0.000 C 
ATOM     16  N   UNL     1       7.348   4.973  16.382  0.00  0.00    +0.000 N 
ATOM     17  H   UNL     1       8.102   5.472  16.875  0.00  0.00    +0.000 HD
ENDBRANCH  11  12
ENDBRANCH   1  11
TORSDOF 4
ENDMDL
MODEL 8
REMARK VINA RESULT:      -6.0      2.373      5.250
REMARK  Name = 
REMARK  5 active torsions:
REMARK  status: ('A' for Active; 'I' for Inactive)
REMARK    1  A    between atoms: C_1  and  S_2
REMARK    2  A    between atoms: S_2  and  C_3
REMARK    3  A    between atoms: C_8  and  N_9
REMARK    4  A    between atoms: N_9  and  C_10
REMARK    5  A    between atoms: C_10  and  C_11
REMARK                            x       y       z     vdW  Elec       q    Type
REMARK                         _______ _______ _______ _____ _____    ______ ____
ROOT
ATOM      1  N   UNL     1       4.702   2.900  18.076  0.00  0.00    +0.000 N 
ATOM      2  H   UNL     1       5.536   2.472  18.509  0.00  0.00    +0.000 HD
ENDROOT
BRANCH   1   8
ATOM      3  C   UNL     1       4.483   5.391  17.615  0.00  0.00    +0.000 A 
ATOM      4  C   UNL     1       4.693   6.438  16.703  0.00  0.00    +0.000 A 
ATOM      5  C   UNL     1       5.282   6.204  15.461  0.00  0.00    +0.000 A 
ATOM      6  C   UNL     1       5.693   4.920  15.116  0.00  0.00    +0.000 A 
ATOM      7  C   UNL     1       5.510   3.866  16.009  0.00  0.00    +0.000 A 
ATOM      8  C   UNL     1       4.888   4.062  17.259  0.00  0.00    +0.000 A 
BRANCH   3  10
ATOM      9  C   UNL     1       2.618   7.181  18.536  0.00  0.00    +0.000 C 
ATOM     10  S   UNL     1       3.694   5.862  19.180  0.00  0.00    +0.000 S 
ENDBRANCH   3  10
ENDBRANCH   1   8
BRANCH   1  11
ATOM     11  C   UNL     1       3.494   2.101  18.124  0.00  0.00    +0.000 C 
BRANCH  11  12
ATOM     12  C   UNL     1       2.583   2.508  19.246  0.00  0.00    +0.000 C 
ATOM     13  N   UNL     1       1.379   2.867  19.031  0.00  0.00    +0.000 NA
ATOM     14  C   UNL     1       0.728   3.232  20.272  0.00  0.00    +0.000 C 
ATOM     15  C   UNL     1       1.753   2.877  21.361  0.00  0.00    +0.000 C 
ATOM     16  N   UNL     1       2.926   2.530  20.608  0.00  0.00    +0.000 N 
ATOM     17  H   UNL     1       3.827   2.238  21.013  0.00  0.00    +0.000 HD
ENDBRANCH  11  12
ENDBRANCH   1  11
TORSDOF 4
ENDMDL
MODEL 9
REMARK VINA RESULT:      -5.9      0.868      1.310
REMARK  Name = 
REMARK  5 active torsions:
REMARK  status: ('A' for Active; 'I' for Inactive)
REMARK    1  A    between atoms: C_1  and  S_2
REMARK    2  A    between atoms: S_2  and  C_3
REMARK    3  A    between atoms: C_8  and  N_9
REMARK    4  A    between atoms: N_9  and  C_10
REMARK    5  A    between atoms: C_10  and  C_11
REMARK                            x       y       z     vdW  Elec       q    Type
REMARK                         _______ _______ _______ _____ _____    ______ ____
ROOT
ATOM      1  N   UNL     1       6.262   5.313  18.875  0.00  0.00    +0.000 N 
ATOM      2  H   UNL     1       6.665   6.021  19.510  0.00  0.00    +0.000 HD
ENDROOT
BRANCH   1   8
ATOM      3  C   UNL     1       3.941   4.275  18.903  0.00  0.00    +0.000 A 
ATOM      4  C   UNL     1       2.584   4.431  18.581  0.00  0.00    +0.000 A 
ATOM      5  C   UNL     1       2.111   5.607  17.999  0.00  0.00    +0.000 A 
ATOM      6  C   UNL     1       2.985   6.660  17.749  0.00  0.00    +0.000 A 
ATOM      7  C   UNL     1       4.335   6.538  18.073  0.00  0.00    +0.000 A 
ATOM      8  C   UNL     1       4.851   5.350  18.632  0.00  0.00    +0.000 A 
BRANCH   3  10
ATOM      9  C   UNL     1       3.508   1.600  18.475  0.00  0.00    +0.000 C 
ATOM     10  S   UNL     1       4.394   2.681  19.641  0.00  0.00    +0.000 S 
ENDBRANCH   3  10
ENDBRANCH   1   8
BRANCH   1  11
ATOM     11  C   UNL     1       7.223   4.556  18.097  0.00  0.00    +0.000 C 
BRANCH  11  12
ATOM     12  C   UNL     1       6.879   4.527  16.636  0.00  0.00    +0.000 C 
ATOM     13  N   UNL     1       7.312   5.417  15.832  0.00  0.00    +0.000 NA
ATOM     14  C   UNL     1       6.818   5.175  14.493  0.00  0.00    +0.000 C 
ATOM     15  C   UNL     1       6.084   3.829  14.592  0.00  0.00    +0.000 C 
ATOM     16  N   UNL     1       6.088   3.556  16.002  0.00  0.00    +0.000 N 
ATOM     17  H   UNL     1       5.673   2.725  16.447  0.00  0.00    +0.000 HD
ENDBRANCH  11  12
ENDBRANCH   1  11
TORSDOF 4
ENDMDL
