MODEL 1
REMARK VINA RESULT:      -6.0      0.000      0.000
REMARK  Name = 
REMARK  4 active torsions:
REMARK  status: ('A' for Active; 'I' for Inactive)
REMARK    1  A    between atoms: C_1  and  O_2
REMARK    2  A    between atoms: O_2  and  C_3
REMARK    3  A    between atoms: C_5  and  C_6
REMARK    4  A    between atoms: C_8  and  N_9
REMARK                            x       y       z     vdW  Elec       q    Type
REMARK                         _______ _______ _______ _____ _____    ______ ____
ROOT
ATOM      1  C   UNL     1       6.705   4.545  15.614  0.00  0.00    +0.000 A 
ATOM      2  N   UNL     1       7.481   5.014  16.561  0.00  0.00    +0.000 NA
ATOM      3  C   UNL     1       6.687   4.896  17.673  0.00  0.00    +0.000 A 
ATOM      4  C   UNL     1       5.452   4.363  17.355  0.00  0.00    +0.000 A 
ATOM      5  O   UNL     1       5.469   4.123  16.001  0.00  0.00    +0.000 OA
ENDROOT
BRANCH   4   6
ATOM      6  N   UNL     1       4.324   4.076  18.043  0.00  0.00    +0.000 N 
ATOM      7  C   UNL     1       4.210   2.911  18.920  0.00  0.00    +0.000 C 
ATOM      8  C   UNL     1       2.945   2.120  18.561  0.00  0.00    +0.000 C 
ATOM      9  O   UNL     1       1.773   2.956  18.574  0.00  0.00    +0.000 OA
ATOM     10  C   UNL     1       1.916   4.045  17.645  0.00  0.00    +0.000 C 
ATOM     11  C   UNL     1       3.130   4.922  17.994  0.00  0.00    +0.000 C 
ENDBRANCH   4   6
BRANCH   1  13
ATOM     12  C   UNL     1       5.947   3.818  13.570  0.00  0.00    +0.000 C 
ATOM     13  O   UNL     1       6.994   4.416  14.327  0.00  0.00    +0.000 OA
ENDBRANCH   1  13
BRANCH   3  14
ATOM     14  C   UNL     1       7.172   5.231  18.965  0.00  0.00    +0.000 C 
ATOM     15  N   UNL     1       7.559   5.474  20.036  0.00  0.00    +0.000 NA
ENDBRANCH   3  14
TORSDOF 3
ENDMDL
MODEL 2
REMARK VINA RESULT:      -6.0      1.107      1.637
REMARK  Name = 
REMARK  4 active torsions:
REMARK  status: ('A' for Active; 'I' for Inactive)
REMARK    1  A    between atoms: C_1  and  O_2
REMARK    2  A    between atoms: O_2  and  C_3
REMARK    3  A    between atoms: C_5  and  C_6
REMARK    4  A    between atoms: C_8  and  N_9
REMARK                            x       y       z     vdW  Elec       q    Type
REMARK                         _______ _______ _______ _____ _____    ______ ____
ROOT
ATOM      1  C   UNL     1       6.719   4.533  14.781  0.00  0.00    +0.000 A 
ATOM      2  N   UNL     1       7.619   4.868  15.674  0.00  0.00    +0.000 NA
ATOM      3  C   UNL     1       6.905   4.807  16.843  0.00  0.00    +0.000 A 
ATOM      4  C   UNL     1       5.591   4.443  16.613  0.00  0.00    +0.000 A 
ATOM      5  O   UNL     1       5.474   4.252  15.256  0.00  0.00    +0.000 OA
ENDROOT
BRANCH   4   6
ATOM      6  N   UNL     1       4.493   4.272  17.382  0.00  0.00    +0.000 N 
ATOM      7  C   UNL     1       3.771   5.392  17.984  0.00  0.00    +0.000 C 
ATOM      8  C   UNL     1       3.581   5.132  19.485  0.00  0.00    +0.000 C 
ATOM      9  O   UNL     1       2.957   3.858  19.729  0.00  0.00    +0.000 OA
ATOM     10  C   UNL     1       3.745   2.792  19.172  0.00  0.00    +0.000 C 
ATOM     11  C   UNL     1       3.912   2.955  17.653  0.00  0.00    +0.000 C 
ENDBRANCH   4   6
BRANCH   1  13
ATOM     12  C   UNL     1       5.938   3.557  12.852  0.00  0.00    +0.000 C 
ATOM     13  O   UNL     1       6.888   4.417  13.472  0.00  0.00    +0.000 OA
ENDBRANCH   1  13
BRANCH   3  14
ATOM     14  C   UNL     1       7.527   5.032  18.100  0.00  0.00    +0.000 C 
ATOM     15  N   UNL     1       8.020   5.188  19.143  0.00  0.00    +0.000 NA
ENDBRANCH   3  14
TORSDOF 3
ENDMDL
MODEL 3
REMARK VINA RESULT:      -5.7      1.901      5.085
REMARK  Name = 
REMARK  4 active torsions:
REMARK  status: ('A' for Active; 'I' for Inactive)
REMARK    1  A    between atoms: C_1  and  O_2
REMARK    2  A    between atoms: O_2  and  C_3
REMARK    3  A    between atoms: C_5  and  C_6
REMARK    4  A    between atoms: C_8  and  N_9
REMARK                            x       y       z     vdW  Elec       q    Type
REMARK                         _______ _______ _______ _____ _____    ______ ____
ROOT
ATOM      1  C   UNL     1       2.262   3.590  17.872  0.00  0.00    +0.000 A 
ATOM      2  N   UNL     1       1.816   4.768  18.235  0.00  0.00    +0.000 NA
ATOM      3  C   UNL     1       2.864   5.589  17.910  0.00  0.00    +0.000 A 
ATOM      4  C   UNL     1       3.915   4.873  17.366  0.00  0.00    +0.000 A 
ATOM      5  O   UNL     1       3.512   3.559  17.332  0.00  0.00    +0.000 OA
ENDROOT
BRANCH   4   6
ATOM      6  N   UNL     1       5.154   5.176  16.920  0.00  0.00    +0.000 N 
ATOM      7  C   UNL     1       5.475   5.291  15.498  0.00  0.00    +0.000 C 
ATOM      8  C   UNL     1       6.704   4.430  15.178  0.00  0.00    +0.000 C 
ATOM      9  O   UNL     1       7.815   4.749  16.036  0.00  0.00    +0.000 OA
ATOM     10  C   UNL     1       7.462   4.554  17.417  0.00  0.00    +0.000 C 
ATOM     11  C   UNL     1       6.277   5.446  17.822  0.00  0.00    +0.000 C 
ENDBRANCH   4   6
BRANCH   1  13
ATOM     12  C   UNL     1       0.613   2.406  18.951  0.00  0.00    +0.000 C 
ATOM     13  O   UNL     1       1.627   2.429  17.952  0.00  0.00    +0.000 OA
ENDBRANCH   1  13
BRANCH   3  14
ATOM     14  C   UNL     1       2.778   6.998  18.074  0.00  0.00    +0.000 C 
ATOM     15  N   UNL     1       2.675   8.151  18.194  0.00  0.00    +0.000 NA
ENDBRANCH   3  14
TORSDOF 3
ENDMDL
MODEL 4
REMARK VINA RESULT:      -5.6      1.313      1.360
REMARK  Name = 
REMARK  4 active torsions:
REMARK  status: ('A' for Active; 'I' for Inactive)
REMARK    1  A    between atoms: C_1  and  O_2
REMARK    2  A    between atoms: O_2  and  C_3
REMARK    3  A    between atoms: C_5  and  C_6
REMARK    4  A    between atoms: C_8  and  N_9
REMARK                            x       y       z     vdW  Elec       q    Type
REMARK                         _______ _______ _______ _____ _____    ______ ____
ROOT
ATOM      1  C   UNL     1       6.583   4.397  14.810  0.00  0.00    +0.000 A 
ATOM      2  N   UNL     1       7.339   5.381  15.234  0.00  0.00    +0.000 NA
ATOM      3  C   UNL     1       6.781   5.673  16.451  0.00  0.00    +0.000 A 
ATOM      4  C   UNL     1       5.698   4.856  16.719  0.00  0.00    +0.000 A 
ATOM      5  O   UNL     1       5.576   4.009  15.641  0.00  0.00    +0.000 OA
ENDROOT
BRANCH   4   6
ATOM      6  N   UNL     1       4.803   4.746  17.725  0.00  0.00    +0.000 N 
ATOM      7  C   UNL     1       5.069   3.967  18.935  0.00  0.00    +0.000 C 
ATOM      8  C   UNL     1       3.903   3.002  19.190  0.00  0.00    +0.000 C 
ATOM      9  O   UNL     1       2.640   3.692  19.226  0.00  0.00    +0.000 OA
ATOM     10  C   UNL     1       2.404   4.383  17.987  0.00  0.00    +0.000 C 
ATOM     11  C   UNL     1       3.503   5.421  17.707  0.00  0.00    +0.000 C 
ENDBRANCH   4   6
BRANCH   1  13
ATOM     12  C   UNL     1       5.504   3.704  12.902  0.00  0.00    +0.000 C 
ATOM     13  O   UNL     1       6.700   3.723  13.675  0.00  0.00    +0.000 OA
ENDBRANCH   1  13
BRANCH   3  14
ATOM     14  C   UNL     1       7.346   6.657  17.306  0.00  0.00    +0.000 C 
ATOM     15  N   UNL     1       7.817   7.483  17.978  0.00  0.00    +0.000 NA
ENDBRANCH   3  14
TORSDOF 3
ENDMDL
MODEL 5
REMARK VINA RESULT:      -5.6      1.497      1.831
REMARK  Name = 
REMARK  4 active torsions:
REMARK  status: ('A' for Active; 'I' for Inactive)
REMARK    1  A    between atoms: C_1  and  O_2
REMARK    2  A    between atoms: O_2  and  C_3
REMARK    3  A    between atoms: C_5  and  C_6
REMARK    4  A    between atoms: C_8  and  N_9
REMARK                            x       y       z     vdW  Elec       q    Type
REMARK                         _______ _______ _______ _____ _____    ______ ____
ROOT
ATOM      1  C   UNL     1       6.711   4.531  14.495  0.00  0.00    +0.000 A 
ATOM      2  N   UNL     1       7.418   5.456  15.099  0.00  0.00    +0.000 NA
ATOM      3  C   UNL     1       6.843   5.496  16.343  0.00  0.00    +0.000 A 
ATOM      4  C   UNL     1       5.799   4.594  16.445  0.00  0.00    +0.000 A 
ATOM      5  O   UNL     1       5.721   3.953  15.231  0.00  0.00    +0.000 OA
ENDROOT
BRANCH   4   6
ATOM      6  N   UNL     1       4.907   4.262  17.404  0.00  0.00    +0.000 N 
ATOM      7  C   UNL     1       3.566   3.765  17.096  0.00  0.00    +0.000 C 
ATOM      8  C   UNL     1       2.526   4.579  17.876  0.00  0.00    +0.000 C 
ATOM      9  O   UNL     1       2.813   4.597  19.287  0.00  0.00    +0.000 OA
ATOM     10  C   UNL     1       4.115   5.156  19.533  0.00  0.00    +0.000 C 
ATOM     11  C   UNL     1       5.215   4.340  18.834  0.00  0.00    +0.000 C 
ENDBRANCH   4   6
BRANCH   1  13
ATOM     12  C   UNL     1       5.692   3.465  12.732  0.00  0.00    +0.000 C 
ATOM     13  O   UNL     1       6.863   4.080  13.258  0.00  0.00    +0.000 OA
ENDBRANCH   1  13
BRANCH   3  14
ATOM     14  C   UNL     1       7.358   6.333  17.368  0.00  0.00    +0.000 C 
ATOM     15  N   UNL     1       7.799   6.992  18.220  0.00  0.00    +0.000 NA
ENDBRANCH   3  14
TORSDOF 3
ENDMDL
MODEL 6
REMARK VINA RESULT:      -5.6      2.240      5.380
REMARK  Name = 
REMARK  4 active torsions:
REMARK  status: ('A' for Active; 'I' for Inactive)
REMARK    1  A    between atoms: C_1  and  O_2
REMARK    2  A    between atoms: O_2  and  C_3
REMARK    3  A    between atoms: C_5  and  C_6
REMARK    4  A    between atoms: C_8  and  N_9
REMARK                            x       y       z     vdW  Elec       q    Type
REMARK                         _______ _______ _______ _____ _____    ______ ____
ROOT
ATOM      1  C   UNL     1       3.084   3.937  20.172  0.00  0.00    +0.000 A 
ATOM      2  N   UNL     1       2.400   5.047  20.034  0.00  0.00    +0.000 NA
ATOM      3  C   UNL     1       3.132   5.724  19.093  0.00  0.00    +0.000 A 
ATOM      4  C   UNL     1       4.241   4.998  18.698  0.00  0.00    +0.000 A 
ATOM      5  O   UNL     1       4.201   3.817  19.403  0.00  0.00    +0.000 OA
ENDROOT
BRANCH   4   6
ATOM      6  N   UNL     1       5.274   5.206  17.853  0.00  0.00    +0.000 N 
ATOM      7  C   UNL     1       5.145   5.067  16.402  0.00  0.00    +0.000 C 
ATOM      8  C   UNL     1       6.259   4.152  15.874  0.00  0.00    +0.000 C 
ATOM      9  O   UNL     1       7.561   4.606  16.287  0.00  0.00    +0.000 OA
ATOM     10  C   UNL     1       7.649   4.660  17.721  0.00  0.00    +0.000 C 
ATOM     11  C   UNL     1       6.602   5.619  18.311  0.00  0.00    +0.000 C 
ENDBRANCH   4   6
BRANCH   1  13
ATOM     12  C   UNL     1       1.439   2.874  21.376  0.00  0.00    +0.000 C 
ATOM     13  O   UNL     1       2.800   2.909  20.960  0.00  0.00    +0.000 OA
ENDBRANCH   1  13
BRANCH   3  14
ATOM     14  C   UNL     1       2.700   6.977  18.582  0.00  0.00    +0.000 C 
ATOM     15  N   UNL     1       2.373   8.020  18.181  0.00  0.00    +0.000 NA
ENDBRANCH   3  14
TORSDOF 3
ENDMDL
MODEL 7
REMARK VINA RESULT:      -5.6      2.111      3.463
REMARK  Name = 
REMARK  4 active torsions:
REMARK  status: ('A' for Active; 'I' for Inactive)
REMARK    1  A    between atoms: C_1  and  O_2
REMARK    2  A    between atoms: O_2  and  C_3
REMARK    3  A    between atoms: C_5  and  C_6
REMARK    4  A    between atoms: C_8  and  N_9
REMARK                            x       y       z     vdW  Elec       q    Type
REMARK                         _______ _______ _______ _____ _____    ______ ____
ROOT
ATOM      1  C   UNL     1       7.215   6.471  17.501  0.00  0.00    +0.000 A 
ATOM      2  N   UNL     1       7.415   5.997  16.295  0.00  0.00    +0.000 NA
ATOM      3  C   UNL     1       6.304   5.218  16.100  0.00  0.00    +0.000 A 
ATOM      4  C   UNL     1       5.471   5.245  17.203  0.00  0.00    +0.000 A 
ATOM      5  O   UNL     1       6.067   6.079  18.120  0.00  0.00    +0.000 OA
ENDROOT
BRANCH   4   6
ATOM      6  N   UNL     1       4.303   4.653  17.540  0.00  0.00    +0.000 N 
ATOM      7  C   UNL     1       3.087   5.414  17.825  0.00  0.00    +0.000 C 
ATOM      8  C   UNL     1       2.500   4.958  19.168  0.00  0.00    +0.000 C 
ATOM      9  O   UNL     1       2.299   3.534  19.205  0.00  0.00    +0.000 OA
ATOM     10  C   UNL     1       3.539   2.840  18.984  0.00  0.00    +0.000 C 
ATOM     11  C   UNL     1       4.146   3.199  17.618  0.00  0.00    +0.000 C 
ENDBRANCH   4   6
BRANCH   1  13
ATOM     12  C   UNL     1       7.923   8.648  17.710  0.00  0.00    +0.000 C 
ATOM     13  O   UNL     1       7.992   7.305  18.177  0.00  0.00    +0.000 OA
ENDBRANCH   1  13
BRANCH   3  14
ATOM     14  C   UNL     1       6.073   4.557  14.865  0.00  0.00    +0.000 C 
ATOM     15  N   UNL     1       5.918   4.016  13.846  0.00  0.00    +0.000 NA
ENDBRANCH   3  14
TORSDOF 3
ENDMDL
MODEL 8
REMARK VINA RESULT:      -5.6      1.267      1.285
REMARK  Name = 
REMARK  4 active torsions:
REMARK  status: ('A' for Active; 'I' for Inactive)
REMARK    1  A    between atoms: C_1  and  O_2
REMARK    2  A    between atoms: O_2  and  C_3
REMARK    3  A    between atoms: C_5  and  C_6
REMARK    4  A    between atoms: C_8  and  N_9
REMARK                            x       y       z     vdW  Elec       q    Type
REMARK                         _______ _______ _______ _____ _____    ______ ____
ROOT
ATOM      1  C   UNL     1       5.407   4.458  15.980  0.00  0.00    +0.000 A 
ATOM      2  N   UNL     1       6.386   4.991  16.670  0.00  0.00    +0.000 NA
ATOM      3  C   UNL     1       5.964   4.809  17.962  0.00  0.00    +0.000 A 
ATOM      4  C   UNL     1       4.736   4.174  18.006  0.00  0.00    +0.000 A 
ATOM      5  O   UNL     1       4.376   3.935  16.701  0.00  0.00    +0.000 OA
ENDROOT
BRANCH   4   6
ATOM      6  N   UNL     1       3.886   3.795  18.986  0.00  0.00    +0.000 N 
ATOM      7  C   UNL     1       3.612   2.392  19.293  0.00  0.00    +0.000 C 
ATOM      8  C   UNL     1       2.095   2.160  19.322  0.00  0.00    +0.000 C 
ATOM      9  O   UNL     1       1.434   3.075  20.216  0.00  0.00    +0.000 OA
ATOM     10  C   UNL     1       1.685   4.436  19.825  0.00  0.00    +0.000 C 
ATOM     11  C   UNL     1       3.189   4.755  19.845  0.00  0.00    +0.000 C 
ENDBRANCH   4   6
BRANCH   1  13
ATOM     12  C   UNL     1       6.580   4.319  14.008  0.00  0.00    +0.000 C 
ATOM     13  O   UNL     1       5.316   4.351  14.662  0.00  0.00    +0.000 OA
ENDBRANCH   1  13
BRANCH   3  14
ATOM     14  C   UNL     1       6.777   5.185  19.064  0.00  0.00    +0.000 C 
ATOM     15  N   UNL     1       7.414   5.498  19.987  0.00  0.00    +0.000 NA
ENDBRANCH   3  14
TORSDOF 3
ENDMDL
MODEL 9
REMARK VINA RESULT:      -5.5      2.184      2.989
REMARK  Name = 
REMARK  4 active torsions:
REMARK  status: ('A' for Active; 'I' for Inactive)
REMARK    1  A    between atoms: C_1  and  O_2
REMARK    2  A    between atoms: O_2  and  C_3
REMARK    3  A    between atoms: C_5  and  C_6
REMARK    4  A    between atoms: C_8  and  N_9
REMARK                            x       y       z     vdW  Elec       q    Type
REMARK                         _______ _______ _______ _____ _____    ______ ____
ROOT
ATOM      1  C   UNL     1       5.087   4.112  16.417  0.00  0.00    +0.000 A 
ATOM      2  N   UNL     1       4.691   5.350  16.591  0.00  0.00    +0.000 NA
ATOM      3  C   UNL     1       3.761   5.221  17.589  0.00  0.00    +0.000 A 
ATOM      4  C   UNL     1       3.622   3.902  17.981  0.00  0.00    +0.000 A 
ATOM      5  O   UNL     1       4.503   3.175  17.215  0.00  0.00    +0.000 OA
ENDROOT
BRANCH   4   6
ATOM      6  N   UNL     1       2.849   3.241  18.870  0.00  0.00    +0.000 N 
ATOM      7  C   UNL     1       1.405   3.083  18.696  0.00  0.00    +0.000 C 
ATOM      8  C   UNL     1       0.683   3.523  19.977  0.00  0.00    +0.000 C 
ATOM      9  O   UNL     1       1.192   2.837  21.136  0.00  0.00    +0.000 OA
ATOM     10  C   UNL     1       2.600   3.083  21.293  0.00  0.00    +0.000 C 
ATOM     11  C   UNL     1       3.393   2.597  20.069  0.00  0.00    +0.000 C 
ENDBRANCH   4   6
BRANCH   1  13
ATOM     12  C   UNL     1       6.699   4.715  14.894  0.00  0.00    +0.000 C 
ATOM     13  O   UNL     1       6.004   3.671  15.567  0.00  0.00    +0.000 OA
ENDBRANCH   1  13
BRANCH   3  14
ATOM     14  C   UNL     1       3.117   6.356  18.150  0.00  0.00    +0.000 C 
ATOM     15  N   UNL     1       2.593   7.303  18.579  0.00  0.00    +0.000 NA
ENDBRANCH   3  14
TORSDOF 3
ENDMDL
