MODEL 1
REMARK VINA RESULT:      -7.8      0.000      0.000
REMARK  Name = 
REMARK  8 active torsions:
REMARK  status: ('A' for Active; 'I' for Inactive)
REMARK    1  A    between atoms: C_1  and  C_2
REMARK    2  A    between atoms: C_2  and  C_3
REMARK    3  A    between atoms: C_2  and  O_4
REMARK    4  A    between atoms: O_4  and  C_5
REMARK    5  A    between atoms: C_5  and  C_6
REMARK    6  A    between atoms: C_6  and  C_7
REMARK    7  A    between atoms: C_7  and  N_8
REMARK    8  A    between atoms: C_13  and  C_14
REMARK                            x       y       z     vdW  Elec       q    Type
REMARK                         _______ _______ _______ _____ _____    ______ ____
ROOT
ATOM      1  N   UNL     1       0.826   9.766  18.766  0.00  0.00    +0.000 N 
ATOM      2  C   UNL     1       0.278   8.711  19.602  0.00  0.00    +0.000 C 
ATOM      3  C   UNL     1       1.318   7.792  20.238  0.00  0.00    +0.000 C 
ATOM      4  O   UNL     1       1.160   7.348  21.371  0.00  0.00    +0.000 OA
ATOM      5  N   UNL     1       2.272   7.348  19.321  0.00  0.00    +0.000 N 
ATOM      6  C   UNL     1       3.147   6.209  19.698  0.00  0.00    +0.000 C 
ATOM      7  C   UNL     1       3.960   5.846  18.478  0.00  0.00    +0.000 A 
ATOM      8  N   UNL     1       4.710   4.704  18.328  0.00  0.00    +0.000 N 
ATOM      9  C   UNL     1       5.245   4.659  17.054  0.00  0.00    +0.000 A 
ATOM     10  C   UNL     1       6.023   3.673  16.437  0.00  0.00    +0.000 A 
ATOM     11  C   UNL     1       6.407   3.886  15.107  0.00  0.00    +0.000 A 
ATOM     12  C   UNL     1       6.030   5.040  14.426  0.00  0.00    +0.000 A 
ATOM     13  C   UNL     1       5.257   6.020  15.059  0.00  0.00    +0.000 A 
ATOM     14  C   UNL     1       4.853   5.825  16.395  0.00  0.00    +0.000 A 
ATOM     15  C   UNL     1       4.071   6.572  17.310  0.00  0.00    +0.000 A 
ATOM     16  C   UNL     1       3.377   7.870  17.134  0.00  0.00    +0.000 C 
ATOM     17  C   UNL     1       2.903   8.410  18.504  0.00  0.00    +0.000 C 
ATOM     18  C   UNL     1       2.080   9.668  18.197  0.00  0.00    +0.000 C 
ATOM     19  O   UNL     1       2.566  10.568  17.510  0.00  0.00    +0.000 OA
ATOM     20  H   UNL     1       4.797   3.967  19.012  0.00  0.00    +0.000 HD
ENDROOT
BRANCH   6  21
ATOM     21  C   UNL     1       2.355   5.018  20.218  0.00  0.00    +0.000 A 
ATOM     22  C   UNL     1       2.659   4.429  21.457  0.00  0.00    +0.000 A 
ATOM     23  C   UNL     1       2.034   3.245  21.848  0.00  0.00    +0.000 A 
ATOM     24  C   UNL     1       1.097   2.640  21.012  0.00  0.00    +0.000 A 
ATOM     25  C   UNL     1       0.759   3.233  19.797  0.00  0.00    +0.000 A 
ATOM     26  C   UNL     1       1.377   4.419  19.405  0.00  0.00    +0.000 A 
ENDBRANCH   6  21
BRANCH   1  27
ATOM     27  C   UNL     1      -0.044  10.889  18.422  0.00  0.00    +0.000 C 
BRANCH  27  28
ATOM     28  C   UNL     1      -1.398  10.847  19.138  0.00  0.00    +0.000 C 
BRANCH  28  29
ATOM     29  C   UNL     1      -2.522  10.438  18.195  0.00  0.00    +0.000 C 
BRANCH  29  30
ATOM     30  O   UNL     1      -2.012  10.392  16.866  0.00  0.00    +0.000 OA
BRANCH  30  32
ATOM     31  C   UNL     1      -2.899  10.068  14.688  0.00  0.00    +0.000 C 
ATOM     32  C   UNL     1      -2.847  11.012  15.886  0.00  0.00    +0.000 C 
ATOM     33  C   UNL     1      -4.254  11.252  16.422  0.00  0.00    +0.000 C 
ENDBRANCH  30  32
ENDBRANCH  29  30
ENDBRANCH  28  29
ENDBRANCH  27  28
ENDBRANCH   1  27
TORSDOF 6
ENDMDL
MODEL 2
REMARK VINA RESULT:      -7.5      1.683      2.674
REMARK  Name = 
REMARK  8 active torsions:
REMARK  status: ('A' for Active; 'I' for Inactive)
REMARK    1  A    between atoms: C_1  and  C_2
REMARK    2  A    between atoms: C_2  and  C_3
REMARK    3  A    between atoms: C_2  and  O_4
REMARK    4  A    between atoms: O_4  and  C_5
REMARK    5  A    between atoms: C_5  and  C_6
REMARK    6  A    between atoms: C_6  and  C_7
REMARK    7  A    between atoms: C_7  and  N_8
REMARK    8  A    between atoms: C_13  and  C_14
REMARK                            x       y       z     vdW  Elec       q    Type
REMARK                         _______ _______ _______ _____ _____    ______ ____
ROOT
ATOM      1  N   UNL     1       0.805   9.732  18.881  0.00  0.00    +0.000 N 
ATOM      2  C   UNL     1       0.267   8.662  19.704  0.00  0.00    +0.000 C 
ATOM      3  C   UNL     1       1.315   7.736  20.316  0.00  0.00    +0.000 C 
ATOM      4  O   UNL     1       1.168   7.272  21.443  0.00  0.00    +0.000 OA
ATOM      5  N   UNL     1       2.262   7.310  19.383  0.00  0.00    +0.000 N 
ATOM      6  C   UNL     1       3.144   6.167  19.734  0.00  0.00    +0.000 C 
ATOM      7  C   UNL     1       3.947   5.827  18.500  0.00  0.00    +0.000 A 
ATOM      8  N   UNL     1       4.698   4.690  18.325  0.00  0.00    +0.000 N 
ATOM      9  C   UNL     1       5.222   4.668  17.046  0.00  0.00    +0.000 A 
ATOM     10  C   UNL     1       5.998   3.694  16.405  0.00  0.00    +0.000 A 
ATOM     11  C   UNL     1       6.369   3.930  15.076  0.00  0.00    +0.000 A 
ATOM     12  C   UNL     1       5.983   5.094  14.417  0.00  0.00    +0.000 A 
ATOM     13  C   UNL     1       5.214   6.062  15.074  0.00  0.00    +0.000 A 
ATOM     14  C   UNL     1       4.821   5.843  16.410  0.00  0.00    +0.000 A 
ATOM     15  C   UNL     1       4.046   6.572  17.344  0.00  0.00    +0.000 A 
ATOM     16  C   UNL     1       3.347   7.872  17.196  0.00  0.00    +0.000 C 
ATOM     17  C   UNL     1       2.883   8.387  18.579  0.00  0.00    +0.000 C 
ATOM     18  C   UNL     1       2.055   9.647  18.300  0.00  0.00    +0.000 C 
ATOM     19  O   UNL     1       2.532  10.561  17.624  0.00  0.00    +0.000 OA
ATOM     20  H   UNL     1       4.794   3.941  18.996  0.00  0.00    +0.000 HD
ENDROOT
BRANCH   6  21
ATOM     21  C   UNL     1       2.359   4.965  20.241  0.00  0.00    +0.000 A 
ATOM     22  C   UNL     1       2.659   4.372  21.478  0.00  0.00    +0.000 A 
ATOM     23  C   UNL     1       2.043   3.180  21.858  0.00  0.00    +0.000 A 
ATOM     24  C   UNL     1       1.119   2.570  21.011  0.00  0.00    +0.000 A 
ATOM     25  C   UNL     1       0.785   3.166  19.796  0.00  0.00    +0.000 A 
ATOM     26  C   UNL     1       1.394   4.361  19.416  0.00  0.00    +0.000 A 
ENDBRANCH   6  21
BRANCH   1  27
ATOM     27  C   UNL     1      -0.071  10.859  18.564  0.00  0.00    +0.000 C 
BRANCH  27  28
ATOM     28  C   UNL     1      -0.037  11.969  19.619  0.00  0.00    +0.000 C 
BRANCH  28  29
ATOM     29  C   UNL     1       0.872  11.608  20.787  0.00  0.00    +0.000 C 
BRANCH  29  30
ATOM     30  O   UNL     1       0.201  11.923  22.005  0.00  0.00    +0.000 OA
BRANCH  30  32
ATOM     31  C   UNL     1      -0.407   9.933  23.146  0.00  0.00    +0.000 C 
ATOM     32  C   UNL     1      -0.923  11.091  22.297  0.00  0.00    +0.000 C 
ATOM     33  C   UNL     1      -2.002  11.855  23.058  0.00  0.00    +0.000 C 
ENDBRANCH  30  32
ENDBRANCH  29  30
ENDBRANCH  28  29
ENDBRANCH  27  28
ENDBRANCH   1  27
TORSDOF 6
ENDMDL
MODEL 3
REMARK VINA RESULT:      -7.1      4.106      9.956
REMARK  Name = 
REMARK  8 active torsions:
REMARK  status: ('A' for Active; 'I' for Inactive)
REMARK    1  A    between atoms: C_1  and  C_2
REMARK    2  A    between atoms: C_2  and  C_3
REMARK    3  A    between atoms: C_2  and  O_4
REMARK    4  A    between atoms: O_4  and  C_5
REMARK    5  A    between atoms: C_5  and  C_6
REMARK    6  A    between atoms: C_6  and  C_7
REMARK    7  A    between atoms: C_7  and  N_8
REMARK    8  A    between atoms: C_13  and  C_14
REMARK                            x       y       z     vdW  Elec       q    Type
REMARK                         _______ _______ _______ _____ _____    ______ ____
ROOT
ATOM      1  N   UNL     1       1.438   9.881  18.749  0.00  0.00    +0.000 N 
ATOM      2  C   UNL     1       1.715  11.148  18.093  0.00  0.00    +0.000 C 
ATOM      3  C   UNL     1       2.032  12.303  19.039  0.00  0.00    +0.000 C 
ATOM      4  O   UNL     1       2.865  13.153  18.742  0.00  0.00    +0.000 OA
ATOM      5  N   UNL     1       1.119  12.399  20.091  0.00  0.00    +0.000 N 
ATOM      6  C   UNL     1       1.096  13.642  20.903  0.00  0.00    +0.000 C 
ATOM      7  C   UNL     1      -0.075  13.534  21.852  0.00  0.00    +0.000 A 
ATOM      8  N   UNL     1      -0.592  14.563  22.603  0.00  0.00    +0.000 N 
ATOM      9  C   UNL     1      -1.712  14.126  23.286  0.00  0.00    +0.000 A 
ATOM     10  C   UNL     1      -2.589  14.827  24.123  0.00  0.00    +0.000 A 
ATOM     11  C   UNL     1      -3.671  14.123  24.665  0.00  0.00    +0.000 A 
ATOM     12  C   UNL     1      -3.864  12.773  24.385  0.00  0.00    +0.000 A 
ATOM     13  C   UNL     1      -2.974  12.084  23.553  0.00  0.00    +0.000 A 
ATOM     14  C   UNL     1      -1.881  12.773  22.989  0.00  0.00    +0.000 A 
ATOM     15  C   UNL     1      -0.831  12.410  22.111  0.00  0.00    +0.000 A 
ATOM     16  C   UNL     1      -0.540  11.111  21.457  0.00  0.00    +0.000 C 
ATOM     17  C   UNL     1       0.873  11.137  20.827  0.00  0.00    +0.000 C 
ATOM     18  C   UNL     1       1.014   9.816  20.061  0.00  0.00    +0.000 C 
ATOM     19  O   UNL     1       0.805   8.746  20.635  0.00  0.00    +0.000 OA
ATOM     20  H   UNL     1      -0.259  15.516  22.599  0.00  0.00    +0.000 HD
ENDROOT
BRANCH   6  21
ATOM     21  C   UNL     1       1.003  14.894  20.041  0.00  0.00    +0.000 A 
ATOM     22  C   UNL     1       1.925  15.944  20.186  0.00  0.00    +0.000 A 
ATOM     23  C   UNL     1       1.738  17.147  19.506  0.00  0.00    +0.000 A 
ATOM     24  C   UNL     1       0.633  17.314  18.673  0.00  0.00    +0.000 A 
ATOM     25  C   UNL     1      -0.271  16.268  18.492  0.00  0.00    +0.000 A 
ATOM     26  C   UNL     1      -0.082  15.062  19.164  0.00  0.00    +0.000 A 
ENDBRANCH   6  21
BRANCH   1  27
ATOM     27  C   UNL     1       1.487   8.665  17.938  0.00  0.00    +0.000 C 
BRANCH  27  28
ATOM     28  C   UNL     1       2.879   8.027  17.887  0.00  0.00    +0.000 C 
BRANCH  28  29
ATOM     29  C   UNL     1       2.933   6.730  18.684  0.00  0.00    +0.000 C 
BRANCH  29  30
ATOM     30  O   UNL     1       3.007   5.635  17.774  0.00  0.00    +0.000 OA
BRANCH  30  32
ATOM     31  C   UNL     1       2.515   3.358  17.322  0.00  0.00    +0.000 C 
ATOM     32  C   UNL     1       1.991   4.647  17.949  0.00  0.00    +0.000 C 
ATOM     33  C   UNL     1       1.677   4.420  19.424  0.00  0.00    +0.000 C 
ENDBRANCH  30  32
ENDBRANCH  29  30
ENDBRANCH  28  29
ENDBRANCH  27  28
ENDBRANCH   1  27
TORSDOF 6
ENDMDL
MODEL 4
REMARK VINA RESULT:      -7.1      1.189      1.794
REMARK  Name = 
REMARK  8 active torsions:
REMARK  status: ('A' for Active; 'I' for Inactive)
REMARK    1  A    between atoms: C_1  and  C_2
REMARK    2  A    between atoms: C_2  and  C_3
REMARK    3  A    between atoms: C_2  and  O_4
REMARK    4  A    between atoms: O_4  and  C_5
REMARK    5  A    between atoms: C_5  and  C_6
REMARK    6  A    between atoms: C_6  and  C_7
REMARK    7  A    between atoms: C_7  and  N_8
REMARK    8  A    between atoms: C_13  and  C_14
REMARK                            x       y       z     vdW  Elec       q    Type
REMARK                         _______ _______ _______ _____ _____    ______ ____
ROOT
ATOM      1  N   UNL     1       0.839   9.771  18.840  0.00  0.00    +0.000 N 
ATOM      2  C   UNL     1       0.289   8.709  19.666  0.00  0.00    +0.000 C 
ATOM      3  C   UNL     1       1.328   7.778  20.286  0.00  0.00    +0.000 C 
ATOM      4  O   UNL     1       1.173   7.320  21.415  0.00  0.00    +0.000 OA
ATOM      5  N   UNL     1       2.275   7.340  19.359  0.00  0.00    +0.000 N 
ATOM      6  C   UNL     1       3.147   6.193  19.719  0.00  0.00    +0.000 C 
ATOM      7  C   UNL     1       3.952   5.841  18.490  0.00  0.00    +0.000 A 
ATOM      8  N   UNL     1       4.696   4.697  18.324  0.00  0.00    +0.000 N 
ATOM      9  C   UNL     1       5.225   4.666  17.047  0.00  0.00    +0.000 A 
ATOM     10  C   UNL     1       5.996   3.683  16.414  0.00  0.00    +0.000 A 
ATOM     11  C   UNL     1       6.375   3.910  15.085  0.00  0.00    +0.000 A 
ATOM     12  C   UNL     1       6.000   5.074  14.419  0.00  0.00    +0.000 A 
ATOM     13  C   UNL     1       5.235   6.050  15.068  0.00  0.00    +0.000 A 
ATOM     14  C   UNL     1       4.836   5.841  16.404  0.00  0.00    +0.000 A 
ATOM     15  C   UNL     1       4.062   6.580  17.331  0.00  0.00    +0.000 A 
ATOM     16  C   UNL     1       3.373   7.884  17.174  0.00  0.00    +0.000 C 
ATOM     17  C   UNL     1       2.907   8.409  18.553  0.00  0.00    +0.000 C 
ATOM     18  C   UNL     1       2.090   9.674  18.265  0.00  0.00    +0.000 C 
ATOM     19  O   UNL     1       2.576  10.581  17.586  0.00  0.00    +0.000 OA
ATOM     20  H   UNL     1       4.783   3.951  18.998  0.00  0.00    +0.000 HD
ENDROOT
BRANCH   6  21
ATOM     21  C   UNL     1       2.352   4.999  20.228  0.00  0.00    +0.000 A 
ATOM     22  C   UNL     1       2.646   4.406  21.467  0.00  0.00    +0.000 A 
ATOM     23  C   UNL     1       2.019   3.220  21.849  0.00  0.00    +0.000 A 
ATOM     24  C   UNL     1       1.089   2.617  21.003  0.00  0.00    +0.000 A 
ATOM     25  C   UNL     1       0.761   3.214  19.787  0.00  0.00    +0.000 A 
ATOM     26  C   UNL     1       1.381   4.403  19.405  0.00  0.00    +0.000 A 
ENDBRANCH   6  21
BRANCH   1  27
ATOM     27  C   UNL     1      -0.028  10.903  18.514  0.00  0.00    +0.000 C 
BRANCH  27  28
ATOM     28  C   UNL     1      -1.390  10.481  17.953  0.00  0.00    +0.000 C 
BRANCH  28  29
ATOM     29  C   UNL     1      -2.531  11.255  18.600  0.00  0.00    +0.000 C 
BRANCH  29  30
ATOM     30  O   UNL     1      -2.039  11.907  19.768  0.00  0.00    +0.000 OA
BRANCH  30  32
ATOM     31  C   UNL     1      -2.550  14.008  20.745  0.00  0.00    +0.000 C 
ATOM     32  C   UNL     1      -3.037  12.576  20.540  0.00  0.00    +0.000 C 
ATOM     33  C   UNL     1      -4.386  12.581  19.829  0.00  0.00    +0.000 C 
ENDBRANCH  30  32
ENDBRANCH  29  30
ENDBRANCH  28  29
ENDBRANCH  27  28
ENDBRANCH   1  27
TORSDOF 6
ENDMDL
MODEL 5
REMARK VINA RESULT:      -7.0      4.157     10.047
REMARK  Name = 
REMARK  8 active torsions:
REMARK  status: ('A' for Active; 'I' for Inactive)
REMARK    1  A    between atoms: C_1  and  C_2
REMARK    2  A    between atoms: C_2  and  C_3
REMARK    3  A    between atoms: C_2  and  O_4
REMARK    4  A    between atoms: O_4  and  C_5
REMARK    5  A    between atoms: C_5  and  C_6
REMARK    6  A    between atoms: C_6  and  C_7
REMARK    7  A    between atoms: C_7  and  N_8
REMARK    8  A    between atoms: C_13  and  C_14
REMARK                            x       y       z     vdW  Elec       q    Type
REMARK                         _______ _______ _______ _____ _____    ______ ____
ROOT
ATOM      1  N   UNL     1       1.424  10.004  18.738  0.00  0.00    +0.000 N 
ATOM      2  C   UNL     1       1.718  11.293  18.136  0.00  0.00    +0.000 C 
ATOM      3  C   UNL     1       2.034  12.407  19.131  0.00  0.00    +0.000 C 
ATOM      4  O   UNL     1       2.878  13.261  18.876  0.00  0.00    +0.000 OA
ATOM      5  N   UNL     1       1.112  12.468  20.177  0.00  0.00    +0.000 N 
ATOM      6  C   UNL     1       1.089  13.679  21.037  0.00  0.00    +0.000 C 
ATOM      7  C   UNL     1      -0.092  13.543  21.969  0.00  0.00    +0.000 A 
ATOM      8  N   UNL     1      -0.609  14.545  22.755  0.00  0.00    +0.000 N 
ATOM      9  C   UNL     1      -1.739  14.091  23.409  0.00  0.00    +0.000 A 
ATOM     10  C   UNL     1      -2.619  14.765  24.264  0.00  0.00    +0.000 A 
ATOM     11  C   UNL     1      -3.712  14.050  24.767  0.00  0.00    +0.000 A 
ATOM     12  C   UNL     1      -3.914  12.714  24.431  0.00  0.00    +0.000 A 
ATOM     13  C   UNL     1      -3.021  12.051  23.581  0.00  0.00    +0.000 A 
ATOM     14  C   UNL     1      -1.917  12.753  23.056  0.00  0.00    +0.000 A 
ATOM     15  C   UNL     1      -0.860  12.416  22.175  0.00  0.00    +0.000 A 
ATOM     16  C   UNL     1      -0.573  11.142  21.473  0.00  0.00    +0.000 C 
ATOM     17  C   UNL     1       0.847  11.181  20.859  0.00  0.00    +0.000 C 
ATOM     18  C   UNL     1       0.986   9.890  20.042  0.00  0.00    +0.000 C 
ATOM     19  O   UNL     1       0.762   8.800  20.571  0.00  0.00    +0.000 OA
ATOM     20  H   UNL     1      -0.268  15.495  22.793  0.00  0.00    +0.000 HD
ENDROOT
BRANCH   6  21
ATOM     21  C   UNL     1       1.016  14.964  20.225  0.00  0.00    +0.000 A 
ATOM     22  C   UNL     1      -0.010  15.175  19.289  0.00  0.00    +0.000 A 
ATOM     23  C   UNL     1       0.023  16.281  18.442  0.00  0.00    +0.000 A 
ATOM     24  C   UNL     1       1.076  17.191  18.521  0.00  0.00    +0.000 A 
ATOM     25  C   UNL     1       2.083  17.015  19.469  0.00  0.00    +0.000 A 
ATOM     26  C   UNL     1       2.049  15.913  20.323  0.00  0.00    +0.000 A 
ENDBRANCH   6  21
BRANCH   1  27
ATOM     27  C   UNL     1       1.472   8.821  17.880  0.00  0.00    +0.000 C 
BRANCH  27  28
ATOM     28  C   UNL     1       2.863   8.185  17.802  0.00  0.00    +0.000 C 
BRANCH  28  29
ATOM     29  C   UNL     1       2.921   6.862  18.554  0.00  0.00    +0.000 C 
BRANCH  29  30
ATOM     30  O   UNL     1       3.457   5.864  17.689  0.00  0.00    +0.000 OA
BRANCH  30  32
ATOM     31  C   UNL     1       1.593   4.395  17.659  0.00  0.00    +0.000 C 
ATOM     32  C   UNL     1       3.072   4.527  18.012  0.00  0.00    +0.000 C 
ATOM     33  C   UNL     1       3.888   3.504  17.229  0.00  0.00    +0.000 C 
ENDBRANCH  30  32
ENDBRANCH  29  30
ENDBRANCH  28  29
ENDBRANCH  27  28
ENDBRANCH   1  27
TORSDOF 6
ENDMDL
MODEL 6
REMARK VINA RESULT:      -7.0      1.673      2.627
REMARK  Name = 
REMARK  8 active torsions:
REMARK  status: ('A' for Active; 'I' for Inactive)
REMARK    1  A    between atoms: C_1  and  C_2
REMARK    2  A    between atoms: C_2  and  C_3
REMARK    3  A    between atoms: C_2  and  O_4
REMARK    4  A    between atoms: O_4  and  C_5
REMARK    5  A    between atoms: C_5  and  C_6
REMARK    6  A    between atoms: C_6  and  C_7
REMARK    7  A    between atoms: C_7  and  N_8
REMARK    8  A    between atoms: C_13  and  C_14
REMARK                            x       y       z     vdW  Elec       q    Type
REMARK                         _______ _______ _______ _____ _____    ______ ____
ROOT
ATOM      1  N   UNL     1       0.796   9.751  18.854  0.00  0.00    +0.000 N 
ATOM      2  C   UNL     1       0.257   8.685  19.682  0.00  0.00    +0.000 C 
ATOM      3  C   UNL     1       1.304   7.764  20.302  0.00  0.00    +0.000 C 
ATOM      4  O   UNL     1       1.154   7.305  21.430  0.00  0.00    +0.000 OA
ATOM      5  N   UNL     1       2.254   7.334  19.374  0.00  0.00    +0.000 N 
ATOM      6  C   UNL     1       3.136   6.194  19.733  0.00  0.00    +0.000 C 
ATOM      7  C   UNL     1       3.943   5.848  18.504  0.00  0.00    +0.000 A 
ATOM      8  N   UNL     1       4.697   4.711  18.337  0.00  0.00    +0.000 N 
ATOM      9  C   UNL     1       5.225   4.683  17.060  0.00  0.00    +0.000 A 
ATOM     10  C   UNL     1       6.004   3.707  16.427  0.00  0.00    +0.000 A 
ATOM     11  C   UNL     1       6.379   3.936  15.097  0.00  0.00    +0.000 A 
ATOM     12  C   UNL     1       5.994   5.097  14.431  0.00  0.00    +0.000 A 
ATOM     13  C   UNL     1       5.221   6.067  15.080  0.00  0.00    +0.000 A 
ATOM     14  C   UNL     1       4.825   5.855  16.416  0.00  0.00    +0.000 A 
ATOM     15  C   UNL     1       4.045   6.588  17.344  0.00  0.00    +0.000 A 
ATOM     16  C   UNL     1       3.346   7.885  17.187  0.00  0.00    +0.000 C 
ATOM     17  C   UNL     1       2.876   8.407  18.566  0.00  0.00    +0.000 C 
ATOM     18  C   UNL     1       2.047   9.665  18.278  0.00  0.00    +0.000 C 
ATOM     19  O   UNL     1       2.525  10.576  17.598  0.00  0.00    +0.000 OA
ATOM     20  H   UNL     1       4.791   3.966  19.012  0.00  0.00    +0.000 HD
ENDROOT
BRANCH   6  21
ATOM     21  C   UNL     1       2.352   4.994  20.244  0.00  0.00    +0.000 A 
ATOM     22  C   UNL     1       2.656   4.401  21.481  0.00  0.00    +0.000 A 
ATOM     23  C   UNL     1       2.039   3.210  21.863  0.00  0.00    +0.000 A 
ATOM     24  C   UNL     1       1.111   2.602  21.020  0.00  0.00    +0.000 A 
ATOM     25  C   UNL     1       0.773   3.197  19.806  0.00  0.00    +0.000 A 
ATOM     26  C   UNL     1       1.382   4.391  19.424  0.00  0.00    +0.000 A 
ENDBRANCH   6  21
BRANCH   1  27
ATOM     27  C   UNL     1      -0.081  10.875  18.529  0.00  0.00    +0.000 C 
BRANCH  27  28
ATOM     28  C   UNL     1      -0.372  11.784  19.727  0.00  0.00    +0.000 C 
BRANCH  28  29
ATOM     29  C   UNL     1       0.227  13.172  19.541  0.00  0.00    +0.000 C 
BRANCH  29  30
ATOM     30  O   UNL     1       1.643  13.082  19.673  0.00  0.00    +0.000 OA
BRANCH  30  32
ATOM     31  C   UNL     1       3.355  13.992  18.303  0.00  0.00    +0.000 C 
ATOM     32  C   UNL     1       2.343  14.298  19.404  0.00  0.00    +0.000 C 
ATOM     33  C   UNL     1       1.395  15.402  18.949  0.00  0.00    +0.000 C 
ENDBRANCH  30  32
ENDBRANCH  29  30
ENDBRANCH  28  29
ENDBRANCH  27  28
ENDBRANCH   1  27
TORSDOF 6
ENDMDL
MODEL 7
REMARK VINA RESULT:      -6.9      4.084     10.066
REMARK  Name = 
REMARK  8 active torsions:
REMARK  status: ('A' for Active; 'I' for Inactive)
REMARK    1  A    between atoms: C_1  and  C_2
REMARK    2  A    between atoms: C_2  and  C_3
REMARK    3  A    between atoms: C_2  and  O_4
REMARK    4  A    between atoms: O_4  and  C_5
REMARK    5  A    between atoms: C_5  and  C_6
REMARK    6  A    between atoms: C_6  and  C_7
REMARK    7  A    between atoms: C_7  and  N_8
REMARK    8  A    between atoms: C_13  and  C_14
REMARK                            x       y       z     vdW  Elec       q    Type
REMARK                         _______ _______ _______ _____ _____    ______ ____
ROOT
ATOM      1  N   UNL     1       1.432   9.887  18.720  0.00  0.00    +0.000 N 
ATOM      2  C   UNL     1       1.701  11.161  18.073  0.00  0.00    +0.000 C 
ATOM      3  C   UNL     1       2.016  12.309  19.028  0.00  0.00    +0.000 C 
ATOM      4  O   UNL     1       2.845  13.166  18.735  0.00  0.00    +0.000 OA
ATOM      5  N   UNL     1       1.106  12.392  20.084  0.00  0.00    +0.000 N 
ATOM      6  C   UNL     1       1.079  13.629  20.906  0.00  0.00    +0.000 C 
ATOM      7  C   UNL     1      -0.088  13.508  21.858  0.00  0.00    +0.000 A 
ATOM      8  N   UNL     1      -0.607  14.528  22.618  0.00  0.00    +0.000 N 
ATOM      9  C   UNL     1      -1.723  14.080  23.302  0.00  0.00    +0.000 A 
ATOM     10  C   UNL     1      -2.601  14.770  24.146  0.00  0.00    +0.000 A 
ATOM     11  C   UNL     1      -3.678  14.057  24.686  0.00  0.00    +0.000 A 
ATOM     12  C   UNL     1      -3.866  12.708  24.396  0.00  0.00    +0.000 A 
ATOM     13  C   UNL     1      -2.975  12.031  23.555  0.00  0.00    +0.000 A 
ATOM     14  C   UNL     1      -1.888  12.729  22.993  0.00  0.00    +0.000 A 
ATOM     15  C   UNL     1      -0.838  12.378  22.109  0.00  0.00    +0.000 A 
ATOM     16  C   UNL     1      -0.544  11.086  21.444  0.00  0.00    +0.000 C 
ATOM     17  C   UNL     1       0.867  11.124  20.810  0.00  0.00    +0.000 C 
ATOM     18  C   UNL     1       1.013   9.810  20.033  0.00  0.00    +0.000 C 
ATOM     19  O   UNL     1       0.810   8.734  20.598  0.00  0.00    +0.000 OA
ATOM     20  H   UNL     1      -0.279  15.482  22.622  0.00  0.00    +0.000 HD
ENDROOT
BRANCH   6  21
ATOM     21  C   UNL     1       0.979  14.887  20.055  0.00  0.00    +0.000 A 
ATOM     22  C   UNL     1       1.897  15.939  20.205  0.00  0.00    +0.000 A 
ATOM     23  C   UNL     1       1.702  17.147  19.536  0.00  0.00    +0.000 A 
ATOM     24  C   UNL     1       0.593  17.316  18.708  0.00  0.00    +0.000 A 
ATOM     25  C   UNL     1      -0.307  16.269  18.521  0.00  0.00    +0.000 A 
ATOM     26  C   UNL     1      -0.111  15.057  19.183  0.00  0.00    +0.000 A 
ENDBRANCH   6  21
BRANCH   1  27
ATOM     27  C   UNL     1       1.484   8.678  17.899  0.00  0.00    +0.000 C 
BRANCH  27  28
ATOM     28  C   UNL     1       2.884   8.061  17.818  0.00  0.00    +0.000 C 
BRANCH  28  29
ATOM     29  C   UNL     1       2.941   6.703  18.505  0.00  0.00    +0.000 C 
BRANCH  29  30
ATOM     30  O   UNL     1       4.259   6.177  18.374  0.00  0.00    +0.000 OA
BRANCH  30  32
ATOM     31  C   UNL     1       6.205   6.710  17.123  0.00  0.00    +0.000 C 
ATOM     32  C   UNL     1       4.773   6.187  17.041  0.00  0.00    +0.000 C 
ATOM     33  C   UNL     1       4.763   4.791  16.426  0.00  0.00    +0.000 C 
ENDBRANCH  30  32
ENDBRANCH  29  30
ENDBRANCH  28  29
ENDBRANCH  27  28
ENDBRANCH   1  27
TORSDOF 6
ENDMDL
MODEL 8
REMARK VINA RESULT:      -6.9      1.695      2.746
REMARK  Name = 
REMARK  8 active torsions:
REMARK  status: ('A' for Active; 'I' for Inactive)
REMARK    1  A    between atoms: C_1  and  C_2
REMARK    2  A    between atoms: C_2  and  C_3
REMARK    3  A    between atoms: C_2  and  O_4
REMARK    4  A    between atoms: O_4  and  C_5
REMARK    5  A    between atoms: C_5  and  C_6
REMARK    6  A    between atoms: C_6  and  C_7
REMARK    7  A    between atoms: C_7  and  N_8
REMARK    8  A    between atoms: C_13  and  C_14
REMARK                            x       y       z     vdW  Elec       q    Type
REMARK                         _______ _______ _______ _____ _____    ______ ____
ROOT
ATOM      1  N   UNL     1       0.940   9.594  18.776  0.00  0.00    +0.000 N 
ATOM      2  C   UNL     1       0.423   8.507  19.591  0.00  0.00    +0.000 C 
ATOM      3  C   UNL     1       1.488   7.582  20.175  0.00  0.00    +0.000 C 
ATOM      4  O   UNL     1       1.361   7.100  21.296  0.00  0.00    +0.000 OA
ATOM      5  N   UNL     1       2.426   7.178  19.223  0.00  0.00    +0.000 N 
ATOM      6  C   UNL     1       3.324   6.040  19.545  0.00  0.00    +0.000 C 
ATOM      7  C   UNL     1       4.113   5.725  18.296  0.00  0.00    +0.000 A 
ATOM      8  N   UNL     1       4.873   4.598  18.094  0.00  0.00    +0.000 N 
ATOM      9  C   UNL     1       5.380   4.600  16.808  0.00  0.00    +0.000 A 
ATOM     10  C   UNL     1       6.157   3.644  16.142  0.00  0.00    +0.000 A 
ATOM     11  C   UNL     1       6.508   3.903  14.812  0.00  0.00    +0.000 A 
ATOM     12  C   UNL     1       6.102   5.073  14.176  0.00  0.00    +0.000 A 
ATOM     13  C   UNL     1       5.332   6.023  14.857  0.00  0.00    +0.000 A 
ATOM     14  C   UNL     1       4.960   5.781  16.195  0.00  0.00    +0.000 A 
ATOM     15  C   UNL     1       4.190   6.489  17.149  0.00  0.00    +0.000 A 
ATOM     16  C   UNL     1       3.477   7.783  17.030  0.00  0.00    +0.000 C 
ATOM     17  C   UNL     1       3.026   8.274  18.427  0.00  0.00    +0.000 C 
ATOM     18  C   UNL     1       2.182   9.530  18.178  0.00  0.00    +0.000 C 
ATOM     19  O   UNL     1       2.641  10.458  17.509  0.00  0.00    +0.000 OA
ATOM     20  H   UNL     1       4.985   3.841  18.752  0.00  0.00    +0.000 HD
ENDROOT
BRANCH   6  21
ATOM     21  C   UNL     1       2.558   4.823  20.044  0.00  0.00    +0.000 A 
ATOM     22  C   UNL     1       1.496   4.279  19.302  0.00  0.00    +0.000 A 
ATOM     23  C   UNL     1       0.702   3.267  19.842  0.00  0.00    +0.000 A 
ATOM     24  C   UNL     1       0.962   2.784  21.123  0.00  0.00    +0.000 A 
ATOM     25  C   UNL     1       2.034   3.289  21.857  0.00  0.00    +0.000 A 
ATOM     26  C   UNL     1       2.834   4.296  21.317  0.00  0.00    +0.000 A 
ENDBRANCH   6  21
BRANCH   1  27
ATOM     27  C   UNL     1       0.049  10.716  18.488  0.00  0.00    +0.000 C 
BRANCH  27  28
ATOM     28  C   UNL     1       0.157  11.854  19.508  0.00  0.00    +0.000 C 
BRANCH  28  29
ATOM     29  C   UNL     1      -1.197  12.199  20.113  0.00  0.00    +0.000 C 
BRANCH  29  30
ATOM     30  O   UNL     1      -1.500  11.250  21.132  0.00  0.00    +0.000 OA
BRANCH  30  32
ATOM     31  C   UNL     1      -1.386  12.402  23.204  0.00  0.00    +0.000 C 
ATOM     32  C   UNL     1      -0.704  11.369  22.312  0.00  0.00    +0.000 C 
ATOM     33  C   UNL     1      -0.590  10.038  23.048  0.00  0.00    +0.000 C 
ENDBRANCH  30  32
ENDBRANCH  29  30
ENDBRANCH  28  29
ENDBRANCH  27  28
ENDBRANCH   1  27
TORSDOF 6
ENDMDL
MODEL 9
REMARK VINA RESULT:      -6.8      0.868      1.446
REMARK  Name = 
REMARK  8 active torsions:
REMARK  status: ('A' for Active; 'I' for Inactive)
REMARK    1  A    between atoms: C_1  and  C_2
REMARK    2  A    between atoms: C_2  and  C_3
REMARK    3  A    between atoms: C_2  and  O_4
REMARK    4  A    between atoms: O_4  and  C_5
REMARK    5  A    between atoms: C_5  and  C_6
REMARK    6  A    between atoms: C_6  and  C_7
REMARK    7  A    between atoms: C_7  and  N_8
REMARK    8  A    between atoms: C_13  and  C_14
REMARK                            x       y       z     vdW  Elec       q    Type
REMARK                         _______ _______ _______ _____ _____    ______ ____
ROOT
ATOM      1  N   UNL     1       0.862   9.555  18.851  0.00  0.00    +0.000 N 
ATOM      2  C   UNL     1       0.361   8.456  19.659  0.00  0.00    +0.000 C 
ATOM      3  C   UNL     1       1.439   7.541  20.235  0.00  0.00    +0.000 C 
ATOM      4  O   UNL     1       1.321   7.050  21.354  0.00  0.00    +0.000 OA
ATOM      5  N   UNL     1       2.381   7.156  19.279  0.00  0.00    +0.000 N 
ATOM      6  C   UNL     1       3.294   6.027  19.592  0.00  0.00    +0.000 C 
ATOM      7  C   UNL     1       4.085   5.731  18.340  0.00  0.00    +0.000 A 
ATOM      8  N   UNL     1       4.859   4.615  18.129  0.00  0.00    +0.000 N 
ATOM      9  C   UNL     1       5.364   4.632  16.842  0.00  0.00    +0.000 A 
ATOM     10  C   UNL     1       6.151   3.690  16.169  0.00  0.00    +0.000 A 
ATOM     11  C   UNL     1       6.496   3.962  14.840  0.00  0.00    +0.000 A 
ATOM     12  C   UNL     1       6.074   5.131  14.212  0.00  0.00    +0.000 A 
ATOM     13  C   UNL     1       5.293   6.067  14.901  0.00  0.00    +0.000 A 
ATOM     14  C   UNL     1       4.926   5.811  16.237  0.00  0.00    +0.000 A 
ATOM     15  C   UNL     1       4.149   6.503  17.198  0.00  0.00    +0.000 A 
ATOM     16  C   UNL     1       3.419   7.789  17.088  0.00  0.00    +0.000 C 
ATOM     17  C   UNL     1       2.965   8.264  18.489  0.00  0.00    +0.000 C 
ATOM     18  C   UNL     1       2.104   9.511  18.250  0.00  0.00    +0.000 C 
ATOM     19  O   UNL     1       2.550  10.449  17.586  0.00  0.00    +0.000 OA
ATOM     20  H   UNL     1       4.982   3.855  18.782  0.00  0.00    +0.000 HD
ENDROOT
BRANCH   6  21
ATOM     21  C   UNL     1       2.544   4.797  20.085  0.00  0.00    +0.000 A 
ATOM     22  C   UNL     1       1.492   4.242  19.339  0.00  0.00    +0.000 A 
ATOM     23  C   UNL     1       0.712   3.216  19.874  0.00  0.00    +0.000 A 
ATOM     24  C   UNL     1       0.977   2.731  21.153  0.00  0.00    +0.000 A 
ATOM     25  C   UNL     1       2.041   3.248  21.891  0.00  0.00    +0.000 A 
ATOM     26  C   UNL     1       2.826   4.269  21.357  0.00  0.00    +0.000 A 
ENDBRANCH   6  21
BRANCH   1  27
ATOM     27  C   UNL     1      -0.044  10.667  18.571  0.00  0.00    +0.000 C 
BRANCH  27  28
ATOM     28  C   UNL     1      -1.283  10.253  17.771  0.00  0.00    +0.000 C 
BRANCH  28  29
ATOM     29  C   UNL     1      -2.253  11.413  17.593  0.00  0.00    +0.000 C 
BRANCH  29  30
ATOM     30  O   UNL     1      -3.510  10.899  17.160  0.00  0.00    +0.000 OA
BRANCH  30  32
ATOM     31  C   UNL     1      -4.061  12.100  19.132  0.00  0.00    +0.000 C 
ATOM     32  C   UNL     1      -4.624  11.302  17.959  0.00  0.00    +0.000 C 
ATOM     33  C   UNL     1      -5.601  12.162  17.164  0.00  0.00    +0.000 C 
ENDBRANCH  30  32
ENDBRANCH  29  30
ENDBRANCH  28  29
ENDBRANCH  27  28
ENDBRANCH   1  27
TORSDOF 6
ENDMDL
