MODEL 1
REMARK VINA RESULT:      -8.9      0.000      0.000
REMARK  Name = 
REMARK  8 active torsions:
REMARK  status: ('A' for Active; 'I' for Inactive)
REMARK    1  A    between atoms: C_1  and  C_2
REMARK    2  A    between atoms: C_2  and  C_3
REMARK    3  A    between atoms: C_2  and  C_4
REMARK    4  A    between atoms: C_4  and  N_5
REMARK    5  A    between atoms: C_4  and  C_18
REMARK    6  A    between atoms: C_6  and  C_8
REMARK    7  A    between atoms: N_20  and  C_21
REMARK    8  A    between atoms: C_21  and  C_22
REMARK                            x       y       z     vdW  Elec       q    Type
REMARK                         _______ _______ _______ _____ _____    ______ ____
ROOT
ATOM      1  C   UNL     1       4.981   5.512  16.965  0.00  0.00    +0.000 C 
ENDROOT
BRANCH   1   2
ATOM      2  N   UNL     1       4.247   6.591  17.631  0.00  0.00    +0.000 N 
ATOM      3  C   UNL     1       2.909   6.498  17.931  0.00  0.00    +0.000 C 
ATOM      4  O   UNL     1       2.249   5.485  17.728  0.00  0.00    +0.000 OA
ATOM      5  H   UNL     1       4.798   7.386  17.939  0.00  0.00    +0.000 HD
BRANCH   3   6
ATOM      6  C   UNL     1       2.273   7.699  18.547  0.00  0.00    +0.000 A 
ATOM      7  C   UNL     1       1.985   8.845  17.800  0.00  0.00    +0.000 A 
ATOM      8  C   UNL     1       1.340   9.929  18.404  0.00  0.00    +0.000 A 
ATOM      9  C   UNL     1       0.970   9.887  19.759  0.00  0.00    +0.000 A 
ATOM     10  C   UNL     1       0.310  10.961  20.372  0.00  0.00    +0.000 A 
ATOM     11  C   UNL     1      -0.054  10.903  21.720  0.00  0.00    +0.000 A 
ATOM     12  C   UNL     1       0.244   9.769  22.470  0.00  0.00    +0.000 A 
ATOM     13  C   UNL     1       0.897   8.690  21.874  0.00  0.00    +0.000 A 
ATOM     14  C   UNL     1       1.264   8.730  20.517  0.00  0.00    +0.000 A 
ATOM     15  C   UNL     1       1.905   7.645  19.896  0.00  0.00    +0.000 A 
ENDBRANCH   3   6
ENDBRANCH   1   2
BRANCH   1  16
ATOM     16  C   UNL     1       5.008   4.315  17.945  0.00  0.00    +0.000 C 
ATOM     17  O   UNL     1       5.724   4.308  18.947  0.00  0.00    +0.000 OA
ATOM     18  N   UNL     1       4.187   3.262  17.604  0.00  0.00    +0.000 N 
ATOM     19  H   UNL     1       3.482   3.409  16.892  0.00  0.00    +0.000 HD
BRANCH  18  20
ATOM     20  C   UNL     1       4.055   2.093  18.445  0.00  0.00    +0.000 C 
BRANCH  20  21
ATOM     21  C   UNL     1       3.086   2.354  19.561  0.00  0.00    +0.000 A 
ATOM     22  C   UNL     1       1.725   2.572  19.328  0.00  0.00    +0.000 A 
ATOM     23  C   UNL     1       0.862   2.760  20.408  0.00  0.00    +0.000 A 
ATOM     24  C   UNL     1       1.391   2.717  21.688  0.00  0.00    +0.000 A 
ATOM     25  N   UNL     1       2.699   2.510  21.950  0.00  0.00    +0.000 NA
ATOM     26  C   UNL     1       3.513   2.332  20.885  0.00  0.00    +0.000 A 
ENDBRANCH  20  21
ENDBRANCH  18  20
ENDBRANCH   1  16
BRANCH   1  28
ATOM     27  C   UNL     1       7.268   4.835  16.002  0.00  0.00    +0.000 C 
ATOM     28  C   UNL     1       6.384   5.982  16.499  0.00  0.00    +0.000 C 
ATOM     29  C   UNL     1       7.140   6.793  17.556  0.00  0.00    +0.000 C 
ENDBRANCH   1  28
TORSDOF 6
ENDMDL
MODEL 2
REMARK VINA RESULT:      -8.5      2.180      4.896
REMARK  Name = 
REMARK  8 active torsions:
REMARK  status: ('A' for Active; 'I' for Inactive)
REMARK    1  A    between atoms: C_1  and  C_2
REMARK    2  A    between atoms: C_2  and  C_3
REMARK    3  A    between atoms: C_2  and  C_4
REMARK    4  A    between atoms: C_4  and  N_5
REMARK    5  A    between atoms: C_4  and  C_18
REMARK    6  A    between atoms: C_6  and  C_8
REMARK    7  A    between atoms: N_20  and  C_21
REMARK    8  A    between atoms: C_21  and  C_22
REMARK                            x       y       z     vdW  Elec       q    Type
REMARK                         _______ _______ _______ _____ _____    ______ ____
ROOT
ATOM      1  C   UNL     1       4.621   4.315  18.654  0.00  0.00    +0.000 C 
ENDROOT
BRANCH   1   2
ATOM      2  N   UNL     1       3.903   5.592  18.629  0.00  0.00    +0.000 N 
ATOM      3  C   UNL     1       3.019   5.962  19.614  0.00  0.00    +0.000 C 
ATOM      4  O   UNL     1       2.817   5.285  20.617  0.00  0.00    +0.000 OA
ATOM      5  H   UNL     1       4.156   6.235  17.884  0.00  0.00    +0.000 HD
BRANCH   3   6
ATOM      6  C   UNL     1       2.306   7.259  19.426  0.00  0.00    +0.000 A 
ATOM      7  C   UNL     1       2.257   7.898  18.183  0.00  0.00    +0.000 A 
ATOM      8  C   UNL     1       1.533   9.087  18.038  0.00  0.00    +0.000 A 
ATOM      9  C   UNL     1       0.847   9.652  19.125  0.00  0.00    +0.000 A 
ATOM     10  C   UNL     1       0.105  10.835  18.989  0.00  0.00    +0.000 A 
ATOM     11  C   UNL     1      -0.574  11.385  20.079  0.00  0.00    +0.000 A 
ATOM     12  C   UNL     1      -0.515  10.758  21.320  0.00  0.00    +0.000 A 
ATOM     13  C   UNL     1       0.216   9.579  21.472  0.00  0.00    +0.000 A 
ATOM     14  C   UNL     1       0.899   9.009  20.383  0.00  0.00    +0.000 A 
ATOM     15  C   UNL     1       1.623   7.812  20.514  0.00  0.00    +0.000 A 
ENDBRANCH   3   6
ENDBRANCH   1   2
BRANCH   1  16
ATOM     16  C   UNL     1       5.980   4.548  17.951  0.00  0.00    +0.000 C 
ATOM     17  O   UNL     1       7.050   4.256  18.486  0.00  0.00    +0.000 OA
ATOM     18  N   UNL     1       5.898   5.115  16.698  0.00  0.00    +0.000 N 
ATOM     19  H   UNL     1       4.998   5.142  16.237  0.00  0.00    +0.000 HD
BRANCH  18  20
ATOM     20  C   UNL     1       7.074   5.344  15.886  0.00  0.00    +0.000 C 
BRANCH  20  21
ATOM     21  C   UNL     1       6.889   4.761  14.515  0.00  0.00    +0.000 A 
ATOM     22  C   UNL     1       5.856   3.867  14.221  0.00  0.00    +0.000 A 
ATOM     23  C   UNL     1       5.703   3.396  12.917  0.00  0.00    +0.000 A 
ATOM     24  C   UNL     1       6.588   3.841  11.949  0.00  0.00    +0.000 A 
ATOM     25  N   UNL     1       7.597   4.702  12.196  0.00  0.00    +0.000 NA
ATOM     26  C   UNL     1       7.724   5.142  13.469  0.00  0.00    +0.000 A 
ENDBRANCH  20  21
ENDBRANCH  18  20
ENDBRANCH   1  16
BRANCH   1  28
ATOM     27  C   UNL     1       2.560   3.681  17.252  0.00  0.00    +0.000 C 
ATOM     28  C   UNL     1       3.774   3.173  18.035  0.00  0.00    +0.000 C 
ATOM     29  C   UNL     1       3.324   2.122  19.055  0.00  0.00    +0.000 C 
ENDBRANCH   1  28
TORSDOF 6
ENDMDL
MODEL 3
REMARK VINA RESULT:      -8.4      1.854      4.593
REMARK  Name = 
REMARK  8 active torsions:
REMARK  status: ('A' for Active; 'I' for Inactive)
REMARK    1  A    between atoms: C_1  and  C_2
REMARK    2  A    between atoms: C_2  and  C_3
REMARK    3  A    between atoms: C_2  and  C_4
REMARK    4  A    between atoms: C_4  and  N_5
REMARK    5  A    between atoms: C_4  and  C_18
REMARK    6  A    between atoms: C_6  and  C_8
REMARK    7  A    between atoms: N_20  and  C_21
REMARK    8  A    between atoms: C_21  and  C_22
REMARK                            x       y       z     vdW  Elec       q    Type
REMARK                         _______ _______ _______ _____ _____    ______ ____
ROOT
ATOM      1  C   UNL     1       3.010   4.313  19.676  0.00  0.00    +0.000 C 
ENDROOT
BRANCH   1   2
ATOM      2  N   UNL     1       2.773   5.730  19.392  0.00  0.00    +0.000 N 
ATOM      3  C   UNL     1       1.961   6.515  20.176  0.00  0.00    +0.000 C 
ATOM      4  O   UNL     1       1.431   6.107  21.204  0.00  0.00    +0.000 OA
ATOM      5  H   UNL     1       3.310   6.133  18.630  0.00  0.00    +0.000 HD
BRANCH   3   6
ATOM      6  C   UNL     1       1.754   7.924  19.732  0.00  0.00    +0.000 A 
ATOM      7  C   UNL     1       2.091   8.347  18.442  0.00  0.00    +0.000 A 
ATOM      8  C   UNL     1       1.832   9.664  18.049  0.00  0.00    +0.000 A 
ATOM      9  C   UNL     1       1.233  10.577  18.933  0.00  0.00    +0.000 A 
ATOM     10  C   UNL     1       0.954  11.897  18.546  0.00  0.00    +0.000 A 
ATOM     11  C   UNL     1       0.355  12.792  19.435  0.00  0.00    +0.000 A 
ATOM     12  C   UNL     1       0.032  12.379  20.723  0.00  0.00    +0.000 A 
ATOM     13  C   UNL     1       0.299  11.069  21.124  0.00  0.00    +0.000 A 
ATOM     14  C   UNL     1       0.895  10.152  20.239  0.00  0.00    +0.000 A 
ATOM     15  C   UNL     1       1.153   8.825  20.619  0.00  0.00    +0.000 A 
ENDBRANCH   3   6
ENDBRANCH   1   2
BRANCH   1  16
ATOM     16  C   UNL     1       4.495   4.030  19.346  0.00  0.00    +0.000 C 
ATOM     17  O   UNL     1       5.070   3.017  19.747  0.00  0.00    +0.000 OA
ATOM     18  N   UNL     1       5.120   4.997  18.590  0.00  0.00    +0.000 N 
ATOM     19  H   UNL     1       4.549   5.693  18.127  0.00  0.00    +0.000 HD
BRANCH  18  20
ATOM     20  C   UNL     1       6.490   4.854  18.149  0.00  0.00    +0.000 C 
BRANCH  20  21
ATOM     21  C   UNL     1       6.551   4.701  16.657  0.00  0.00    +0.000 A 
ATOM     22  C   UNL     1       5.646   3.900  15.954  0.00  0.00    +0.000 A 
ATOM     23  C   UNL     1       5.720   3.835  14.563  0.00  0.00    +0.000 A 
ATOM     24  C   UNL     1       6.695   4.580  13.920  0.00  0.00    +0.000 A 
ATOM     25  N   UNL     1       7.585   5.363  14.565  0.00  0.00    +0.000 NA
ATOM     26  C   UNL     1       7.493   5.406  15.914  0.00  0.00    +0.000 A 
ENDBRANCH  20  21
ENDBRANCH  18  20
ENDBRANCH   1  16
BRANCH   1  28
ATOM     27  C   UNL     1       1.504   4.028  17.610  0.00  0.00    +0.000 C 
ATOM     28  C   UNL     1       2.007   3.406  18.915  0.00  0.00    +0.000 C 
ATOM     29  C   UNL     1       0.813   2.965  19.768  0.00  0.00    +0.000 C 
ENDBRANCH   1  28
TORSDOF 6
ENDMDL
MODEL 4
REMARK VINA RESULT:      -8.4      1.727      4.593
REMARK  Name = 
REMARK  8 active torsions:
REMARK  status: ('A' for Active; 'I' for Inactive)
REMARK    1  A    between atoms: C_1  and  C_2
REMARK    2  A    between atoms: C_2  and  C_3
REMARK    3  A    between atoms: C_2  and  C_4
REMARK    4  A    between atoms: C_4  and  N_5
REMARK    5  A    between atoms: C_4  and  C_18
REMARK    6  A    between atoms: C_6  and  C_8
REMARK    7  A    between atoms: N_20  and  C_21
REMARK    8  A    between atoms: C_21  and  C_22
REMARK                            x       y       z     vdW  Elec       q    Type
REMARK                         _______ _______ _______ _____ _____    ______ ____
ROOT
ATOM      1  C   UNL     1       3.805   4.092  19.370  0.00  0.00    +0.000 C 
ENDROOT
BRANCH   1   2
ATOM      2  N   UNL     1       3.062   5.332  19.607  0.00  0.00    +0.000 N 
ATOM      3  C   UNL     1       3.003   6.346  18.680  0.00  0.00    +0.000 C 
ATOM      4  O   UNL     1       3.508   6.260  17.565  0.00  0.00    +0.000 OA
ATOM      5  H   UNL     1       2.517   5.374  20.462  0.00  0.00    +0.000 HD
BRANCH   3   6
ATOM      6  C   UNL     1       2.268   7.582  19.080  0.00  0.00    +0.000 A 
ATOM      7  C   UNL     1       1.994   8.603  18.166  0.00  0.00    +0.000 A 
ATOM      8  C   UNL     1       1.257   9.722  18.569  0.00  0.00    +0.000 A 
ATOM      9  C   UNL     1       0.780   9.836  19.885  0.00  0.00    +0.000 A 
ATOM     10  C   UNL     1       0.027  10.945  20.298  0.00  0.00    +0.000 A 
ATOM     11  C   UNL     1      -0.442  11.045  21.610  0.00  0.00    +0.000 A 
ATOM     12  C   UNL     1      -0.159  10.035  22.526  0.00  0.00    +0.000 A 
ATOM     13  C   UNL     1       0.586   8.924  22.131  0.00  0.00    +0.000 A 
ATOM     14  C   UNL     1       1.060   8.805  20.812  0.00  0.00    +0.000 A 
ATOM     15  C   UNL     1       1.795   7.684  20.392  0.00  0.00    +0.000 A 
ENDBRANCH   3   6
ENDBRANCH   1   2
BRANCH   1  16
ATOM     16  C   UNL     1       5.242   4.498  18.966  0.00  0.00    +0.000 C 
ATOM     17  O   UNL     1       5.998   5.082  19.743  0.00  0.00    +0.000 OA
ATOM     18  N   UNL     1       5.600   4.169  17.677  0.00  0.00    +0.000 N 
ATOM     19  H   UNL     1       5.019   3.519  17.164  0.00  0.00    +0.000 HD
BRANCH  18  20
ATOM     20  C   UNL     1       6.928   4.428  17.164  0.00  0.00    +0.000 C 
BRANCH  20  21
ATOM     21  C   UNL     1       6.916   4.461  15.664  0.00  0.00    +0.000 A 
ATOM     22  C   UNL     1       6.019   3.699  14.910  0.00  0.00    +0.000 A 
ATOM     23  C   UNL     1       6.020   3.807  13.520  0.00  0.00    +0.000 A 
ATOM     24  C   UNL     1       6.917   4.681  12.929  0.00  0.00    +0.000 A 
ATOM     25  N   UNL     1       7.798   5.432  13.623  0.00  0.00    +0.000 NA
ATOM     26  C   UNL     1       7.777   5.306  14.970  0.00  0.00    +0.000 A 
ENDBRANCH  20  21
ENDBRANCH  18  20
ENDBRANCH   1  16
BRANCH   1  28
ATOM     27  C   UNL     1       1.565   3.369  18.330  0.00  0.00    +0.000 C 
ATOM     28  C   UNL     1       3.086   3.188  18.335  0.00  0.00    +0.000 C 
ATOM     29  C   UNL     1       3.425   1.701  18.482  0.00  0.00    +0.000 C 
ENDBRANCH   1  28
TORSDOF 6
ENDMDL
MODEL 5
REMARK VINA RESULT:      -8.1      0.865      1.192
REMARK  Name = 
REMARK  8 active torsions:
REMARK  status: ('A' for Active; 'I' for Inactive)
REMARK    1  A    between atoms: C_1  and  C_2
REMARK    2  A    between atoms: C_2  and  C_3
REMARK    3  A    between atoms: C_2  and  C_4
REMARK    4  A    between atoms: C_4  and  N_5
REMARK    5  A    between atoms: C_4  and  C_18
REMARK    6  A    between atoms: C_6  and  C_8
REMARK    7  A    between atoms: N_20  and  C_21
REMARK    8  A    between atoms: C_21  and  C_22
REMARK                            x       y       z     vdW  Elec       q    Type
REMARK                         _______ _______ _______ _____ _____    ______ ____
ROOT
ATOM      1  C   UNL     1       4.935   5.462  16.774  0.00  0.00    +0.000 C 
ENDROOT
BRANCH   1   2
ATOM      2  N   UNL     1       4.075   6.574  17.184  0.00  0.00    +0.000 N 
ATOM      3  C   UNL     1       3.490   6.636  18.427  0.00  0.00    +0.000 C 
ATOM      4  O   UNL     1       3.699   5.804  19.304  0.00  0.00    +0.000 OA
ATOM      5  H   UNL     1       3.997   7.348  16.531  0.00  0.00    +0.000 HD
BRANCH   3   6
ATOM      6  C   UNL     1       2.582   7.791  18.687  0.00  0.00    +0.000 A 
ATOM      7  C   UNL     1       2.272   8.723  17.691  0.00  0.00    +0.000 A 
ATOM      8  C   UNL     1       1.375   9.761  17.961  0.00  0.00    +0.000 A 
ATOM      9  C   UNL     1       0.773   9.885  19.225  0.00  0.00    +0.000 A 
ATOM     10  C   UNL     1      -0.140  10.913  19.504  0.00  0.00    +0.000 A 
ATOM     11  C   UNL     1      -0.732  11.023  20.764  0.00  0.00    +0.000 A 
ATOM     12  C   UNL     1      -0.415  10.105  21.761  0.00  0.00    +0.000 A 
ATOM     13  C   UNL     1       0.488   9.074  21.499  0.00  0.00    +0.000 A 
ATOM     14  C   UNL     1       1.089   8.946  20.234  0.00  0.00    +0.000 A 
ATOM     15  C   UNL     1       1.985   7.903  19.947  0.00  0.00    +0.000 A 
ENDBRANCH   3   6
ENDBRANCH   1   2
BRANCH   1  16
ATOM     16  C   UNL     1       4.185   4.156  17.131  0.00  0.00    +0.000 C 
ATOM     17  O   UNL     1       3.181   3.792  16.517  0.00  0.00    +0.000 OA
ATOM     18  N   UNL     1       4.715   3.450  18.188  0.00  0.00    +0.000 N 
ATOM     19  H   UNL     1       5.642   3.690  18.515  0.00  0.00    +0.000 HD
BRANCH  18  20
ATOM     20  C   UNL     1       4.164   2.180  18.610  0.00  0.00    +0.000 C 
BRANCH  20  21
ATOM     21  C   UNL     1       3.122   2.385  19.672  0.00  0.00    +0.000 A 
ATOM     22  C   UNL     1       1.762   2.493  19.368  0.00  0.00    +0.000 A 
ATOM     23  C   UNL     1       0.834   2.633  20.399  0.00  0.00    +0.000 A 
ATOM     24  C   UNL     1       1.299   2.653  21.704  0.00  0.00    +0.000 A 
ATOM     25  N   UNL     1       2.603   2.552  22.035  0.00  0.00    +0.000 NA
ATOM     26  C   UNL     1       3.482   2.419  21.015  0.00  0.00    +0.000 A 
ENDBRANCH  20  21
ENDBRANCH  18  20
ENDBRANCH   1  16
BRANCH   1  28
ATOM     27  C   UNL     1       6.892   7.005  17.410  0.00  0.00    +0.000 C 
ATOM     28  C   UNL     1       6.348   5.574  17.403  0.00  0.00    +0.000 C 
ATOM     29  C   UNL     1       7.378   4.636  16.765  0.00  0.00    +0.000 C 
ENDBRANCH   1  28
TORSDOF 6
ENDMDL
MODEL 6
REMARK VINA RESULT:      -8.1      1.037      1.206
REMARK  Name = 
REMARK  8 active torsions:
REMARK  status: ('A' for Active; 'I' for Inactive)
REMARK    1  A    between atoms: C_1  and  C_2
REMARK    2  A    between atoms: C_2  and  C_3
REMARK    3  A    between atoms: C_2  and  C_4
REMARK    4  A    between atoms: C_4  and  N_5
REMARK    5  A    between atoms: C_4  and  C_18
REMARK    6  A    between atoms: C_6  and  C_8
REMARK    7  A    between atoms: N_20  and  C_21
REMARK    8  A    between atoms: C_21  and  C_22
REMARK                            x       y       z     vdW  Elec       q    Type
REMARK                         _______ _______ _______ _____ _____    ______ ____
ROOT
ATOM      1  C   UNL     1       6.044   6.128  17.168  0.00  0.00    +0.000 C 
ENDROOT
BRANCH   1   2
ATOM      2  N   UNL     1       5.028   6.963  17.811  0.00  0.00    +0.000 N 
ATOM      3  C   UNL     1       3.681   6.759  17.628  0.00  0.00    +0.000 C 
ATOM      4  O   UNL     1       3.231   5.827  16.971  0.00  0.00    +0.000 OA
ATOM      5  H   UNL     1       5.367   7.655  18.472  0.00  0.00    +0.000 HD
BRANCH   3   6
ATOM      6  C   UNL     1       2.758   7.728  18.289  0.00  0.00    +0.000 A 
ATOM      7  C   UNL     1       2.268   8.853  17.618  0.00  0.00    +0.000 A 
ATOM      8  C   UNL     1       1.363   9.708  18.257  0.00  0.00    +0.000 A 
ATOM      9  C   UNL     1       0.932   9.453  19.570  0.00  0.00    +0.000 A 
ATOM     10  C   UNL     1       0.014  10.294  20.216  0.00  0.00    +0.000 A 
ATOM     11  C   UNL     1      -0.407  10.027  21.520  0.00  0.00    +0.000 A 
ATOM     12  C   UNL     1       0.090   8.915  22.195  0.00  0.00    +0.000 A 
ATOM     13  C   UNL     1       1.001   8.067  21.566  0.00  0.00    +0.000 A 
ATOM     14  C   UNL     1       1.430   8.318  20.250  0.00  0.00    +0.000 A 
ATOM     15  C   UNL     1       2.332   7.463  19.595  0.00  0.00    +0.000 A 
ENDBRANCH   3   6
ENDBRANCH   1   2
BRANCH   1  16
ATOM     16  C   UNL     1       5.637   4.655  17.410  0.00  0.00    +0.000 C 
ATOM     17  O   UNL     1       5.827   3.778  16.567  0.00  0.00    +0.000 OA
ATOM     18  N   UNL     1       5.038   4.408  18.626  0.00  0.00    +0.000 N 
ATOM     19  H   UNL     1       5.094   5.117  19.346  0.00  0.00    +0.000 HD
BRANCH  18  20
ATOM     20  C   UNL     1       4.650   3.074  19.029  0.00  0.00    +0.000 C 
BRANCH  20  21
ATOM     21  C   UNL     1       3.432   3.122  19.906  0.00  0.00    +0.000 A 
ATOM     22  C   UNL     1       2.225   3.678  19.472  0.00  0.00    +0.000 A 
ATOM     23  C   UNL     1       1.112   3.651  20.313  0.00  0.00    +0.000 A 
ATOM     24  C   UNL     1       1.243   3.060  21.558  0.00  0.00    +0.000 A 
ATOM     25  N   UNL     1       2.391   2.513  22.011  0.00  0.00    +0.000 NA
ATOM     26  C   UNL     1       3.456   2.555  21.177  0.00  0.00    +0.000 A 
ENDBRANCH  20  21
ENDBRANCH  18  20
ENDBRANCH   1  16
BRANCH   1  28
ATOM     27  C   UNL     1       7.779   5.917  19.056  0.00  0.00    +0.000 C 
ATOM     28  C   UNL     1       7.470   6.481  17.666  0.00  0.00    +0.000 C 
ATOM     29  C   UNL     1       7.771   7.984  17.643  0.00  0.00    +0.000 C 
ENDBRANCH   1  28
TORSDOF 6
ENDMDL
MODEL 7
REMARK VINA RESULT:      -8.0      2.287      4.952
REMARK  Name = 
REMARK  8 active torsions:
REMARK  status: ('A' for Active; 'I' for Inactive)
REMARK    1  A    between atoms: C_1  and  C_2
REMARK    2  A    between atoms: C_2  and  C_3
REMARK    3  A    between atoms: C_2  and  C_4
REMARK    4  A    between atoms: C_4  and  N_5
REMARK    5  A    between atoms: C_4  and  C_18
REMARK    6  A    between atoms: C_6  and  C_8
REMARK    7  A    between atoms: N_20  and  C_21
REMARK    8  A    between atoms: C_21  and  C_22
REMARK                            x       y       z     vdW  Elec       q    Type
REMARK                         _______ _______ _______ _____ _____    ______ ____
ROOT
ATOM      1  C   UNL     1       3.775   5.192  17.893  0.00  0.00    +0.000 C 
ENDROOT
BRANCH   1   2
ATOM      2  N   UNL     1       3.037   6.381  18.325  0.00  0.00    +0.000 N 
ATOM      3  C   UNL     1       2.663   6.584  19.632  0.00  0.00    +0.000 C 
ATOM      4  O   UNL     1       2.977   5.822  20.541  0.00  0.00    +0.000 OA
ATOM      5  H   UNL     1       2.885   7.097  17.621  0.00  0.00    +0.000 HD
BRANCH   3   6
ATOM      6  C   UNL     1       1.855   7.805  19.920  0.00  0.00    +0.000 A 
ATOM      7  C   UNL     1       1.577   8.753  18.931  0.00  0.00    +0.000 A 
ATOM      8  C   UNL     1       0.772   9.857  19.229  0.00  0.00    +0.000 A 
ATOM      9  C   UNL     1       0.229  10.030  20.513  0.00  0.00    +0.000 A 
ATOM     10  C   UNL     1      -0.593  11.125  20.821  0.00  0.00    +0.000 A 
ATOM     11  C   UNL     1      -1.127  11.282  22.101  0.00  0.00    +0.000 A 
ATOM     12  C   UNL     1      -0.841  10.346  23.091  0.00  0.00    +0.000 A 
ATOM     13  C   UNL     1      -0.029   9.250  22.802  0.00  0.00    +0.000 A 
ATOM     14  C   UNL     1       0.512   9.073  21.515  0.00  0.00    +0.000 A 
ATOM     15  C   UNL     1       1.316   7.965  21.201  0.00  0.00    +0.000 A 
ENDBRANCH   3   6
ENDBRANCH   1   2
BRANCH   1  16
ATOM     16  C   UNL     1       4.905   5.680  16.955  0.00  0.00    +0.000 C 
ATOM     17  O   UNL     1       4.842   6.759  16.364  0.00  0.00    +0.000 OA
ATOM     18  N   UNL     1       5.968   4.814  16.823  0.00  0.00    +0.000 N 
ATOM     19  H   UNL     1       6.055   4.050  17.480  0.00  0.00    +0.000 HD
BRANCH  18  20
ATOM     20  C   UNL     1       7.130   5.147  16.027  0.00  0.00    +0.000 C 
BRANCH  20  21
ATOM     21  C   UNL     1       6.954   4.672  14.614  0.00  0.00    +0.000 A 
ATOM     22  C   UNL     1       5.977   3.737  14.260  0.00  0.00    +0.000 A 
ATOM     23  C   UNL     1       5.827   3.368  12.924  0.00  0.00    +0.000 A 
ATOM     24  C   UNL     1       6.659   3.953  11.983  0.00  0.00    +0.000 A 
ATOM     25  N   UNL     1       7.613   4.858  12.287  0.00  0.00    +0.000 NA
ATOM     26  C   UNL     1       7.738   5.196  13.591  0.00  0.00    +0.000 A 
ENDBRANCH  20  21
ENDBRANCH  18  20
ENDBRANCH   1  16
BRANCH   1  28
ATOM     27  C   UNL     1       1.359   4.358  17.606  0.00  0.00    +0.000 C 
ATOM     28  C   UNL     1       2.833   4.137  17.257  0.00  0.00    +0.000 C 
ATOM     29  C   UNL     1       3.226   2.692  17.579  0.00  0.00    +0.000 C 
ENDBRANCH   1  28
TORSDOF 6
ENDMDL
MODEL 8
REMARK VINA RESULT:      -7.9      1.817      4.695
REMARK  Name = 
REMARK  8 active torsions:
REMARK  status: ('A' for Active; 'I' for Inactive)
REMARK    1  A    between atoms: C_1  and  C_2
REMARK    2  A    between atoms: C_2  and  C_3
REMARK    3  A    between atoms: C_2  and  C_4
REMARK    4  A    between atoms: C_4  and  N_5
REMARK    5  A    between atoms: C_4  and  C_18
REMARK    6  A    between atoms: C_6  and  C_8
REMARK    7  A    between atoms: N_20  and  C_21
REMARK    8  A    between atoms: C_21  and  C_22
REMARK                            x       y       z     vdW  Elec       q    Type
REMARK                         _______ _______ _______ _____ _____    ______ ____
ROOT
ATOM      1  C   UNL     1       3.160   3.934  18.862  0.00  0.00    +0.000 C 
ENDROOT
BRANCH   1   2
ATOM      2  N   UNL     1       2.701   5.308  19.076  0.00  0.00    +0.000 N 
ATOM      3  C   UNL     1       2.223   5.746  20.288  0.00  0.00    +0.000 C 
ATOM      4  O   UNL     1       2.207   5.043  21.293  0.00  0.00    +0.000 OA
ATOM      5  H   UNL     1       2.834   5.953  18.303  0.00  0.00    +0.000 HD
BRANCH   3   6
ATOM      6  C   UNL     1       1.725   7.152  20.347  0.00  0.00    +0.000 A 
ATOM      7  C   UNL     1       1.887   8.036  19.276  0.00  0.00    +0.000 A 
ATOM      8  C   UNL     1       1.359   9.329  19.352  0.00  0.00    +0.000 A 
ATOM      9  C   UNL     1       0.661   9.759  20.492  0.00  0.00    +0.000 A 
ATOM     10  C   UNL     1       0.113  11.048  20.575  0.00  0.00    +0.000 A 
ATOM     11  C   UNL     1      -0.580  11.460  21.714  0.00  0.00    +0.000 A 
ATOM     12  C   UNL     1      -0.731  10.587  22.788  0.00  0.00    +0.000 A 
ATOM     13  C   UNL     1      -0.196   9.300  22.721  0.00  0.00    +0.000 A 
ATOM     14  C   UNL     1       0.499   8.867  21.578  0.00  0.00    +0.000 A 
ATOM     15  C   UNL     1       1.028   7.569  21.486  0.00  0.00    +0.000 A 
ENDBRANCH   3   6
ENDBRANCH   1   2
BRANCH   1  16
ATOM     16  C   UNL     1       4.480   4.020  18.059  0.00  0.00    +0.000 C 
ATOM     17  O   UNL     1       4.517   3.825  16.843  0.00  0.00    +0.000 OA
ATOM     18  N   UNL     1       5.599   4.313  18.806  0.00  0.00    +0.000 N 
ATOM     19  H   UNL     1       5.475   4.658  19.750  0.00  0.00    +0.000 HD
BRANCH  18  20
ATOM     20  C   UNL     1       6.900   4.484  18.197  0.00  0.00    +0.000 C 
BRANCH  20  21
ATOM     21  C   UNL     1       7.238   5.942  18.078  0.00  0.00    +0.000 A 
ATOM     22  C   UNL     1       8.177   6.558  18.911  0.00  0.00    +0.000 A 
ATOM     23  C   UNL     1       8.487   7.905  18.722  0.00  0.00    +0.000 A 
ATOM     24  C   UNL     1       7.851   8.589  17.699  0.00  0.00    +0.000 A 
ATOM     25  N   UNL     1       6.940   8.028  16.877  0.00  0.00    +0.000 NA
ATOM     26  C   UNL     1       6.656   6.722  17.083  0.00  0.00    +0.000 A 
ENDBRANCH  20  21
ENDBRANCH  18  20
ENDBRANCH   1  16
BRANCH   1  28
ATOM     27  C   UNL     1       1.051   3.892  17.388  0.00  0.00    +0.000 C 
ATOM     28  C   UNL     1       2.063   3.067  18.189  0.00  0.00    +0.000 C 
ATOM     29  C   UNL     1       1.321   2.152  19.168  0.00  0.00    +0.000 C 
ENDBRANCH   1  28
TORSDOF 6
ENDMDL
MODEL 9
REMARK VINA RESULT:      -7.9      1.634      4.648
REMARK  Name = 
REMARK  8 active torsions:
REMARK  status: ('A' for Active; 'I' for Inactive)
REMARK    1  A    between atoms: C_1  and  C_2
REMARK    2  A    between atoms: C_2  and  C_3
REMARK    3  A    between atoms: C_2  and  C_4
REMARK    4  A    between atoms: C_4  and  N_5
REMARK    5  A    between atoms: C_4  and  C_18
REMARK    6  A    between atoms: C_6  and  C_8
REMARK    7  A    between atoms: N_20  and  C_21
REMARK    8  A    between atoms: C_21  and  C_22
REMARK                            x       y       z     vdW  Elec       q    Type
REMARK                         _______ _______ _______ _____ _____    ______ ____
ROOT
ATOM      1  C   UNL     1       2.995   3.737  19.310  0.00  0.00    +0.000 C 
ENDROOT
BRANCH   1   2
ATOM      2  N   UNL     1       2.406   5.076  19.236  0.00  0.00    +0.000 N 
ATOM      3  C   UNL     1       3.146   6.191  18.920  0.00  0.00    +0.000 C 
ATOM      4  O   UNL     1       4.332   6.139  18.613  0.00  0.00    +0.000 OA
ATOM      5  H   UNL     1       1.398   5.131  19.346  0.00  0.00    +0.000 HD
BRANCH   3   6
ATOM      6  C   UNL     1       2.432   7.501  18.947  0.00  0.00    +0.000 A 
ATOM      7  C   UNL     1       2.361   8.324  17.819  0.00  0.00    +0.000 A 
ATOM      8  C   UNL     1       1.637   9.520  17.872  0.00  0.00    +0.000 A 
ATOM      9  C   UNL     1       0.973   9.912  19.047  0.00  0.00    +0.000 A 
ATOM     10  C   UNL     1       0.232  11.101  19.108  0.00  0.00    +0.000 A 
ATOM     11  C   UNL     1      -0.425  11.476  20.282  0.00  0.00    +0.000 A 
ATOM     12  C   UNL     1      -0.344  10.665  21.411  0.00  0.00    +0.000 A 
ATOM     13  C   UNL     1       0.386   9.477  21.366  0.00  0.00    +0.000 A 
ATOM     14  C   UNL     1       1.048   9.082  20.189  0.00  0.00    +0.000 A 
ATOM     15  C   UNL     1       1.771   7.880  20.121  0.00  0.00    +0.000 A 
ENDBRANCH   3   6
ENDBRANCH   1   2
BRANCH   1  16
ATOM     16  C   UNL     1       3.212   3.258  17.855  0.00  0.00    +0.000 C 
ATOM     17  O   UNL     1       2.269   3.019  17.099  0.00  0.00    +0.000 OA
ATOM     18  N   UNL     1       4.529   3.108  17.481  0.00  0.00    +0.000 N 
ATOM     19  H   UNL     1       5.248   3.509  18.069  0.00  0.00    +0.000 HD
BRANCH  18  20
ATOM     20  C   UNL     1       4.902   2.723  16.137  0.00  0.00    +0.000 C 
BRANCH  20  21
ATOM     21  C   UNL     1       5.866   3.714  15.553  0.00  0.00    +0.000 A 
ATOM     22  C   UNL     1       6.063   3.836  14.175  0.00  0.00    +0.000 A 
ATOM     23  C   UNL     1       6.937   4.808  13.686  0.00  0.00    +0.000 A 
ATOM     24  C   UNL     1       7.580   5.631  14.597  0.00  0.00    +0.000 A 
ATOM     25  N   UNL     1       7.415   5.541  15.933  0.00  0.00    +0.000 NA
ATOM     26  C   UNL     1       6.565   4.589  16.379  0.00  0.00    +0.000 A 
ENDBRANCH  20  21
ENDBRANCH  18  20
ENDBRANCH   1  16
BRANCH   1  28
ATOM     27  C   UNL     1       0.623   3.041  20.027  0.00  0.00    +0.000 C 
ATOM     28  C   UNL     1       2.126   2.781  20.169  0.00  0.00    +0.000 C 
ATOM     29  C   UNL     1       2.508   2.774  21.653  0.00  0.00    +0.000 C 
ENDBRANCH   1  28
TORSDOF 6
ENDMDL
