MODEL 1
REMARK VINA RESULT:      -7.2      0.000      0.000
REMARK  Name = 
REMARK  11 active torsions:
REMARK  status: ('A' for Active; 'I' for Inactive)
REMARK    1  A    between atoms: C_1  and  C_2
REMARK    2  A    between atoms: C_4  and  N_5
REMARK    3  A    between atoms: C_6  and  C_8
REMARK    4  A    between atoms: C_8  and  N_9
REMARK    5  A    between atoms: N_9  and  C_10
REMARK    6  A    between atoms: N_9  and  C_11
REMARK    7  A    between atoms: C_11  and  C_12
REMARK    8  A    between atoms: C_11  and  C_13
REMARK    9  A    between atoms: C_13  and  C_14
REMARK   10  A    between atoms: C_14  and  C_15
REMARK   11  A    between atoms: C_14  and  C_16
REMARK                            x       y       z     vdW  Elec       q    Type
REMARK                         _______ _______ _______ _____ _____    ______ ____
ROOT
ATOM      1  N   UNL     1       6.032   4.050  16.864  0.00  0.00    +0.000 N 
ATOM      2  C   UNL     1       5.651   5.007  17.786  0.00  0.00    +0.000 C 
ATOM      3  O   UNL     1       5.655   6.222  17.624  0.00  0.00    +0.000 OA
ATOM      4  H   UNL     1       6.012   3.079  17.151  0.00  0.00    +0.000 HD
ENDROOT
BRANCH   1   8
ATOM      5  C   UNL     1       7.200   4.515  12.033  0.00  0.00    +0.000 C 
ATOM      6  C   UNL     1       7.076   4.613  13.501  0.00  0.00    +0.000 A 
ATOM      7  C   UNL     1       6.238   3.878  14.381  0.00  0.00    +0.000 A 
ATOM      8  C   UNL     1       6.528   4.379  15.627  0.00  0.00    +0.000 A 
ATOM      9  O   UNL     1       7.474   5.349  15.502  0.00  0.00    +0.000 OA
ATOM     10  N   UNL     1       7.824   5.494  14.173  0.00  0.00    +0.000 NA
ENDBRANCH   1   8
BRANCH   2  11
ATOM     11  C   UNL     1       5.140   4.401  19.098  0.00  0.00    +0.000 C 
BRANCH  11  12
ATOM     12  N   UNL     1       4.351   3.166  18.865  0.00  0.00    +0.000 NA
ATOM     13  C   UNL     1       4.509   2.240  20.002  0.00  0.00    +0.000 C 
BRANCH  12  14
ATOM     14  C   UNL     1       2.909   3.447  18.619  0.00  0.00    +0.000 C 
ATOM     15  C   UNL     1       2.480   3.389  17.138  0.00  0.00    +0.000 C 
BRANCH  14  16
ATOM     16  C   UNL     1       1.962   2.517  19.421  0.00  0.00    +0.000 C 
BRANCH  16  17
ATOM     17  C   UNL     1       1.089   3.183  20.502  0.00  0.00    +0.000 C 
ATOM     18  C   UNL     1       1.380   2.639  21.901  0.00  0.00    +0.000 C 
ATOM     19  C   UNL     1       1.333   4.696  20.475  0.00  0.00    +0.000 C 
ENDBRANCH  16  17
ENDBRANCH  14  16
ENDBRANCH  12  14
ENDBRANCH  11  12
ENDBRANCH   2  11
TORSDOF 6
ENDMDL
MODEL 2
REMARK VINA RESULT:      -7.1      1.170      1.576
REMARK  Name = 
REMARK  11 active torsions:
REMARK  status: ('A' for Active; 'I' for Inactive)
REMARK    1  A    between atoms: C_1  and  C_2
REMARK    2  A    between atoms: C_4  and  N_5
REMARK    3  A    between atoms: C_6  and  C_8
REMARK    4  A    between atoms: C_8  and  N_9
REMARK    5  A    between atoms: N_9  and  C_10
REMARK    6  A    between atoms: N_9  and  C_11
REMARK    7  A    between atoms: C_11  and  C_12
REMARK    8  A    between atoms: C_11  and  C_13
REMARK    9  A    between atoms: C_13  and  C_14
REMARK   10  A    between atoms: C_14  and  C_15
REMARK   11  A    between atoms: C_14  and  C_16
REMARK                            x       y       z     vdW  Elec       q    Type
REMARK                         _______ _______ _______ _____ _____    ______ ____
ROOT
ATOM      1  N   UNL     1       5.808   4.829  16.745  0.00  0.00    +0.000 N 
ATOM      2  C   UNL     1       6.551   4.595  17.887  0.00  0.00    +0.000 C 
ATOM      3  O   UNL     1       7.760   4.395  17.947  0.00  0.00    +0.000 OA
ATOM      4  H   UNL     1       4.807   4.942  16.844  0.00  0.00    +0.000 HD
ENDROOT
BRANCH   1   8
ATOM      5  C   UNL     1       7.172   3.996  12.016  0.00  0.00    +0.000 C 
ATOM      6  C   UNL     1       7.001   4.470  13.404  0.00  0.00    +0.000 A 
ATOM      7  C   UNL     1       6.093   4.021  14.399  0.00  0.00    +0.000 A 
ATOM      8  C   UNL     1       6.365   4.809  15.490  0.00  0.00    +0.000 A 
ATOM      9  O   UNL     1       7.367   5.673  15.171  0.00  0.00    +0.000 OA
ATOM     10  N   UNL     1       7.772   5.459  13.867  0.00  0.00    +0.000 NA
ENDBRANCH   1   8
BRANCH   2  11
ATOM     11  C   UNL     1       5.712   4.659  19.168  0.00  0.00    +0.000 C 
BRANCH  11  12
ATOM     12  N   UNL     1       4.440   3.908  19.032  0.00  0.00    +0.000 NA
ATOM     13  C   UNL     1       4.482   2.683  19.853  0.00  0.00    +0.000 C 
BRANCH  12  14
ATOM     14  C   UNL     1       3.250   4.730  19.387  0.00  0.00    +0.000 C 
ATOM     15  C   UNL     1       3.459   6.256  19.276  0.00  0.00    +0.000 C 
BRANCH  14  16
ATOM     16  C   UNL     1       1.988   4.366  18.562  0.00  0.00    +0.000 C 
BRANCH  16  17
ATOM     17  C   UNL     1       0.907   3.535  19.280  0.00  0.00    +0.000 C 
ATOM     18  C   UNL     1       0.918   2.069  18.846  0.00  0.00    +0.000 C 
ATOM     19  C   UNL     1       1.133   3.627  20.793  0.00  0.00    +0.000 C 
ENDBRANCH  16  17
ENDBRANCH  14  16
ENDBRANCH  12  14
ENDBRANCH  11  12
ENDBRANCH   2  11
TORSDOF 6
ENDMDL
MODEL 3
REMARK VINA RESULT:      -6.6      1.010      1.752
REMARK  Name = 
REMARK  11 active torsions:
REMARK  status: ('A' for Active; 'I' for Inactive)
REMARK    1  A    between atoms: C_1  and  C_2
REMARK    2  A    between atoms: C_4  and  N_5
REMARK    3  A    between atoms: C_6  and  C_8
REMARK    4  A    between atoms: C_8  and  N_9
REMARK    5  A    between atoms: N_9  and  C_10
REMARK    6  A    between atoms: N_9  and  C_11
REMARK    7  A    between atoms: C_11  and  C_12
REMARK    8  A    between atoms: C_11  and  C_13
REMARK    9  A    between atoms: C_13  and  C_14
REMARK   10  A    between atoms: C_14  and  C_15
REMARK   11  A    between atoms: C_14  and  C_16
REMARK                            x       y       z     vdW  Elec       q    Type
REMARK                         _______ _______ _______ _____ _____    ______ ____
ROOT
ATOM      1  N   UNL     1       6.492   4.497  17.088  0.00  0.00    +0.000 N 
ATOM      2  C   UNL     1       6.121   5.622  17.801  0.00  0.00    +0.000 C 
ATOM      3  O   UNL     1       5.902   6.739  17.346  0.00  0.00    +0.000 OA
ATOM      4  H   UNL     1       6.676   3.646  17.604  0.00  0.00    +0.000 HD
ENDROOT
BRANCH   1   8
ATOM      5  C   UNL     1       6.607   3.861  12.139  0.00  0.00    +0.000 C 
ATOM      6  C   UNL     1       6.801   4.274  13.542  0.00  0.00    +0.000 A 
ATOM      7  C   UNL     1       6.161   3.792  14.715  0.00  0.00    +0.000 A 
ATOM      8  C   UNL     1       6.716   4.527  15.734  0.00  0.00    +0.000 A 
ATOM      9  O   UNL     1       7.626   5.392  15.208  0.00  0.00    +0.000 OA
ATOM     10  N   UNL     1       7.686   5.232  13.836  0.00  0.00    +0.000 NA
ENDBRANCH   1   8
BRANCH   2  11
ATOM     11  C   UNL     1       5.938   5.345  19.297  0.00  0.00    +0.000 C 
BRANCH  11  12
ATOM     12  N   UNL     1       4.538   4.976  19.624  0.00  0.00    +0.000 NA
ATOM     13  C   UNL     1       3.618   6.051  19.205  0.00  0.00    +0.000 C 
BRANCH  12  14
ATOM     14  C   UNL     1       4.133   3.679  19.016  0.00  0.00    +0.000 C 
ATOM     15  C   UNL     1       4.410   2.438  19.891  0.00  0.00    +0.000 C 
BRANCH  14  16
ATOM     16  C   UNL     1       2.639   3.639  18.603  0.00  0.00    +0.000 C 
BRANCH  16  17
ATOM     17  C   UNL     1       1.673   2.920  19.565  0.00  0.00    +0.000 C 
ATOM     18  C   UNL     1       1.009   3.883  20.551  0.00  0.00    +0.000 C 
ATOM     19  C   UNL     1       0.597   2.201  18.743  0.00  0.00    +0.000 C 
ENDBRANCH  16  17
ENDBRANCH  14  16
ENDBRANCH  12  14
ENDBRANCH  11  12
ENDBRANCH   2  11
TORSDOF 6
ENDMDL
MODEL 4
REMARK VINA RESULT:      -6.5      1.730      2.415
REMARK  Name = 
REMARK  11 active torsions:
REMARK  status: ('A' for Active; 'I' for Inactive)
REMARK    1  A    between atoms: C_1  and  C_2
REMARK    2  A    between atoms: C_4  and  N_5
REMARK    3  A    between atoms: C_6  and  C_8
REMARK    4  A    between atoms: C_8  and  N_9
REMARK    5  A    between atoms: N_9  and  C_10
REMARK    6  A    between atoms: N_9  and  C_11
REMARK    7  A    between atoms: C_11  and  C_12
REMARK    8  A    between atoms: C_11  and  C_13
REMARK    9  A    between atoms: C_13  and  C_14
REMARK   10  A    between atoms: C_14  and  C_15
REMARK   11  A    between atoms: C_14  and  C_16
REMARK                            x       y       z     vdW  Elec       q    Type
REMARK                         _______ _______ _______ _____ _____    ______ ____
ROOT
ATOM      1  N   UNL     1       5.579   4.631  16.925  0.00  0.00    +0.000 N 
ATOM      2  C   UNL     1       6.294   4.477  18.098  0.00  0.00    +0.000 C 
ATOM      3  O   UNL     1       7.514   4.420  18.211  0.00  0.00    +0.000 OA
ATOM      4  H   UNL     1       4.569   4.624  16.980  0.00  0.00    +0.000 HD
ENDROOT
BRANCH   1   8
ATOM      5  C   UNL     1       7.116   4.121  12.203  0.00  0.00    +0.000 C 
ATOM      6  C   UNL     1       6.902   4.491  13.616  0.00  0.00    +0.000 A 
ATOM      7  C   UNL     1       5.937   4.000  14.535  0.00  0.00    +0.000 A 
ATOM      8  C   UNL     1       6.189   4.689  15.696  0.00  0.00    +0.000 A 
ATOM      9  O   UNL     1       7.233   5.536  15.488  0.00  0.00    +0.000 OA
ATOM     10  N   UNL     1       7.686   5.411  14.188  0.00  0.00    +0.000 NA
ENDBRANCH   1   8
BRANCH   2  11
ATOM     11  C   UNL     1       5.399   4.429  19.341  0.00  0.00    +0.000 C 
BRANCH  11  12
ATOM     12  N   UNL     1       4.147   3.673  19.090  0.00  0.00    +0.000 NA
ATOM     13  C   UNL     1       4.065   2.510  19.996  0.00  0.00    +0.000 C 
BRANCH  12  14
ATOM     14  C   UNL     1       2.930   4.521  19.221  0.00  0.00    +0.000 C 
ATOM     15  C   UNL     1       1.901   4.024  20.258  0.00  0.00    +0.000 C 
BRANCH  14  16
ATOM     16  C   UNL     1       3.252   6.002  19.550  0.00  0.00    +0.000 C 
BRANCH  16  17
ATOM     17  C   UNL     1       2.243   7.057  19.055  0.00  0.00    +0.000 C 
ATOM     18  C   UNL     1       1.786   7.994  20.173  0.00  0.00    +0.000 C 
ATOM     19  C   UNL     1       2.890   7.872  17.929  0.00  0.00    +0.000 C 
ENDBRANCH  16  17
ENDBRANCH  14  16
ENDBRANCH  12  14
ENDBRANCH  11  12
ENDBRANCH   2  11
TORSDOF 6
ENDMDL
MODEL 5
REMARK VINA RESULT:      -6.5      1.828      2.756
REMARK  Name = 
REMARK  11 active torsions:
REMARK  status: ('A' for Active; 'I' for Inactive)
REMARK    1  A    between atoms: C_1  and  C_2
REMARK    2  A    between atoms: C_4  and  N_5
REMARK    3  A    between atoms: C_6  and  C_8
REMARK    4  A    between atoms: C_8  and  N_9
REMARK    5  A    between atoms: N_9  and  C_10
REMARK    6  A    between atoms: N_9  and  C_11
REMARK    7  A    between atoms: C_11  and  C_12
REMARK    8  A    between atoms: C_11  and  C_13
REMARK    9  A    between atoms: C_13  and  C_14
REMARK   10  A    between atoms: C_14  and  C_15
REMARK   11  A    between atoms: C_14  and  C_16
REMARK                            x       y       z     vdW  Elec       q    Type
REMARK                         _______ _______ _______ _____ _____    ______ ____
ROOT
ATOM      1  N   UNL     1       5.059   3.757  17.018  0.00  0.00    +0.000 N 
ATOM      2  C   UNL     1       5.345   3.861  18.367  0.00  0.00    +0.000 C 
ATOM      3  O   UNL     1       6.317   4.414  18.869  0.00  0.00    +0.000 OA
ATOM      4  H   UNL     1       4.235   3.236  16.746  0.00  0.00    +0.000 HD
ENDROOT
BRANCH   1   8
ATOM      5  C   UNL     1       7.579   4.924  12.871  0.00  0.00    +0.000 C 
ATOM      6  C   UNL     1       7.045   4.781  14.240  0.00  0.00    +0.000 A 
ATOM      7  C   UNL     1       5.958   3.993  14.700  0.00  0.00    +0.000 A 
ATOM      8  C   UNL     1       5.902   4.242  16.049  0.00  0.00    +0.000 A 
ATOM      9  O   UNL     1       6.889   5.121  16.376  0.00  0.00    +0.000 OA
ATOM     10  N   UNL     1       7.610   5.457  15.246  0.00  0.00    +0.000 NA
ENDBRANCH   1   8
BRANCH   2  11
ATOM     11  C   UNL     1       4.262   3.239  19.256  0.00  0.00    +0.000 C 
BRANCH  11  12
ATOM     12  N   UNL     1       2.923   3.303  18.621  0.00  0.00    +0.000 NA
ATOM     13  C   UNL     1       2.178   2.055  18.878  0.00  0.00    +0.000 C 
BRANCH  12  14
ATOM     14  C   UNL     1       2.133   4.482  19.071  0.00  0.00    +0.000 C 
ATOM     15  C   UNL     1       2.566   5.074  20.429  0.00  0.00    +0.000 C 
BRANCH  14  16
ATOM     16  C   UNL     1       2.119   5.638  18.037  0.00  0.00    +0.000 C 
BRANCH  16  17
ATOM     17  C   UNL     1       2.935   6.896  18.392  0.00  0.00    +0.000 C 
ATOM     18  C   UNL     1       4.099   7.126  17.428  0.00  0.00    +0.000 C 
ATOM     19  C   UNL     1       2.003   8.113  18.376  0.00  0.00    +0.000 C 
ENDBRANCH  16  17
ENDBRANCH  14  16
ENDBRANCH  12  14
ENDBRANCH  11  12
ENDBRANCH   2  11
TORSDOF 6
ENDMDL
MODEL 6
REMARK VINA RESULT:      -6.4      1.751      2.233
REMARK  Name = 
REMARK  11 active torsions:
REMARK  status: ('A' for Active; 'I' for Inactive)
REMARK    1  A    between atoms: C_1  and  C_2
REMARK    2  A    between atoms: C_4  and  N_5
REMARK    3  A    between atoms: C_6  and  C_8
REMARK    4  A    between atoms: C_8  and  N_9
REMARK    5  A    between atoms: N_9  and  C_10
REMARK    6  A    between atoms: N_9  and  C_11
REMARK    7  A    between atoms: C_11  and  C_12
REMARK    8  A    between atoms: C_11  and  C_13
REMARK    9  A    between atoms: C_13  and  C_14
REMARK   10  A    between atoms: C_14  and  C_15
REMARK   11  A    between atoms: C_14  and  C_16
REMARK                            x       y       z     vdW  Elec       q    Type
REMARK                         _______ _______ _______ _____ _____    ______ ____
ROOT
ATOM      1  N   UNL     1       5.779   5.064  15.832  0.00  0.00    +0.000 N 
ATOM      2  C   UNL     1       5.204   6.305  16.043  0.00  0.00    +0.000 C 
ATOM      3  O   UNL     1       4.973   7.158  15.193  0.00  0.00    +0.000 OA
ATOM      4  H   UNL     1       5.944   4.474  16.638  0.00  0.00    +0.000 HD
ENDROOT
BRANCH   1   8
ATOM      5  C   UNL     1       6.671   2.858  11.445  0.00  0.00    +0.000 C 
ATOM      6  C   UNL     1       6.647   3.710  12.650  0.00  0.00    +0.000 A 
ATOM      7  C   UNL     1       5.815   3.618  13.797  0.00  0.00    +0.000 A 
ATOM      8  C   UNL     1       6.218   4.659  14.596  0.00  0.00    +0.000 A 
ATOM      9  O   UNL     1       7.223   5.331  13.971  0.00  0.00    +0.000 OA
ATOM     10  N   UNL     1       7.498   4.736  12.754  0.00  0.00    +0.000 NA
ENDBRANCH   1   8
BRANCH   2  11
ATOM     11  C   UNL     1       4.802   6.535  17.503  0.00  0.00    +0.000 C 
BRANCH  11  12
ATOM     12  N   UNL     1       4.192   5.325  18.105  0.00  0.00    +0.000 NA
ATOM     13  C   UNL     1       4.963   4.902  19.291  0.00  0.00    +0.000 C 
BRANCH  12  14
ATOM     14  C   UNL     1       2.760   5.524  18.461  0.00  0.00    +0.000 C 
ATOM     15  C   UNL     1       2.231   6.958  18.248  0.00  0.00    +0.000 C 
BRANCH  14  16
ATOM     16  C   UNL     1       1.805   4.554  17.716  0.00  0.00    +0.000 C 
BRANCH  16  17
ATOM     17  C   UNL     1       1.269   3.355  18.521  0.00  0.00    +0.000 C 
ATOM     18  C   UNL     1       2.227   2.163  18.498  0.00  0.00    +0.000 C 
ATOM     19  C   UNL     1       1.029   3.797  19.969  0.00  0.00    +0.000 C 
ENDBRANCH  16  17
ENDBRANCH  14  16
ENDBRANCH  12  14
ENDBRANCH  11  12
ENDBRANCH   2  11
TORSDOF 6
ENDMDL
MODEL 7
REMARK VINA RESULT:      -6.4      1.551      2.346
REMARK  Name = 
REMARK  11 active torsions:
REMARK  status: ('A' for Active; 'I' for Inactive)
REMARK    1  A    between atoms: C_1  and  C_2
REMARK    2  A    between atoms: C_4  and  N_5
REMARK    3  A    between atoms: C_6  and  C_8
REMARK    4  A    between atoms: C_8  and  N_9
REMARK    5  A    between atoms: N_9  and  C_10
REMARK    6  A    between atoms: N_9  and  C_11
REMARK    7  A    between atoms: C_11  and  C_12
REMARK    8  A    between atoms: C_11  and  C_13
REMARK    9  A    between atoms: C_13  and  C_14
REMARK   10  A    between atoms: C_14  and  C_15
REMARK   11  A    between atoms: C_14  and  C_16
REMARK                            x       y       z     vdW  Elec       q    Type
REMARK                         _______ _______ _______ _____ _____    ______ ____
ROOT
ATOM      1  N   UNL     1       5.442   5.645  17.263  0.00  0.00    +0.000 N 
ATOM      2  C   UNL     1       4.870   4.730  18.128  0.00  0.00    +0.000 C 
ATOM      3  O   UNL     1       4.808   3.516  17.974  0.00  0.00    +0.000 OA
ATOM      4  H   UNL     1       5.386   6.627  17.505  0.00  0.00    +0.000 HD
ENDROOT
BRANCH   1   8
ATOM      5  C   UNL     1       6.534   3.782  12.764  0.00  0.00    +0.000 C 
ATOM      6  C   UNL     1       6.506   4.469  14.070  0.00  0.00    +0.000 A 
ATOM      7  C   UNL     1       5.483   4.480  15.056  0.00  0.00    +0.000 A 
ATOM      8  C   UNL     1       5.982   5.276  16.057  0.00  0.00    +0.000 A 
ATOM      9  O   UNL     1       7.219   5.714  15.696  0.00  0.00    +0.000 OA
ATOM     10  N   UNL     1       7.553   5.206  14.455  0.00  0.00    +0.000 NA
ENDBRANCH   1   8
BRANCH   2  11
ATOM     11  C   UNL     1       4.326   5.378  19.406  0.00  0.00    +0.000 C 
BRANCH  11  12
ATOM     12  N   UNL     1       2.940   5.876  19.226  0.00  0.00    +0.000 NA
ATOM     13  C   UNL     1       2.368   5.345  17.974  0.00  0.00    +0.000 C 
BRANCH  12  14
ATOM     14  C   UNL     1       2.059   5.546  20.381  0.00  0.00    +0.000 C 
ATOM     15  C   UNL     1       1.332   6.754  21.009  0.00  0.00    +0.000 C 
BRANCH  14  16
ATOM     16  C   UNL     1       0.989   4.475  20.045  0.00  0.00    +0.000 C 
BRANCH  16  17
ATOM     17  C   UNL     1       1.244   3.050  20.575  0.00  0.00    +0.000 C 
ATOM     18  C   UNL     1       1.755   2.107  19.486  0.00  0.00    +0.000 C 
ATOM     19  C   UNL     1       2.263   3.121  21.717  0.00  0.00    +0.000 C 
ENDBRANCH  16  17
ENDBRANCH  14  16
ENDBRANCH  12  14
ENDBRANCH  11  12
ENDBRANCH   2  11
TORSDOF 6
ENDMDL
MODEL 8
REMARK VINA RESULT:      -6.3      1.047      1.274
REMARK  Name = 
REMARK  11 active torsions:
REMARK  status: ('A' for Active; 'I' for Inactive)
REMARK    1  A    between atoms: C_1  and  C_2
REMARK    2  A    between atoms: C_4  and  N_5
REMARK    3  A    between atoms: C_6  and  C_8
REMARK    4  A    between atoms: C_8  and  N_9
REMARK    5  A    between atoms: N_9  and  C_10
REMARK    6  A    between atoms: N_9  and  C_11
REMARK    7  A    between atoms: C_11  and  C_12
REMARK    8  A    between atoms: C_11  and  C_13
REMARK    9  A    between atoms: C_13  and  C_14
REMARK   10  A    between atoms: C_14  and  C_15
REMARK   11  A    between atoms: C_14  and  C_16
REMARK                            x       y       z     vdW  Elec       q    Type
REMARK                         _______ _______ _______ _____ _____    ______ ____
ROOT
ATOM      1  N   UNL     1       5.980   3.776  16.445  0.00  0.00    +0.000 N 
ATOM      2  C   UNL     1       5.020   4.483  17.145  0.00  0.00    +0.000 C 
ATOM      3  O   UNL     1       4.542   5.570  16.838  0.00  0.00    +0.000 OA
ATOM      4  H   UNL     1       6.309   2.904  16.839  0.00  0.00    +0.000 HD
ENDROOT
BRANCH   1   8
ATOM      5  C   UNL     1       7.437   4.937  11.815  0.00  0.00    +0.000 C 
ATOM      6  C   UNL     1       7.241   4.801  13.271  0.00  0.00    +0.000 A 
ATOM      7  C   UNL     1       6.307   4.000  13.980  0.00  0.00    +0.000 A 
ATOM      8  C   UNL     1       6.563   4.264  15.302  0.00  0.00    +0.000 A 
ATOM      9  O   UNL     1       7.582   5.164  15.382  0.00  0.00    +0.000 OA
ATOM     10  N   UNL     1       8.013   5.498  14.112  0.00  0.00    +0.000 NA
ENDBRANCH   1   8
BRANCH   2  11
ATOM     11  C   UNL     1       4.523   3.742  18.391  0.00  0.00    +0.000 C 
BRANCH  11  12
ATOM     12  N   UNL     1       3.413   2.810  18.073  0.00  0.00    +0.000 NA
ATOM     13  C   UNL     1       3.464   1.635  18.965  0.00  0.00    +0.000 C 
BRANCH  12  14
ATOM     14  C   UNL     1       2.078   3.464  18.150  0.00  0.00    +0.000 C 
ATOM     15  C   UNL     1       0.945   2.565  18.688  0.00  0.00    +0.000 C 
BRANCH  14  16
ATOM     16  C   UNL     1       2.085   4.767  18.990  0.00  0.00    +0.000 C 
BRANCH  16  17
ATOM     17  C   UNL     1       1.499   4.678  20.412  0.00  0.00    +0.000 C 
ATOM     18  C   UNL     1       2.432   3.951  21.381  0.00  0.00    +0.000 C 
ATOM     19  C   UNL     1       1.224   6.096  20.926  0.00  0.00    +0.000 C 
ENDBRANCH  16  17
ENDBRANCH  14  16
ENDBRANCH  12  14
ENDBRANCH  11  12
ENDBRANCH   2  11
TORSDOF 6
ENDMDL
MODEL 9
REMARK VINA RESULT:      -6.3      2.442      3.606
REMARK  Name = 
REMARK  11 active torsions:
REMARK  status: ('A' for Active; 'I' for Inactive)
REMARK    1  A    between atoms: C_1  and  C_2
REMARK    2  A    between atoms: C_4  and  N_5
REMARK    3  A    between atoms: C_6  and  C_8
REMARK    4  A    between atoms: C_8  and  N_9
REMARK    5  A    between atoms: N_9  and  C_10
REMARK    6  A    between atoms: N_9  and  C_11
REMARK    7  A    between atoms: C_11  and  C_12
REMARK    8  A    between atoms: C_11  and  C_13
REMARK    9  A    between atoms: C_13  and  C_14
REMARK   10  A    between atoms: C_14  and  C_15
REMARK   11  A    between atoms: C_14  and  C_16
REMARK                            x       y       z     vdW  Elec       q    Type
REMARK                         _______ _______ _______ _____ _____    ______ ____
ROOT
ATOM      1  N   UNL     1       4.364   3.974  18.062  0.00  0.00    +0.000 N 
ATOM      2  C   UNL     1       4.356   3.073  19.111  0.00  0.00    +0.000 C 
ATOM      3  O   UNL     1       5.255   2.888  19.924  0.00  0.00    +0.000 OA
ATOM      4  H   UNL     1       3.561   3.992  17.446  0.00  0.00    +0.000 HD
ENDROOT
BRANCH   1   8
ATOM      5  C   UNL     1       7.782   7.563  17.474  0.00  0.00    +0.000 C 
ATOM      6  C   UNL     1       6.990   6.318  17.491  0.00  0.00    +0.000 A 
ATOM      7  C   UNL     1       5.699   6.084  18.035  0.00  0.00    +0.000 A 
ATOM      8  C   UNL     1       5.453   4.758  17.776  0.00  0.00    +0.000 A 
ATOM      9  O   UNL     1       6.525   4.232  17.121  0.00  0.00    +0.000 OA
ATOM     10  N   UNL     1       7.486   5.207  16.936  0.00  0.00    +0.000 NA
ENDBRANCH   1   8
BRANCH   2  11
ATOM     11  C   UNL     1       3.035   2.305  19.228  0.00  0.00    +0.000 C 
BRANCH  11  12
ATOM     12  N   UNL     1       1.865   3.216  19.223  0.00  0.00    +0.000 NA
ATOM     13  C   UNL     1       0.682   2.522  18.679  0.00  0.00    +0.000 C 
BRANCH  12  14
ATOM     14  C   UNL     1       1.566   3.771  20.572  0.00  0.00    +0.000 C 
ATOM     15  C   UNL     1       1.932   2.845  21.750  0.00  0.00    +0.000 C 
BRANCH  14  16
ATOM     16  C   UNL     1       2.237   5.146  20.828  0.00  0.00    +0.000 C 
BRANCH  16  17
ATOM     17  C   UNL     1       1.586   6.371  20.156  0.00  0.00    +0.000 C 
ATOM     18  C   UNL     1       1.277   7.486  21.156  0.00  0.00    +0.000 C 
ATOM     19  C   UNL     1       2.527   6.899  19.068  0.00  0.00    +0.000 C 
ENDBRANCH  16  17
ENDBRANCH  14  16
ENDBRANCH  12  14
ENDBRANCH  11  12
ENDBRANCH   2  11
TORSDOF 6
ENDMDL
