MODEL 1
REMARK VINA RESULT:      -9.0      0.000      0.000
REMARK  Name = 
REMARK  8 active torsions:
REMARK  status: ('A' for Active; 'I' for Inactive)
REMARK    1  A    between atoms: C_1  and  C_2
REMARK    2  A    between atoms: C_7  and  N_8
REMARK    3  A    between atoms: C_9  and  C_11
REMARK    4  A    between atoms: C_11  and  S_12
REMARK    5  A    between atoms: S_12  and  C_13
REMARK    6  A    between atoms: C_13  and  C_14
REMARK    7  A    between atoms: N_20  and  C_21
REMARK    8  A    between atoms: C_26  and  C_27
REMARK                            x       y       z     vdW  Elec       q    Type
REMARK                         _______ _______ _______ _____ _____    ______ ____
ROOT
ATOM      1  C   UNL     1       5.092   4.332  17.918  0.00  0.00    +0.000 A 
ATOM      2  N   UNL     1       5.787   4.607  19.019  0.00  0.00    +0.000 NA
ATOM      3  C   UNL     1       6.970   5.164  18.806  0.00  0.00    +0.000 A 
ATOM      4  N   UNL     1       7.721   5.476  19.920  0.00  0.00    +0.000 N 
ATOM      5  N   UNL     1       7.471   5.481  17.619  0.00  0.00    +0.000 NA
ATOM      6  C   UNL     1       6.722   5.145  16.577  0.00  0.00    +0.000 A 
ATOM      7  N   UNL     1       7.202   5.459  15.302  0.00  0.00    +0.000 N 
ATOM      8  N   UNL     1       5.528   4.567  16.685  0.00  0.00    +0.000 NA
ATOM      9  H   UNL     1       7.119   5.596  20.724  0.00  0.00    +0.000 HD
ATOM     10  H   UNL     1       8.366   6.224  19.713  0.00  0.00    +0.000 HD
ATOM     11  H   UNL     1       8.119   5.875  15.354  0.00  0.00    +0.000 HD
ENDROOT
BRANCH   7  12
ATOM     12  C   UNL     1       6.917   4.774  14.103  0.00  0.00    +0.000 A 
ATOM     13  C   UNL     1       5.892   3.814  14.055  0.00  0.00    +0.000 A 
ATOM     14  C   UNL     1       5.548   3.173  12.866  0.00  0.00    +0.000 A 
ATOM     15  C   UNL     1       6.228   3.486  11.697  0.00  0.00    +0.000 A 
ATOM     16  C   UNL     1       7.273   4.408  11.728  0.00  0.00    +0.000 A 
ATOM     17  C   UNL     1       7.645   5.043  12.929  0.00  0.00    +0.000 A 
ATOM     18  C   UNL     1       8.777   6.031  12.910  0.00  0.00    +0.000 C 
ENDBRANCH   7  12
BRANCH   1  19
ATOM     19  C   UNL     1       3.670   3.839  18.061  0.00  0.00    +0.000 C 
BRANCH  19  20
ATOM     20  S   UNL     1       3.557   2.676  19.473  0.00  0.00    +0.000 S 
BRANCH  20  21
ATOM     21  C   UNL     1       3.247   3.855  20.825  0.00  0.00    +0.000 C 
BRANCH  21  23
ATOM     22  N   UNL     1       2.805   6.216  20.274  0.00  0.00    +0.000 N 
ATOM     23  C   UNL     1       2.253   4.951  20.427  0.00  0.00    +0.000 C 
ATOM     24  O   UNL     1       1.063   4.658  20.306  0.00  0.00    +0.000 OA
ATOM     25  H   UNL     1       3.820   6.234  20.294  0.00  0.00    +0.000 HD
BRANCH  22  32
ATOM     26  C   UNL     1       3.277   7.364  17.591  0.00  0.00    +0.000 C 
ATOM     27  C   UNL     1       2.344   7.957  18.613  0.00  0.00    +0.000 A 
ATOM     28  C   UNL     1       1.651   9.130  18.251  0.00  0.00    +0.000 A 
ATOM     29  C   UNL     1       0.775   9.754  19.137  0.00  0.00    +0.000 A 
ATOM     30  C   UNL     1       0.599   9.229  20.408  0.00  0.00    +0.000 A 
ATOM     31  C   UNL     1       1.283   8.073  20.787  0.00  0.00    +0.000 A 
ATOM     32  C   UNL     1       2.144   7.410  19.902  0.00  0.00    +0.000 A 
ENDBRANCH  22  32
ENDBRANCH  21  23
ENDBRANCH  20  21
ENDBRANCH  19  20
ENDBRANCH   1  19
TORSDOF 6
ENDMDL
MODEL 2
REMARK VINA RESULT:      -8.9      2.735      4.904
REMARK  Name = 
REMARK  8 active torsions:
REMARK  status: ('A' for Active; 'I' for Inactive)
REMARK    1  A    between atoms: C_1  and  C_2
REMARK    2  A    between atoms: C_7  and  N_8
REMARK    3  A    between atoms: C_9  and  C_11
REMARK    4  A    between atoms: C_11  and  S_12
REMARK    5  A    between atoms: S_12  and  C_13
REMARK    6  A    between atoms: C_13  and  C_14
REMARK    7  A    between atoms: N_20  and  C_21
REMARK    8  A    between atoms: C_26  and  C_27
REMARK                            x       y       z     vdW  Elec       q    Type
REMARK                         _______ _______ _______ _____ _____    ______ ____
ROOT
ATOM      1  C   UNL     1       2.554   5.924  19.855  0.00  0.00    +0.000 A 
ATOM      2  N   UNL     1       1.800   5.157  20.639  0.00  0.00    +0.000 NA
ATOM      3  C   UNL     1       2.238   3.915  20.790  0.00  0.00    +0.000 A 
ATOM      4  N   UNL     1       1.493   3.087  21.604  0.00  0.00    +0.000 N 
ATOM      5  N   UNL     1       3.348   3.418  20.259  0.00  0.00    +0.000 NA
ATOM      6  C   UNL     1       4.020   4.245  19.469  0.00  0.00    +0.000 A 
ATOM      7  N   UNL     1       5.200   3.771  18.887  0.00  0.00    +0.000 N 
ATOM      8  N   UNL     1       3.655   5.504  19.240  0.00  0.00    +0.000 NA
ATOM      9  H   UNL     1       0.957   3.637  22.263  0.00  0.00    +0.000 HD
ATOM     10  H   UNL     1       2.070   2.351  21.982  0.00  0.00    +0.000 HD
ATOM     11  H   UNL     1       5.356   2.803  19.122  0.00  0.00    +0.000 HD
ENDROOT
BRANCH   7  12
ATOM     12  C   UNL     1       5.762   4.194  17.665  0.00  0.00    +0.000 A 
ATOM     13  C   UNL     1       5.240   3.740  16.442  0.00  0.00    +0.000 A 
ATOM     14  C   UNL     1       5.736   4.197  15.222  0.00  0.00    +0.000 A 
ATOM     15  C   UNL     1       6.770   5.122  15.206  0.00  0.00    +0.000 A 
ATOM     16  C   UNL     1       7.329   5.560  16.407  0.00  0.00    +0.000 A 
ATOM     17  C   UNL     1       6.851   5.086  17.644  0.00  0.00    +0.000 A 
ATOM     18  C   UNL     1       7.486   5.589  18.910  0.00  0.00    +0.000 C 
ENDBRANCH   7  12
BRANCH   1  19
ATOM     19  C   UNL     1       2.225   7.395  19.744  0.00  0.00    +0.000 C 
BRANCH  19  20
ATOM     20  S   UNL     1       2.092   7.867  17.978  0.00  0.00    +0.000 S 
BRANCH  20  21
ATOM     21  C   UNL     1       2.039   9.679  18.142  0.00  0.00    +0.000 C 
BRANCH  21  23
ATOM     22  N   UNL     1       1.115  10.688  20.190  0.00  0.00    +0.000 N 
ATOM     23  C   UNL     1       0.824  10.157  18.941  0.00  0.00    +0.000 C 
ATOM     24  O   UNL     1      -0.300  10.015  18.457  0.00  0.00    +0.000 OA
ATOM     25  H   UNL     1       2.105  10.836  20.362  0.00  0.00    +0.000 HD
BRANCH  22  32
ATOM     26  C   UNL     1      -0.144   8.885  22.167  0.00  0.00    +0.000 C 
ATOM     27  C   UNL     1      -0.383  10.371  22.104  0.00  0.00    +0.000 A 
ATOM     28  C   UNL     1      -1.257  10.925  23.060  0.00  0.00    +0.000 A 
ATOM     29  C   UNL     1      -1.544  12.288  23.072  0.00  0.00    +0.000 A 
ATOM     30  C   UNL     1      -0.982  13.114  22.110  0.00  0.00    +0.000 A 
ATOM     31  C   UNL     1      -0.119  12.581  21.151  0.00  0.00    +0.000 A 
ATOM     32  C   UNL     1       0.210  11.219  21.139  0.00  0.00    +0.000 A 
ENDBRANCH  22  32
ENDBRANCH  21  23
ENDBRANCH  20  21
ENDBRANCH  19  20
ENDBRANCH   1  19
TORSDOF 6
ENDMDL
MODEL 3
REMARK VINA RESULT:      -8.9      3.234      5.224
REMARK  Name = 
REMARK  8 active torsions:
REMARK  status: ('A' for Active; 'I' for Inactive)
REMARK    1  A    between atoms: C_1  and  C_2
REMARK    2  A    between atoms: C_7  and  N_8
REMARK    3  A    between atoms: C_9  and  C_11
REMARK    4  A    between atoms: C_11  and  S_12
REMARK    5  A    between atoms: S_12  and  C_13
REMARK    6  A    between atoms: C_13  and  C_14
REMARK    7  A    between atoms: N_20  and  C_21
REMARK    8  A    between atoms: C_26  and  C_27
REMARK                            x       y       z     vdW  Elec       q    Type
REMARK                         _______ _______ _______ _____ _____    ______ ____
ROOT
ATOM      1  C   UNL     1       2.392   5.994  19.793  0.00  0.00    +0.000 A 
ATOM      2  N   UNL     1       1.566   5.221  20.494  0.00  0.00    +0.000 NA
ATOM      3  C   UNL     1       1.934   3.951  20.584  0.00  0.00    +0.000 A 
ATOM      4  N   UNL     1       1.113   3.115  21.311  0.00  0.00    +0.000 N 
ATOM      5  N   UNL     1       3.041   3.430  20.070  0.00  0.00    +0.000 NA
ATOM      6  C   UNL     1       3.789   4.268  19.363  0.00  0.00    +0.000 A 
ATOM      7  N   UNL     1       4.968   3.770  18.801  0.00  0.00    +0.000 N 
ATOM      8  N   UNL     1       3.497   5.556  19.200  0.00  0.00    +0.000 NA
ATOM      9  H   UNL     1       0.576   3.651  21.981  0.00  0.00    +0.000 HD
ATOM     10  H   UNL     1       1.635   2.328  21.666  0.00  0.00    +0.000 HD
ATOM     11  H   UNL     1       5.066   2.782  18.981  0.00  0.00    +0.000 HD
ENDROOT
BRANCH   7  12
ATOM     12  C   UNL     1       5.606   4.237  17.634  0.00  0.00    +0.000 A 
ATOM     13  C   UNL     1       5.162   3.828  16.365  0.00  0.00    +0.000 A 
ATOM     14  C   UNL     1       5.734   4.330  15.196  0.00  0.00    +0.000 A 
ATOM     15  C   UNL     1       6.766   5.254  15.279  0.00  0.00    +0.000 A 
ATOM     16  C   UNL     1       7.247   5.646  16.528  0.00  0.00    +0.000 A 
ATOM     17  C   UNL     1       6.693   5.128  17.714  0.00  0.00    +0.000 A 
ATOM     18  C   UNL     1       7.246   5.583  19.035  0.00  0.00    +0.000 C 
ENDBRANCH   7  12
BRANCH   1  19
ATOM     19  C   UNL     1       2.142   7.485  19.762  0.00  0.00    +0.000 C 
BRANCH  19  20
ATOM     20  S   UNL     1       2.027   8.057  18.025  0.00  0.00    +0.000 S 
BRANCH  20  21
ATOM     21  C   UNL     1       1.679   9.822  18.299  0.00  0.00    +0.000 C 
BRANCH  21  23
ATOM     22  N   UNL     1      -0.564  10.767  17.917  0.00  0.00    +0.000 N 
ATOM     23  C   UNL     1       0.251  10.065  18.795  0.00  0.00    +0.000 C 
ATOM     24  O   UNL     1      -0.065   9.667  19.917  0.00  0.00    +0.000 OA
ATOM     25  H   UNL     1      -0.165  10.901  16.992  0.00  0.00    +0.000 HD
BRANCH  22  32
ATOM     26  C   UNL     1      -2.580   9.824  15.970  0.00  0.00    +0.000 C 
ATOM     27  C   UNL     1      -2.899  10.662  17.180  0.00  0.00    +0.000 A 
ATOM     28  C   UNL     1      -4.250  11.004  17.391  0.00  0.00    +0.000 A 
ATOM     29  C   UNL     1      -4.636  11.783  18.479  0.00  0.00    +0.000 A 
ATOM     30  C   UNL     1      -3.674  12.256  19.358  0.00  0.00    +0.000 A 
ATOM     31  C   UNL     1      -2.330  11.934  19.160  0.00  0.00    +0.000 A 
ATOM     32  C   UNL     1      -1.921  11.125  18.092  0.00  0.00    +0.000 A 
ENDBRANCH  22  32
ENDBRANCH  21  23
ENDBRANCH  20  21
ENDBRANCH  19  20
ENDBRANCH   1  19
TORSDOF 6
ENDMDL
MODEL 4
REMARK VINA RESULT:      -8.9      3.130      5.139
REMARK  Name = 
REMARK  8 active torsions:
REMARK  status: ('A' for Active; 'I' for Inactive)
REMARK    1  A    between atoms: C_1  and  C_2
REMARK    2  A    between atoms: C_7  and  N_8
REMARK    3  A    between atoms: C_9  and  C_11
REMARK    4  A    between atoms: C_11  and  S_12
REMARK    5  A    between atoms: S_12  and  C_13
REMARK    6  A    between atoms: C_13  and  C_14
REMARK    7  A    between atoms: N_20  and  C_21
REMARK    8  A    between atoms: C_26  and  C_27
REMARK                            x       y       z     vdW  Elec       q    Type
REMARK                         _______ _______ _______ _____ _____    ______ ____
ROOT
ATOM      1  C   UNL     1       2.565   6.030  19.826  0.00  0.00    +0.000 A 
ATOM      2  N   UNL     1       1.883   5.298  20.703  0.00  0.00    +0.000 NA
ATOM      3  C   UNL     1       2.374   4.086  20.918  0.00  0.00    +0.000 A 
ATOM      4  N   UNL     1       1.704   3.295  21.829  0.00  0.00    +0.000 N 
ATOM      5  N   UNL     1       3.472   3.589  20.364  0.00  0.00    +0.000 NA
ATOM      6  C   UNL     1       4.071   4.377  19.481  0.00  0.00    +0.000 A 
ATOM      7  N   UNL     1       5.235   3.902  18.870  0.00  0.00    +0.000 N 
ATOM      8  N   UNL     1       3.647   5.603  19.184  0.00  0.00    +0.000 NA
ATOM      9  H   UNL     1       1.183   3.873  22.475  0.00  0.00    +0.000 HD
ATOM     10  H   UNL     1       2.327   2.608  22.226  0.00  0.00    +0.000 HD
ATOM     11  H   UNL     1       5.440   2.959  19.165  0.00  0.00    +0.000 HD
ENDROOT
BRANCH   7  12
ATOM     12  C   UNL     1       5.717   4.253  17.593  0.00  0.00    +0.000 A 
ATOM     13  C   UNL     1       5.062   3.804  16.433  0.00  0.00    +0.000 A 
ATOM     14  C   UNL     1       5.480   4.193  15.162  0.00  0.00    +0.000 A 
ATOM     15  C   UNL     1       6.569   5.044  15.029  0.00  0.00    +0.000 A 
ATOM     16  C   UNL     1       7.257   5.473  16.164  0.00  0.00    +0.000 A 
ATOM     17  C   UNL     1       6.857   5.066  17.451  0.00  0.00    +0.000 A 
ATOM     18  C   UNL     1       7.631   5.557  18.642  0.00  0.00    +0.000 C 
ENDBRANCH   7  12
BRANCH   1  19
ATOM     19  C   UNL     1       2.176   7.477  19.628  0.00  0.00    +0.000 C 
BRANCH  19  20
ATOM     20  S   UNL     1       1.124   8.031  21.023  0.00  0.00    +0.000 S 
BRANCH  20  21
ATOM     21  C   UNL     1       1.110   9.824  20.711  0.00  0.00    +0.000 C 
BRANCH  21  23
ATOM     22  N   UNL     1      -0.953  10.096  19.392  0.00  0.00    +0.000 N 
ATOM     23  C   UNL     1       0.433  10.180  19.385  0.00  0.00    +0.000 C 
ATOM     24  O   UNL     1       1.137  10.475  18.418  0.00  0.00    +0.000 OA
ATOM     25  H   UNL     1      -1.359   9.958  20.313  0.00  0.00    +0.000 HD
BRANCH  22  32
ATOM     26  C   UNL     1      -2.991  12.212  19.721  0.00  0.00    +0.000 C 
ATOM     27  C   UNL     1      -2.808  11.400  18.466  0.00  0.00    +0.000 A 
ATOM     28  C   UNL     1      -3.665  11.685  17.382  0.00  0.00    +0.000 A 
ATOM     29  C   UNL     1      -3.575  10.978  16.186  0.00  0.00    +0.000 A 
ATOM     30  C   UNL     1      -2.644   9.957  16.063  0.00  0.00    +0.000 A 
ATOM     31  C   UNL     1      -1.793   9.657  17.127  0.00  0.00    +0.000 A 
ATOM     32  C   UNL     1      -1.843  10.376  18.329  0.00  0.00    +0.000 A 
ENDBRANCH  22  32
ENDBRANCH  21  23
ENDBRANCH  20  21
ENDBRANCH  19  20
ENDBRANCH   1  19
TORSDOF 6
ENDMDL
MODEL 5
REMARK VINA RESULT:      -8.9      3.033      6.103
REMARK  Name = 
REMARK  8 active torsions:
REMARK  status: ('A' for Active; 'I' for Inactive)
REMARK    1  A    between atoms: C_1  and  C_2
REMARK    2  A    between atoms: C_7  and  N_8
REMARK    3  A    between atoms: C_9  and  C_11
REMARK    4  A    between atoms: C_11  and  S_12
REMARK    5  A    between atoms: S_12  and  C_13
REMARK    6  A    between atoms: C_13  and  C_14
REMARK    7  A    between atoms: N_20  and  C_21
REMARK    8  A    between atoms: C_26  and  C_27
REMARK                            x       y       z     vdW  Elec       q    Type
REMARK                         _______ _______ _______ _____ _____    ______ ____
ROOT
ATOM      1  C   UNL     1       4.602   6.366  16.940  0.00  0.00    +0.000 A 
ATOM      2  N   UNL     1       5.646   6.143  16.146  0.00  0.00    +0.000 NA
ATOM      3  C   UNL     1       5.910   4.865  15.919  0.00  0.00    +0.000 A 
ATOM      4  N   UNL     1       6.978   4.587  15.092  0.00  0.00    +0.000 N 
ATOM      5  N   UNL     1       5.211   3.838  16.386  0.00  0.00    +0.000 NA
ATOM      6  C   UNL     1       4.206   4.153  17.192  0.00  0.00    +0.000 A 
ATOM      7  N   UNL     1       3.435   3.107  17.709  0.00  0.00    +0.000 N 
ATOM      8  N   UNL     1       3.871   5.404  17.495  0.00  0.00    +0.000 NA
ATOM      9  H   UNL     1       7.159   5.372  14.480  0.00  0.00    +0.000 HD
ATOM     10  H   UNL     1       6.864   3.683  14.658  0.00  0.00    +0.000 HD
ATOM     11  H   UNL     1       3.800   2.212  17.421  0.00  0.00    +0.000 HD
ENDROOT
BRANCH   7  12
ATOM     12  C   UNL     1       2.729   3.107  18.929  0.00  0.00    +0.000 A 
ATOM     13  C   UNL     1       1.411   3.590  18.993  0.00  0.00    +0.000 A 
ATOM     14  C   UNL     1       0.671   3.537  20.173  0.00  0.00    +0.000 A 
ATOM     15  C   UNL     1       1.243   2.996  21.317  0.00  0.00    +0.000 A 
ATOM     16  C   UNL     1       2.562   2.545  21.287  0.00  0.00    +0.000 A 
ATOM     17  C   UNL     1       3.325   2.616  20.106  0.00  0.00    +0.000 A 
ATOM     18  C   UNL     1       4.742   2.114  20.124  0.00  0.00    +0.000 C 
ENDBRANCH   7  12
BRANCH   1  19
ATOM     19  C   UNL     1       4.127   7.787  17.135  0.00  0.00    +0.000 C 
BRANCH  19  20
ATOM     20  S   UNL     1       2.581   7.794  18.120  0.00  0.00    +0.000 S 
BRANCH  20  21
ATOM     21  C   UNL     1       2.049   9.514  17.856  0.00  0.00    +0.000 C 
BRANCH  21  23
ATOM     22  N   UNL     1      -0.094  10.727  17.932  0.00  0.00    +0.000 N 
ATOM     23  C   UNL     1       0.747   9.842  18.593  0.00  0.00    +0.000 C 
ATOM     24  O   UNL     1       0.551   9.345  19.702  0.00  0.00    +0.000 OA
ATOM     25  H   UNL     1       0.181  10.931  16.976  0.00  0.00    +0.000 HD
BRANCH  22  32
ATOM     26  C   UNL     1      -2.521   9.914  16.452  0.00  0.00    +0.000 C 
ATOM     27  C   UNL     1      -2.529  10.801  17.669  0.00  0.00    +0.000 A 
ATOM     28  C   UNL     1      -3.782  11.258  18.126  0.00  0.00    +0.000 A 
ATOM     29  C   UNL     1      -3.884  12.091  19.238  0.00  0.00    +0.000 A 
ATOM     30  C   UNL     1      -2.734  12.500  19.895  0.00  0.00    +0.000 A 
ATOM     31  C   UNL     1      -1.484  12.064  19.451  0.00  0.00    +0.000 A 
ATOM     32  C   UNL     1      -1.358  11.200  18.355  0.00  0.00    +0.000 A 
ENDBRANCH  22  32
ENDBRANCH  21  23
ENDBRANCH  20  21
ENDBRANCH  19  20
ENDBRANCH   1  19
TORSDOF 6
ENDMDL
MODEL 6
REMARK VINA RESULT:      -8.9      2.965      6.048
REMARK  Name = 
REMARK  8 active torsions:
REMARK  status: ('A' for Active; 'I' for Inactive)
REMARK    1  A    between atoms: C_1  and  C_2
REMARK    2  A    between atoms: C_7  and  N_8
REMARK    3  A    between atoms: C_9  and  C_11
REMARK    4  A    between atoms: C_11  and  S_12
REMARK    5  A    between atoms: S_12  and  C_13
REMARK    6  A    between atoms: C_13  and  C_14
REMARK    7  A    between atoms: N_20  and  C_21
REMARK    8  A    between atoms: C_26  and  C_27
REMARK                            x       y       z     vdW  Elec       q    Type
REMARK                         _______ _______ _______ _____ _____    ______ ____
ROOT
ATOM      1  C   UNL     1       4.805   6.437  16.977  0.00  0.00    +0.000 A 
ATOM      2  N   UNL     1       5.941   6.292  16.300  0.00  0.00    +0.000 NA
ATOM      3  C   UNL     1       6.352   5.040  16.163  0.00  0.00    +0.000 A 
ATOM      4  N   UNL     1       7.522   4.842  15.458  0.00  0.00    +0.000 N 
ATOM      5  N   UNL     1       5.715   3.965  16.610  0.00  0.00    +0.000 NA
ATOM      6  C   UNL     1       4.606   4.206  17.297  0.00  0.00    +0.000 A 
ATOM      7  N   UNL     1       3.894   3.108  17.788  0.00  0.00    +0.000 N 
ATOM      8  N   UNL     1       4.120   5.427  17.505  0.00  0.00    +0.000 NA
ATOM      9  H   UNL     1       7.685   5.617  14.829  0.00  0.00    +0.000 HD
ATOM     10  H   UNL     1       7.542   3.914  15.060  0.00  0.00    +0.000 HD
ATOM     11  H   UNL     1       4.373   2.244  17.582  0.00  0.00    +0.000 HD
ENDROOT
BRANCH   7  12
ATOM     12  C   UNL     1       3.072   3.082  18.933  0.00  0.00    +0.000 A 
ATOM     13  C   UNL     1       3.577   2.637  20.167  0.00  0.00    +0.000 A 
ATOM     14  C   UNL     1       2.802   2.668  21.325  0.00  0.00    +0.000 A 
ATOM     15  C   UNL     1       1.501   3.147  21.268  0.00  0.00    +0.000 A 
ATOM     16  C   UNL     1       0.966   3.559  20.048  0.00  0.00    +0.000 A 
ATOM     17  C   UNL     1       1.732   3.510  18.867  0.00  0.00    +0.000 A 
ATOM     18  C   UNL     1       1.111   3.967  17.577  0.00  0.00    +0.000 C 
ENDBRANCH   7  12
BRANCH   1  19
ATOM     19  C   UNL     1       4.174   7.808  17.054  0.00  0.00    +0.000 C 
BRANCH  19  20
ATOM     20  S   UNL     1       2.661   7.736  18.086  0.00  0.00    +0.000 S 
BRANCH  20  21
ATOM     21  C   UNL     1       2.130   9.474  17.984  0.00  0.00    +0.000 C 
BRANCH  21  23
ATOM     22  N   UNL     1      -0.167  10.311  17.683  0.00  0.00    +0.000 N 
ATOM     23  C   UNL     1       0.723   9.688  18.548  0.00  0.00    +0.000 C 
ATOM     24  O   UNL     1       0.486   9.339  19.705  0.00  0.00    +0.000 OA
ATOM     25  H   UNL     1       0.174  10.411  16.732  0.00  0.00    +0.000 HD
BRANCH  22  32
ATOM     26  C   UNL     1      -0.853  12.705  19.278  0.00  0.00    +0.000 C 
ATOM     27  C   UNL     1      -1.868  11.780  18.660  0.00  0.00    +0.000 A 
ATOM     28  C   UNL     1      -3.229  12.093  18.855  0.00  0.00    +0.000 A 
ATOM     29  C   UNL     1      -4.237  11.288  18.328  0.00  0.00    +0.000 A 
ATOM     30  C   UNL     1      -3.900  10.144  17.622  0.00  0.00    +0.000 A 
ATOM     31  C   UNL     1      -2.558   9.814  17.425  0.00  0.00    +0.000 A 
ATOM     32  C   UNL     1      -1.527  10.625  17.918  0.00  0.00    +0.000 A 
ENDBRANCH  22  32
ENDBRANCH  21  23
ENDBRANCH  20  21
ENDBRANCH  19  20
ENDBRANCH   1  19
TORSDOF 6
ENDMDL
MODEL 7
REMARK VINA RESULT:      -8.8      2.978      6.009
REMARK  Name = 
REMARK  8 active torsions:
REMARK  status: ('A' for Active; 'I' for Inactive)
REMARK    1  A    between atoms: C_1  and  C_2
REMARK    2  A    between atoms: C_7  and  N_8
REMARK    3  A    between atoms: C_9  and  C_11
REMARK    4  A    between atoms: C_11  and  S_12
REMARK    5  A    between atoms: S_12  and  C_13
REMARK    6  A    between atoms: C_13  and  C_14
REMARK    7  A    between atoms: N_20  and  C_21
REMARK    8  A    between atoms: C_26  and  C_27
REMARK                            x       y       z     vdW  Elec       q    Type
REMARK                         _______ _______ _______ _____ _____    ______ ____
ROOT
ATOM      1  C   UNL     1       4.838   6.479  17.023  0.00  0.00    +0.000 A 
ATOM      2  N   UNL     1       5.967   6.310  16.338  0.00  0.00    +0.000 NA
ATOM      3  C   UNL     1       6.336   5.047  16.177  0.00  0.00    +0.000 A 
ATOM      4  N   UNL     1       7.495   4.824  15.463  0.00  0.00    +0.000 N 
ATOM      5  N   UNL     1       5.666   3.986  16.608  0.00  0.00    +0.000 NA
ATOM      6  C   UNL     1       4.569   4.251  17.305  0.00  0.00    +0.000 A 
ATOM      7  N   UNL     1       3.823   3.168  17.780  0.00  0.00    +0.000 N 
ATOM      8  N   UNL     1       4.123   5.484  17.536  0.00  0.00    +0.000 NA
ATOM      9  H   UNL     1       7.681   5.604  14.847  0.00  0.00    +0.000 HD
ATOM     10  H   UNL     1       7.483   3.904  15.049  0.00  0.00    +0.000 HD
ATOM     11  H   UNL     1       4.273   2.293  17.556  0.00  0.00    +0.000 HD
ENDROOT
BRANCH   7  12
ATOM     12  C   UNL     1       3.005   3.149  18.928  0.00  0.00    +0.000 A 
ATOM     13  C   UNL     1       3.507   2.685  20.156  0.00  0.00    +0.000 A 
ATOM     14  C   UNL     1       2.738   2.720  21.318  0.00  0.00    +0.000 A 
ATOM     15  C   UNL     1       1.446   3.225  21.270  0.00  0.00    +0.000 A 
ATOM     16  C   UNL     1       0.914   3.657  20.056  0.00  0.00    +0.000 A 
ATOM     17  C   UNL     1       1.674   3.603  18.872  0.00  0.00    +0.000 A 
ATOM     18  C   UNL     1       1.056   4.082  17.588  0.00  0.00    +0.000 C 
ENDBRANCH   7  12
BRANCH   1  19
ATOM     19  C   UNL     1       4.253   7.869  17.127  0.00  0.00    +0.000 C 
BRANCH  19  20
ATOM     20  S   UNL     1       2.650   7.800  18.013  0.00  0.00    +0.000 S 
BRANCH  20  21
ATOM     21  C   UNL     1       2.123   9.534  17.842  0.00  0.00    +0.000 C 
BRANCH  21  23
ATOM     22  N   UNL     1      -0.030  10.727  17.934  0.00  0.00    +0.000 N 
ATOM     23  C   UNL     1       0.806   9.818  18.569  0.00  0.00    +0.000 C 
ATOM     24  O   UNL     1       0.592   9.268  19.650  0.00  0.00    +0.000 OA
ATOM     25  H   UNL     1       0.261  10.978  16.994  0.00  0.00    +0.000 HD
BRANCH  22  32
ATOM     26  C   UNL     1      -2.433   9.884  16.431  0.00  0.00    +0.000 C 
ATOM     27  C   UNL     1      -2.464  10.758  17.657  0.00  0.00    +0.000 A 
ATOM     28  C   UNL     1      -3.728  11.186  18.112  0.00  0.00    +0.000 A 
ATOM     29  C   UNL     1      -3.853  12.003  19.233  0.00  0.00    +0.000 A 
ATOM     30  C   UNL     1      -2.715  12.428  19.900  0.00  0.00    +0.000 A 
ATOM     31  C   UNL     1      -1.454  12.020  19.460  0.00  0.00    +0.000 A 
ATOM     32  C   UNL     1      -1.306  11.172  18.354  0.00  0.00    +0.000 A 
ENDBRANCH  22  32
ENDBRANCH  21  23
ENDBRANCH  20  21
ENDBRANCH  19  20
ENDBRANCH   1  19
TORSDOF 6
ENDMDL
MODEL 8
REMARK VINA RESULT:      -8.8      2.785      4.895
REMARK  Name = 
REMARK  8 active torsions:
REMARK  status: ('A' for Active; 'I' for Inactive)
REMARK    1  A    between atoms: C_1  and  C_2
REMARK    2  A    between atoms: C_7  and  N_8
REMARK    3  A    between atoms: C_9  and  C_11
REMARK    4  A    between atoms: C_11  and  S_12
REMARK    5  A    between atoms: S_12  and  C_13
REMARK    6  A    between atoms: C_13  and  C_14
REMARK    7  A    between atoms: N_20  and  C_21
REMARK    8  A    between atoms: C_26  and  C_27
REMARK                            x       y       z     vdW  Elec       q    Type
REMARK                         _______ _______ _______ _____ _____    ______ ____
ROOT
ATOM      1  C   UNL     1       2.566   5.944  19.921  0.00  0.00    +0.000 A 
ATOM      2  N   UNL     1       1.877   5.182  20.767  0.00  0.00    +0.000 NA
ATOM      3  C   UNL     1       2.365   3.963  20.942  0.00  0.00    +0.000 A 
ATOM      4  N   UNL     1       1.687   3.142  21.820  0.00  0.00    +0.000 N 
ATOM      5  N   UNL     1       3.466   3.483  20.378  0.00  0.00    +0.000 NA
ATOM      6  C   UNL     1       4.072   4.302  19.527  0.00  0.00    +0.000 A 
ATOM      7  N   UNL     1       5.239   3.846  18.907  0.00  0.00    +0.000 N 
ATOM      8  N   UNL     1       3.652   5.538  19.270  0.00  0.00    +0.000 NA
ATOM      9  H   UNL     1       1.163   3.698  22.483  0.00  0.00    +0.000 HD
ATOM     10  H   UNL     1       2.307   2.440  22.197  0.00  0.00    +0.000 HD
ATOM     11  H   UNL     1       5.440   2.893  19.169  0.00  0.00    +0.000 HD
ENDROOT
BRANCH   7  12
ATOM     12  C   UNL     1       5.730   4.241  17.645  0.00  0.00    +0.000 A 
ATOM     13  C   UNL     1       5.131   3.767  16.465  0.00  0.00    +0.000 A 
ATOM     14  C   UNL     1       5.556   4.197  15.209  0.00  0.00    +0.000 A 
ATOM     15  C   UNL     1       6.593   5.114  15.113  0.00  0.00    +0.000 A 
ATOM     16  C   UNL     1       7.227   5.569  16.269  0.00  0.00    +0.000 A 
ATOM     17  C   UNL     1       6.821   5.123  17.541  0.00  0.00    +0.000 A 
ATOM     18  C   UNL     1       7.535   5.645  18.756  0.00  0.00    +0.000 C 
ENDBRANCH   7  12
BRANCH   1  19
ATOM     19  C   UNL     1       2.181   7.398  19.772  0.00  0.00    +0.000 C 
BRANCH  19  20
ATOM     20  S   UNL     1       2.666   7.999  18.110  0.00  0.00    +0.000 S 
BRANCH  20  21
ATOM     21  C   UNL     1       1.261   9.101  17.754  0.00  0.00    +0.000 C 
BRANCH  21  23
ATOM     22  N   UNL     1      -0.179   9.859  19.603  0.00  0.00    +0.000 N 
ATOM     23  C   UNL     1       0.991  10.089  18.892  0.00  0.00    +0.000 C 
ATOM     24  O   UNL     1       1.783  11.013  19.078  0.00  0.00    +0.000 OA
ATOM     25  H   UNL     1      -0.636   8.978  19.384  0.00  0.00    +0.000 HD
BRANCH  22  32
ATOM     26  C   UNL     1      -1.716  12.340  19.129  0.00  0.00    +0.000 C 
ATOM     27  C   UNL     1      -1.436  11.765  20.492  0.00  0.00    +0.000 A 
ATOM     28  C   UNL     1      -1.954  12.460  21.604  0.00  0.00    +0.000 A 
ATOM     29  C   UNL     1      -1.736  12.007  22.904  0.00  0.00    +0.000 A 
ATOM     30  C   UNL     1      -0.975  10.867  23.112  0.00  0.00    +0.000 A 
ATOM     31  C   UNL     1      -0.448  10.170  22.023  0.00  0.00    +0.000 A 
ATOM     32  C   UNL     1      -0.680  10.589  20.706  0.00  0.00    +0.000 A 
ENDBRANCH  22  32
ENDBRANCH  21  23
ENDBRANCH  20  21
ENDBRANCH  19  20
ENDBRANCH   1  19
TORSDOF 6
ENDMDL
MODEL 9
REMARK VINA RESULT:      -8.8      5.873      8.198
REMARK  Name = 
REMARK  8 active torsions:
REMARK  status: ('A' for Active; 'I' for Inactive)
REMARK    1  A    between atoms: C_1  and  C_2
REMARK    2  A    between atoms: C_7  and  N_8
REMARK    3  A    between atoms: C_9  and  C_11
REMARK    4  A    between atoms: C_11  and  S_12
REMARK    5  A    between atoms: S_12  and  C_13
REMARK    6  A    between atoms: C_13  and  C_14
REMARK    7  A    between atoms: N_20  and  C_21
REMARK    8  A    between atoms: C_26  and  C_27
REMARK                            x       y       z     vdW  Elec       q    Type
REMARK                         _______ _______ _______ _____ _____    ______ ____
ROOT
ATOM      1  C   UNL     1       6.949   6.066  17.350  0.00  0.00    +0.000 A 
ATOM      2  N   UNL     1       7.420   5.818  16.130  0.00  0.00    +0.000 NA
ATOM      3  C   UNL     1       6.558   5.236  15.308  0.00  0.00    +0.000 A 
ATOM      4  N   UNL     1       7.001   4.971  14.028  0.00  0.00    +0.000 N 
ATOM      5  N   UNL     1       5.301   4.928  15.600  0.00  0.00    +0.000 NA
ATOM      6  C   UNL     1       4.927   5.184  16.846  0.00  0.00    +0.000 A 
ATOM      7  N   UNL     1       3.611   4.881  17.205  0.00  0.00    +0.000 N 
ATOM      8  N   UNL     1       5.722   5.750  17.751  0.00  0.00    +0.000 NA
ATOM      9  H   UNL     1       7.761   5.594  13.786  0.00  0.00    +0.000 HD
ATOM     10  H   UNL     1       6.222   4.925  13.388  0.00  0.00    +0.000 HD
ATOM     11  H   UNL     1       3.119   4.442  16.441  0.00  0.00    +0.000 HD
ENDROOT
BRANCH   7  12
ATOM     12  C   UNL     1       3.147   4.544  18.494  0.00  0.00    +0.000 A 
ATOM     13  C   UNL     1       2.733   5.545  19.389  0.00  0.00    +0.000 A 
ATOM     14  C   UNL     1       2.207   5.231  20.641  0.00  0.00    +0.000 A 
ATOM     15  C   UNL     1       2.088   3.901  21.021  0.00  0.00    +0.000 A 
ATOM     16  C   UNL     1       2.527   2.892  20.165  0.00  0.00    +0.000 A 
ATOM     17  C   UNL     1       3.081   3.200  18.907  0.00  0.00    +0.000 A 
ATOM     18  C   UNL     1       3.539   2.076  18.019  0.00  0.00    +0.000 C 
ENDBRANCH   7  12
BRANCH   1  19
ATOM     19  C   UNL     1       7.801   6.864  18.310  0.00  0.00    +0.000 C 
BRANCH  19  20
ATOM     20  S   UNL     1       7.819   8.625  17.804  0.00  0.00    +0.000 S 
BRANCH  20  21
ATOM     21  C   UNL     1       9.014   9.284  19.008  0.00  0.00    +0.000 C 
BRANCH  21  23
ATOM     22  N   UNL     1      10.312  11.294  19.597  0.00  0.00    +0.000 N 
ATOM     23  C   UNL     1       9.353  10.755  18.749  0.00  0.00    +0.000 C 
ATOM     24  O   UNL     1       8.752  11.356  17.858  0.00  0.00    +0.000 OA
ATOM     25  H   UNL     1      10.782  10.612  20.185  0.00  0.00    +0.000 HD
BRANCH  22  32
ATOM     26  C   UNL     1       9.346  13.254  21.589  0.00  0.00    +0.000 C 
ATOM     27  C   UNL     1      10.396  13.549  20.551  0.00  0.00    +0.000 A 
ATOM     28  C   UNL     1      10.953  14.845  20.546  0.00  0.00    +0.000 A 
ATOM     29  C   UNL     1      11.923  15.210  19.616  0.00  0.00    +0.000 A 
ATOM     30  C   UNL     1      12.332  14.294  18.659  0.00  0.00    +0.000 A 
ATOM     31  C   UNL     1      11.787  13.010  18.644  0.00  0.00    +0.000 A 
ATOM     32  C   UNL     1      10.833  12.609  19.589  0.00  0.00    +0.000 A 
ENDBRANCH  22  32
ENDBRANCH  21  23
ENDBRANCH  20  21
ENDBRANCH  19  20
ENDBRANCH   1  19
TORSDOF 6
ENDMDL
