MODEL 1
REMARK VINA RESULT:      -8.5      0.000      0.000
REMARK  Name = 
REMARK  7 active torsions:
REMARK  status: ('A' for Active; 'I' for Inactive)
REMARK    1  A    between atoms: C_1  and  C_2
REMARK    2  A    between atoms: C_4  and  S_5
REMARK    3  A    between atoms: S_5  and  N_8
REMARK    4  A    between atoms: C_15  and  O_16
REMARK    5  A    between atoms: O_16  and  C_17
REMARK    6  A    between atoms: C_17  and  C_18
REMARK    7  A    between atoms: N_20  and  C_21
REMARK                            x       y       z     vdW  Elec       q    Type
REMARK                         _______ _______ _______ _____ _____    ______ ____
ROOT
ATOM      1  C   UNL     1       7.894   4.889  18.442  0.00  0.00    +0.000 C 
ATOM      2  C   UNL     1       6.497   5.151  17.945  0.00  0.00    +0.000 A 
ATOM      3  C   UNL     1       5.482   4.216  18.210  0.00  0.00    +0.000 A 
ATOM      4  C   UNL     1       4.169   4.473  17.804  0.00  0.00    +0.000 A 
ATOM      5  C   UNL     1       3.836   5.678  17.191  0.00  0.00    +0.000 A 
ATOM      6  C   UNL     1       4.838   6.599  16.914  0.00  0.00    +0.000 A 
ATOM      7  C   UNL     1       6.177   6.318  17.228  0.00  0.00    +0.000 A 
ENDROOT
BRANCH   4   8
ATOM      8  S   UNL     1       2.900   3.269  18.078  0.00  0.00    +0.000 S 
ATOM      9  O   UNL     1       2.105   3.202  16.871  0.00  0.00    +0.000 OA
ATOM     10  O   UNL     1       3.517   2.083  18.637  0.00  0.00    +0.000 OA
BRANCH   8  11
ATOM     11  N   UNL     1       1.936   3.950  19.310  0.00  0.00    +0.000 NA
ATOM     12  C   UNL     1       2.632   4.520  20.491  0.00  0.00    +0.000 C 
ATOM     13  C   UNL     1       2.499   3.475  21.580  0.00  0.00    +0.000 C 
ATOM     14  C   UNL     1       1.144   2.850  21.321  0.00  0.00    +0.000 C 
ATOM     15  C   UNL     1       0.902   3.001  19.824  0.00  0.00    +0.000 C 
ENDBRANCH   8  11
ENDBRANCH   4   8
BRANCH   7  16
ATOM     16  O   UNL     1       7.210   7.142  16.840  0.00  0.00    +0.000 OA
BRANCH  16  17
ATOM     17  C   UNL     1       7.086   8.472  17.354  0.00  0.00    +0.000 C 
BRANCH  17  18
ATOM     18  C   UNL     1       8.243   8.906  18.239  0.00  0.00    +0.000 C 
ATOM     19  O   UNL     1       8.816   8.084  18.949  0.00  0.00    +0.000 OA
ATOM     20  N   UNL     1       8.556  10.242  18.101  0.00  0.00    +0.000 N 
ATOM     21  H   UNL     1       7.885  10.796  17.579  0.00  0.00    +0.000 HD
BRANCH  20  22
ATOM     22  C   UNL     1       9.618  10.919  18.723  0.00  0.00    +0.000 A 
ATOM     23  C   UNL     1       9.657  11.190  20.094  0.00  0.00    +0.000 A 
ATOM     24  C   UNL     1      10.730  11.890  20.647  0.00  0.00    +0.000 A 
ATOM     25  C   UNL     1      11.775  12.321  19.832  0.00  0.00    +0.000 A 
ATOM     26  C   UNL     1      11.753  12.041  18.470  0.00  0.00    +0.000 A 
ATOM     27  C   UNL     1      10.683  11.332  17.917  0.00  0.00    +0.000 A 
ENDBRANCH  20  22
ENDBRANCH  17  18
ENDBRANCH  16  17
ENDBRANCH   7  16
TORSDOF 6
ENDMDL
MODEL 2
REMARK VINA RESULT:      -8.2      1.245      1.896
REMARK  Name = 
REMARK  7 active torsions:
REMARK  status: ('A' for Active; 'I' for Inactive)
REMARK    1  A    between atoms: C_1  and  C_2
REMARK    2  A    between atoms: C_4  and  S_5
REMARK    3  A    between atoms: S_5  and  N_8
REMARK    4  A    between atoms: C_15  and  O_16
REMARK    5  A    between atoms: O_16  and  C_17
REMARK    6  A    between atoms: C_17  and  C_18
REMARK    7  A    between atoms: N_20  and  C_21
REMARK                            x       y       z     vdW  Elec       q    Type
REMARK                         _______ _______ _______ _____ _____    ______ ____
ROOT
ATOM      1  C   UNL     1       5.268   6.739  15.429  0.00  0.00    +0.000 C 
ATOM      2  C   UNL     1       5.562   6.109  16.764  0.00  0.00    +0.000 A 
ATOM      3  C   UNL     1       4.776   5.030  17.207  0.00  0.00    +0.000 A 
ATOM      4  C   UNL     1       5.074   4.398  18.419  0.00  0.00    +0.000 A 
ATOM      5  C   UNL     1       6.180   4.784  19.171  0.00  0.00    +0.000 A 
ATOM      6  C   UNL     1       6.950   5.857  18.744  0.00  0.00    +0.000 A 
ATOM      7  C   UNL     1       6.613   6.566  17.580  0.00  0.00    +0.000 A 
ENDROOT
BRANCH   4   8
ATOM      8  S   UNL     1       4.048   3.082  19.011  0.00  0.00    +0.000 S 
ATOM      9  O   UNL     1       3.553   2.370  17.854  0.00  0.00    +0.000 OA
ATOM     10  O   UNL     1       4.764   2.394  20.067  0.00  0.00    +0.000 OA
BRANCH   8  11
ATOM     11  N   UNL     1       2.730   3.877  19.748  0.00  0.00    +0.000 NA
ATOM     12  C   UNL     1       2.489   3.616  21.189  0.00  0.00    +0.000 C 
ATOM     13  C   UNL     1       1.341   2.628  21.232  0.00  0.00    +0.000 C 
ATOM     14  C   UNL     1       0.484   3.014  20.044  0.00  0.00    +0.000 C 
ATOM     15  C   UNL     1       1.440   3.637  19.033  0.00  0.00    +0.000 C 
ENDBRANCH   8  11
ENDBRANCH   4   8
BRANCH   7  16
ATOM     16  O   UNL     1       7.266   7.718  17.207  0.00  0.00    +0.000 OA
BRANCH  16  17
ATOM     17  C   UNL     1       8.379   8.028  18.051  0.00  0.00    +0.000 C 
BRANCH  17  18
ATOM     18  C   UNL     1       8.541   9.510  18.348  0.00  0.00    +0.000 C 
ATOM     19  O   UNL     1       7.928  10.340  17.682  0.00  0.00    +0.000 OA
ATOM     20  N   UNL     1       9.374   9.758  19.419  0.00  0.00    +0.000 N 
ATOM     21  H   UNL     1       9.902   8.960  19.755  0.00  0.00    +0.000 HD
BRANCH  20  22
ATOM     22  C   UNL     1       9.659  11.014  19.981  0.00  0.00    +0.000 A 
ATOM     23  C   UNL     1       9.049  11.490  21.144  0.00  0.00    +0.000 A 
ATOM     24  C   UNL     1       9.358  12.759  21.636  0.00  0.00    +0.000 A 
ATOM     25  C   UNL     1      10.283  13.559  20.969  0.00  0.00    +0.000 A 
ATOM     26  C   UNL     1      10.908  13.086  19.820  0.00  0.00    +0.000 A 
ATOM     27  C   UNL     1      10.605  11.812  19.332  0.00  0.00    +0.000 A 
ENDBRANCH  20  22
ENDBRANCH  17  18
ENDBRANCH  16  17
ENDBRANCH   7  16
TORSDOF 6
ENDMDL
MODEL 3
REMARK VINA RESULT:      -8.2      0.968      1.735
REMARK  Name = 
REMARK  7 active torsions:
REMARK  status: ('A' for Active; 'I' for Inactive)
REMARK    1  A    between atoms: C_1  and  C_2
REMARK    2  A    between atoms: C_4  and  S_5
REMARK    3  A    between atoms: S_5  and  N_8
REMARK    4  A    between atoms: C_15  and  O_16
REMARK    5  A    between atoms: O_16  and  C_17
REMARK    6  A    between atoms: C_17  and  C_18
REMARK    7  A    between atoms: N_20  and  C_21
REMARK                            x       y       z     vdW  Elec       q    Type
REMARK                         _______ _______ _______ _____ _____    ______ ____
ROOT
ATOM      1  C   UNL     1       6.476   5.232  14.863  0.00  0.00    +0.000 C 
ATOM      2  C   UNL     1       6.248   5.077  16.343  0.00  0.00    +0.000 A 
ATOM      3  C   UNL     1       5.299   4.148  16.802  0.00  0.00    +0.000 A 
ATOM      4  C   UNL     1       5.117   3.953  18.175  0.00  0.00    +0.000 A 
ATOM      5  C   UNL     1       5.909   4.626  19.102  0.00  0.00    +0.000 A 
ATOM      6  C   UNL     1       6.838   5.555  18.653  0.00  0.00    +0.000 A 
ATOM      7  C   UNL     1       6.970   5.835  17.283  0.00  0.00    +0.000 A 
ENDROOT
BRANCH   4   8
ATOM      8  S   UNL     1       3.877   2.832  18.758  0.00  0.00    +0.000 S 
ATOM      9  O   UNL     1       3.174   2.329  17.599  0.00  0.00    +0.000 OA
ATOM     10  O   UNL     1       4.496   1.930  19.709  0.00  0.00    +0.000 OA
BRANCH   8  11
ATOM     11  N   UNL     1       2.802   3.819  19.643  0.00  0.00    +0.000 NA
ATOM     12  C   UNL     1       2.609   3.504  21.081  0.00  0.00    +0.000 C 
ATOM     13  C   UNL     1       1.287   2.767  21.157  0.00  0.00    +0.000 C 
ATOM     14  C   UNL     1       0.451   3.404  20.067  0.00  0.00    +0.000 C 
ATOM     15  C   UNL     1       1.446   3.896  19.022  0.00  0.00    +0.000 C 
ENDBRANCH   8  11
ENDBRANCH   4   8
BRANCH   7  16
ATOM     16  O   UNL     1       7.776   6.848  16.816  0.00  0.00    +0.000 OA
BRANCH  16  17
ATOM     17  C   UNL     1       7.381   8.140  17.289  0.00  0.00    +0.000 C 
BRANCH  17  18
ATOM     18  C   UNL     1       8.408   8.815  18.182  0.00  0.00    +0.000 C 
ATOM     19  O   UNL     1       8.919   8.194  19.111  0.00  0.00    +0.000 OA
ATOM     20  N   UNL     1       8.692  10.108  17.795  0.00  0.00    +0.000 N 
ATOM     21  H   UNL     1       8.071  10.501  17.096  0.00  0.00    +0.000 HD
BRANCH  20  22
ATOM     22  C   UNL     1       9.650  10.960  18.371  0.00  0.00    +0.000 A 
ATOM     23  C   UNL     1      10.587  11.677  17.622  0.00  0.00    +0.000 A 
ATOM     24  C   UNL     1      11.529  12.488  18.257  0.00  0.00    +0.000 A 
ATOM     25  C   UNL     1      11.537  12.589  19.647  0.00  0.00    +0.000 A 
ATOM     26  C   UNL     1      10.598  11.892  20.399  0.00  0.00    +0.000 A 
ATOM     27  C   UNL     1       9.648  11.087  19.763  0.00  0.00    +0.000 A 
ENDBRANCH  20  22
ENDBRANCH  17  18
ENDBRANCH  16  17
ENDBRANCH   7  16
TORSDOF 6
ENDMDL
MODEL 4
REMARK VINA RESULT:      -8.1      0.919      1.242
REMARK  Name = 
REMARK  7 active torsions:
REMARK  status: ('A' for Active; 'I' for Inactive)
REMARK    1  A    between atoms: C_1  and  C_2
REMARK    2  A    between atoms: C_4  and  S_5
REMARK    3  A    between atoms: S_5  and  N_8
REMARK    4  A    between atoms: C_15  and  O_16
REMARK    5  A    between atoms: O_16  and  C_17
REMARK    6  A    between atoms: C_17  and  C_18
REMARK    7  A    between atoms: N_20  and  C_21
REMARK                            x       y       z     vdW  Elec       q    Type
REMARK                         _______ _______ _______ _____ _____    ______ ____
ROOT
ATOM      1  C   UNL     1       7.999   5.790  19.434  0.00  0.00    +0.000 C 
ATOM      2  C   UNL     1       6.825   5.784  18.492  0.00  0.00    +0.000 A 
ATOM      3  C   UNL     1       5.819   4.815  18.648  0.00  0.00    +0.000 A 
ATOM      4  C   UNL     1       4.695   4.831  17.815  0.00  0.00    +0.000 A 
ATOM      5  C   UNL     1       4.526   5.836  16.867  0.00  0.00    +0.000 A 
ATOM      6  C   UNL     1       5.523   6.787  16.700  0.00  0.00    +0.000 A 
ATOM      7  C   UNL     1       6.702   6.732  17.460  0.00  0.00    +0.000 A 
ENDROOT
BRANCH   4   8
ATOM      8  S   UNL     1       3.457   3.575  17.965  0.00  0.00    +0.000 S 
ATOM      9  O   UNL     1       2.952   3.310  16.636  0.00  0.00    +0.000 OA
ATOM     10  O   UNL     1       3.993   2.510  18.790  0.00  0.00    +0.000 OA
BRANCH   8  11
ATOM     11  N   UNL     1       2.213   4.317  18.867  0.00  0.00    +0.000 NA
ATOM     12  C   UNL     1       2.603   5.058  20.093  0.00  0.00    +0.000 C 
ATOM     13  C   UNL     1       2.273   4.131  21.245  0.00  0.00    +0.000 C 
ATOM     14  C   UNL     1       1.039   3.390  20.774  0.00  0.00    +0.000 C 
ATOM     15  C   UNL     1       1.132   3.361  19.253  0.00  0.00    +0.000 C 
ENDBRANCH   8  11
ENDBRANCH   4   8
BRANCH   7  16
ATOM     16  O   UNL     1       7.769   7.569  17.222  0.00  0.00    +0.000 OA
BRANCH  16  17
ATOM     17  C   UNL     1       7.483   8.938  17.526  0.00  0.00    +0.000 C 
BRANCH  17  18
ATOM     18  C   UNL     1       8.548   9.624  18.366  0.00  0.00    +0.000 C 
ATOM     19  O   UNL     1       9.070   9.026  19.304  0.00  0.00    +0.000 OA
ATOM     20  N   UNL     1       8.849  10.895  17.923  0.00  0.00    +0.000 N 
ATOM     21  H   UNL     1       8.219  11.275  17.226  0.00  0.00    +0.000 HD
BRANCH  20  22
ATOM     22  C   UNL     1       9.840  11.746  18.442  0.00  0.00    +0.000 A 
ATOM     23  C   UNL     1      11.181  11.688  18.054  0.00  0.00    +0.000 A 
ATOM     24  C   UNL     1      12.121  12.546  18.627  0.00  0.00    +0.000 A 
ATOM     25  C   UNL     1      11.724  13.471  19.590  0.00  0.00    +0.000 A 
ATOM     26  C   UNL     1      10.388  13.547  19.970  0.00  0.00    +0.000 A 
ATOM     27  C   UNL     1       9.445  12.695  19.390  0.00  0.00    +0.000 A 
ENDBRANCH  20  22
ENDBRANCH  17  18
ENDBRANCH  16  17
ENDBRANCH   7  16
TORSDOF 6
ENDMDL
MODEL 5
REMARK VINA RESULT:      -8.0      1.279      1.819
REMARK  Name = 
REMARK  7 active torsions:
REMARK  status: ('A' for Active; 'I' for Inactive)
REMARK    1  A    between atoms: C_1  and  C_2
REMARK    2  A    between atoms: C_4  and  S_5
REMARK    3  A    between atoms: S_5  and  N_8
REMARK    4  A    between atoms: C_15  and  O_16
REMARK    5  A    between atoms: O_16  and  C_17
REMARK    6  A    between atoms: C_17  and  C_18
REMARK    7  A    between atoms: N_20  and  C_21
REMARK                            x       y       z     vdW  Elec       q    Type
REMARK                         _______ _______ _______ _____ _____    ______ ____
ROOT
ATOM      1  C   UNL     1       6.052   4.778  14.828  0.00  0.00    +0.000 C 
ATOM      2  C   UNL     1       5.797   4.692  16.310  0.00  0.00    +0.000 A 
ATOM      3  C   UNL     1       4.756   3.875  16.786  0.00  0.00    +0.000 A 
ATOM      4  C   UNL     1       4.545   3.741  18.162  0.00  0.00    +0.000 A 
ATOM      5  C   UNL     1       5.393   4.359  19.077  0.00  0.00    +0.000 A 
ATOM      6  C   UNL     1       6.413   5.177  18.611  0.00  0.00    +0.000 A 
ATOM      7  C   UNL     1       6.583   5.401  17.236  0.00  0.00    +0.000 A 
ENDROOT
BRANCH   4   8
ATOM      8  S   UNL     1       3.195   2.766  18.764  0.00  0.00    +0.000 S 
ATOM      9  O   UNL     1       2.844   1.829  17.719  0.00  0.00    +0.000 OA
ATOM     10  O   UNL     1       3.528   2.311  20.099  0.00  0.00    +0.000 OA
BRANCH   8  11
ATOM     11  N   UNL     1       1.914   3.881  18.928  0.00  0.00    +0.000 NA
ATOM     12  C   UNL     1       2.054   5.193  18.248  0.00  0.00    +0.000 C 
ATOM     13  C   UNL     1       2.450   6.170  19.335  0.00  0.00    +0.000 C 
ATOM     14  C   UNL     1       1.727   5.660  20.564  0.00  0.00    +0.000 C 
ATOM     15  C   UNL     1       1.571   4.159  20.356  0.00  0.00    +0.000 C 
ENDBRANCH   8  11
ENDBRANCH   4   8
BRANCH   7  16
ATOM     16  O   UNL     1       7.490   6.315  16.748  0.00  0.00    +0.000 OA
BRANCH  16  17
ATOM     17  C   UNL     1       7.127   7.670  17.034  0.00  0.00    +0.000 C 
BRANCH  17  18
ATOM     18  C   UNL     1       8.063   8.372  18.003  0.00  0.00    +0.000 C 
ATOM     19  O   UNL     1       8.684   7.721  18.840  0.00  0.00    +0.000 OA
ATOM     20  N   UNL     1       8.141   9.732  17.788  0.00  0.00    +0.000 N 
ATOM     21  H   UNL     1       7.451  10.114  17.150  0.00  0.00    +0.000 HD
BRANCH  20  22
ATOM     22  C   UNL     1       8.974  10.638  18.467  0.00  0.00    +0.000 A 
ATOM     23  C   UNL     1       9.467  10.410  19.754  0.00  0.00    +0.000 A 
ATOM     24  C   UNL     1      10.270  11.362  20.383  0.00  0.00    +0.000 A 
ATOM     25  C   UNL     1      10.588  12.549  19.727  0.00  0.00    +0.000 A 
ATOM     26  C   UNL     1      10.115  12.777  18.439  0.00  0.00    +0.000 A 
ATOM     27  C   UNL     1       9.318  11.820  17.805  0.00  0.00    +0.000 A 
ENDBRANCH  20  22
ENDBRANCH  17  18
ENDBRANCH  16  17
ENDBRANCH   7  16
TORSDOF 6
ENDMDL
MODEL 6
REMARK VINA RESULT:      -7.9      1.115      1.456
REMARK  Name = 
REMARK  7 active torsions:
REMARK  status: ('A' for Active; 'I' for Inactive)
REMARK    1  A    between atoms: C_1  and  C_2
REMARK    2  A    between atoms: C_4  and  S_5
REMARK    3  A    between atoms: S_5  and  N_8
REMARK    4  A    between atoms: C_15  and  O_16
REMARK    5  A    between atoms: O_16  and  C_17
REMARK    6  A    between atoms: C_17  and  C_18
REMARK    7  A    between atoms: N_20  and  C_21
REMARK                            x       y       z     vdW  Elec       q    Type
REMARK                         _______ _______ _______ _____ _____    ______ ____
ROOT
ATOM      1  C   UNL     1       7.723   4.587  17.613  0.00  0.00    +0.000 C 
ATOM      2  C   UNL     1       6.362   5.225  17.529  0.00  0.00    +0.000 A 
ATOM      3  C   UNL     1       5.214   4.424  17.658  0.00  0.00    +0.000 A 
ATOM      4  C   UNL     1       3.944   5.011  17.639  0.00  0.00    +0.000 A 
ATOM      5  C   UNL     1       3.799   6.393  17.555  0.00  0.00    +0.000 A 
ATOM      6  C   UNL     1       4.930   7.187  17.415  0.00  0.00    +0.000 A 
ATOM      7  C   UNL     1       6.207   6.610  17.335  0.00  0.00    +0.000 A 
ENDROOT
BRANCH   4   8
ATOM      8  S   UNL     1       2.495   3.999  17.735  0.00  0.00    +0.000 S 
ATOM      9  O   UNL     1       1.368   4.883  17.938  0.00  0.00    +0.000 OA
ATOM     10  O   UNL     1       2.524   3.063  16.629  0.00  0.00    +0.000 OA
BRANCH   8  11
ATOM     11  N   UNL     1       2.715   3.085  19.159  0.00  0.00    +0.000 NA
ATOM     12  C   UNL     1       1.586   2.232  19.609  0.00  0.00    +0.000 C 
ATOM     13  C   UNL     1       0.927   3.000  20.736  0.00  0.00    +0.000 C 
ATOM     14  C   UNL     1       2.077   3.715  21.412  0.00  0.00    +0.000 C 
ATOM     15  C   UNL     1       3.125   3.925  20.326  0.00  0.00    +0.000 C 
ENDBRANCH   8  11
ENDBRANCH   4   8
BRANCH   7  16
ATOM     16  O   UNL     1       7.331   7.352  17.053  0.00  0.00    +0.000 OA
BRANCH  16  17
ATOM     17  C   UNL     1       8.084   7.694  18.221  0.00  0.00    +0.000 C 
BRANCH  17  18
ATOM     18  C   UNL     1       8.419   9.171  18.335  0.00  0.00    +0.000 C 
ATOM     19  O   UNL     1       7.906   9.979  17.564  0.00  0.00    +0.000 OA
ATOM     20  N   UNL     1       9.278   9.451  19.377  0.00  0.00    +0.000 N 
ATOM     21  H   UNL     1       9.711   8.644  19.815  0.00  0.00    +0.000 HD
BRANCH  20  22
ATOM     22  C   UNL     1       9.711  10.725  19.783  0.00  0.00    +0.000 A 
ATOM     23  C   UNL     1       9.238  11.365  20.931  0.00  0.00    +0.000 A 
ATOM     24  C   UNL     1       9.689  12.642  21.266  0.00  0.00    +0.000 A 
ATOM     25  C   UNL     1      10.620  13.287  20.455  0.00  0.00    +0.000 A 
ATOM     26  C   UNL     1      11.109  12.650  19.319  0.00  0.00    +0.000 A 
ATOM     27  C   UNL     1      10.664  11.367  18.988  0.00  0.00    +0.000 A 
ENDBRANCH  20  22
ENDBRANCH  17  18
ENDBRANCH  16  17
ENDBRANCH   7  16
TORSDOF 6
ENDMDL
MODEL 7
REMARK VINA RESULT:      -7.5      6.649      9.043
REMARK  Name = 
REMARK  7 active torsions:
REMARK  status: ('A' for Active; 'I' for Inactive)
REMARK    1  A    between atoms: C_1  and  C_2
REMARK    2  A    between atoms: C_4  and  S_5
REMARK    3  A    between atoms: S_5  and  N_8
REMARK    4  A    between atoms: C_15  and  O_16
REMARK    5  A    between atoms: O_16  and  C_17
REMARK    6  A    between atoms: C_17  and  C_18
REMARK    7  A    between atoms: N_20  and  C_21
REMARK                            x       y       z     vdW  Elec       q    Type
REMARK                         _______ _______ _______ _____ _____    ______ ____
ROOT
ATOM      1  C   UNL     1       0.766   8.803  21.971  0.00  0.00    +0.000 C 
ATOM      2  C   UNL     1       1.314   8.614  20.581  0.00  0.00    +0.000 A 
ATOM      3  C   UNL     1       1.968   7.413  20.254  0.00  0.00    +0.000 A 
ATOM      4  C   UNL     1       2.433   7.202  18.952  0.00  0.00    +0.000 A 
ATOM      5  C   UNL     1       2.201   8.141  17.951  0.00  0.00    +0.000 A 
ATOM      6  C   UNL     1       1.568   9.334  18.273  0.00  0.00    +0.000 A 
ATOM      7  C   UNL     1       1.179   9.607  19.594  0.00  0.00    +0.000 A 
ENDROOT
BRANCH   4   8
ATOM      8  S   UNL     1       3.315   5.720  18.551  0.00  0.00    +0.000 S 
ATOM      9  O   UNL     1       4.059   5.978  17.338  0.00  0.00    +0.000 OA
ATOM     10  O   UNL     1       3.977   5.251  19.752  0.00  0.00    +0.000 OA
BRANCH   8  11
ATOM     11  N   UNL     1       2.090   4.588  18.190  0.00  0.00    +0.000 NA
ATOM     12  C   UNL     1       1.441   3.892  19.330  0.00  0.00    +0.000 C 
ATOM     13  C   UNL     1       2.077   2.518  19.377  0.00  0.00    +0.000 C 
ATOM     14  C   UNL     1       2.348   2.192  17.923  0.00  0.00    +0.000 C 
ATOM     15  C   UNL     1       2.542   3.535  17.230  0.00  0.00    +0.000 C 
ENDBRANCH   8  11
ENDBRANCH   4   8
BRANCH   7  16
ATOM     16  O   UNL     1       0.681  10.832  19.974  0.00  0.00    +0.000 OA
BRANCH  16  17
ATOM     17  C   UNL     1       0.735  11.807  18.928  0.00  0.00    +0.000 C 
BRANCH  17  18
ATOM     18  C   UNL     1      -0.621  12.363  18.525  0.00  0.00    +0.000 C 
ATOM     19  O   UNL     1      -0.699  13.470  17.998  0.00  0.00    +0.000 OA
ATOM     20  N   UNL     1      -1.658  11.489  18.776  0.00  0.00    +0.000 N 
ATOM     21  H   UNL     1      -1.422  10.683  19.345  0.00  0.00    +0.000 HD
BRANCH  20  22
ATOM     22  C   UNL     1      -3.010  11.682  18.447  0.00  0.00    +0.000 A 
ATOM     23  C   UNL     1      -3.943  12.234  19.329  0.00  0.00    +0.000 A 
ATOM     24  C   UNL     1      -5.278  12.376  18.948  0.00  0.00    +0.000 A 
ATOM     25  C   UNL     1      -5.689  11.970  17.681  0.00  0.00    +0.000 A 
ATOM     26  C   UNL     1      -4.764  11.435  16.790  0.00  0.00    +0.000 A 
ATOM     27  C   UNL     1      -3.425  11.301  17.167  0.00  0.00    +0.000 A 
ENDBRANCH  20  22
ENDBRANCH  17  18
ENDBRANCH  16  17
ENDBRANCH   7  16
TORSDOF 6
ENDMDL
MODEL 8
REMARK VINA RESULT:      -7.4      1.471      1.886
REMARK  Name = 
REMARK  7 active torsions:
REMARK  status: ('A' for Active; 'I' for Inactive)
REMARK    1  A    between atoms: C_1  and  C_2
REMARK    2  A    between atoms: C_4  and  S_5
REMARK    3  A    between atoms: S_5  and  N_8
REMARK    4  A    between atoms: C_15  and  O_16
REMARK    5  A    between atoms: O_16  and  C_17
REMARK    6  A    between atoms: C_17  and  C_18
REMARK    7  A    between atoms: N_20  and  C_21
REMARK                            x       y       z     vdW  Elec       q    Type
REMARK                         _______ _______ _______ _____ _____    ______ ____
ROOT
ATOM      1  C   UNL     1       8.104   5.505  19.788  0.00  0.00    +0.000 C 
ATOM      2  C   UNL     1       6.988   5.879  18.849  0.00  0.00    +0.000 A 
ATOM      3  C   UNL     1       5.850   5.058  18.766  0.00  0.00    +0.000 A 
ATOM      4  C   UNL     1       4.781   5.423  17.941  0.00  0.00    +0.000 A 
ATOM      5  C   UNL     1       4.800   6.627  17.241  0.00  0.00    +0.000 A 
ATOM      6  C   UNL     1       5.928   7.434  17.309  0.00  0.00    +0.000 A 
ATOM      7  C   UNL     1       7.049   7.040  18.056  0.00  0.00    +0.000 A 
ENDROOT
BRANCH   4   8
ATOM      8  S   UNL     1       3.375   4.360  17.784  0.00  0.00    +0.000 S 
ATOM      9  O   UNL     1       2.203   5.206  17.718  0.00  0.00    +0.000 OA
ATOM     10  O   UNL     1       3.657   3.389  16.746  0.00  0.00    +0.000 OA
BRANCH   8  11
ATOM     11  N   UNL     1       3.328   3.505  19.260  0.00  0.00    +0.000 NA
ATOM     12  C   UNL     1       2.853   2.099  19.223  0.00  0.00    +0.000 C 
ATOM     13  C   UNL     1       1.422   2.146  19.720  0.00  0.00    +0.000 C 
ATOM     14  C   UNL     1       1.429   3.260  20.746  0.00  0.00    +0.000 C 
ATOM     15  C   UNL     1       2.536   4.212  20.311  0.00  0.00    +0.000 C 
ENDBRANCH   8  11
ENDBRANCH   4   8
BRANCH   7  16
ATOM     16  O   UNL     1       8.232   7.743  18.030  0.00  0.00    +0.000 OA
BRANCH  16  17
ATOM     17  C   UNL     1       8.056   9.121  17.688  0.00  0.00    +0.000 C 
BRANCH  17  18
ATOM     18  C   UNL     1       8.941  10.075  18.473  0.00  0.00    +0.000 C 
ATOM     19  O   UNL     1       9.303   9.782  19.610  0.00  0.00    +0.000 OA
ATOM     20  N   UNL     1       9.285  11.204  17.759  0.00  0.00    +0.000 N 
ATOM     21  H   UNL     1       8.777  11.343  16.892  0.00  0.00    +0.000 HD
BRANCH  20  22
ATOM     22  C   UNL     1      10.148  12.228  18.182  0.00  0.00    +0.000 A 
ATOM     23  C   UNL     1      11.532  12.067  18.292  0.00  0.00    +0.000 A 
ATOM     24  C   UNL     1      12.332  13.118  18.744  0.00  0.00    +0.000 A 
ATOM     25  C   UNL     1      11.754  14.338  19.086  0.00  0.00    +0.000 A 
ATOM     26  C   UNL     1      10.379  14.512  18.964  0.00  0.00    +0.000 A 
ATOM     27  C   UNL     1       9.578  13.463  18.503  0.00  0.00    +0.000 A 
ENDBRANCH  20  22
ENDBRANCH  17  18
ENDBRANCH  16  17
ENDBRANCH   7  16
TORSDOF 6
ENDMDL
MODEL 9
REMARK VINA RESULT:      -7.4      3.834      7.169
REMARK  Name = 
REMARK  7 active torsions:
REMARK  status: ('A' for Active; 'I' for Inactive)
REMARK    1  A    between atoms: C_1  and  C_2
REMARK    2  A    between atoms: C_4  and  S_5
REMARK    3  A    between atoms: S_5  and  N_8
REMARK    4  A    between atoms: C_15  and  O_16
REMARK    5  A    between atoms: O_16  and  C_17
REMARK    6  A    between atoms: C_17  and  C_18
REMARK    7  A    between atoms: N_20  and  C_21
REMARK                            x       y       z     vdW  Elec       q    Type
REMARK                         _______ _______ _______ _____ _____    ______ ____
ROOT
ATOM      1  C   UNL     1       1.999   2.825  17.517  0.00  0.00    +0.000 C 
ATOM      2  C   UNL     1       3.382   3.239  17.948  0.00  0.00    +0.000 A 
ATOM      3  C   UNL     1       4.332   3.591  16.974  0.00  0.00    +0.000 A 
ATOM      4  C   UNL     1       5.602   4.031  17.362  0.00  0.00    +0.000 A 
ATOM      5  C   UNL     1       5.923   4.185  18.708  0.00  0.00    +0.000 A 
ATOM      6  C   UNL     1       4.992   3.825  19.673  0.00  0.00    +0.000 A 
ATOM      7  C   UNL     1       3.746   3.291  19.305  0.00  0.00    +0.000 A 
ENDROOT
BRANCH   4   8
ATOM      8  S   UNL     1       6.823   4.415  16.139  0.00  0.00    +0.000 S 
ATOM      9  O   UNL     1       8.119   4.221  16.752  0.00  0.00    +0.000 OA
ATOM     10  O   UNL     1       6.464   3.731  14.913  0.00  0.00    +0.000 OA
BRANCH   8  11
ATOM     11  N   UNL     1       6.618   6.084  15.850  0.00  0.00    +0.000 NA
ATOM     12  C   UNL     1       7.066   7.024  16.908  0.00  0.00    +0.000 C 
ATOM     13  C   UNL     1       5.804   7.448  17.630  0.00  0.00    +0.000 C 
ATOM     14  C   UNL     1       4.751   7.467  16.542  0.00  0.00    +0.000 C 
ATOM     15  C   UNL     1       5.207   6.441  15.512  0.00  0.00    +0.000 C 
ENDBRANCH   8  11
ENDBRANCH   4   8
BRANCH   7  16
ATOM     16  O   UNL     1       2.860   2.791  20.232  0.00  0.00    +0.000 OA
BRANCH  16  17
ATOM     17  C   UNL     1       2.471   3.759  21.212  0.00  0.00    +0.000 C 
BRANCH  17  18
ATOM     18  C   UNL     1       1.665   4.920  20.653  0.00  0.00    +0.000 C 
ATOM     19  O   UNL     1       0.483   4.761  20.356  0.00  0.00    +0.000 OA
ATOM     20  N   UNL     1       2.387   6.093  20.580  0.00  0.00    +0.000 N 
ATOM     21  H   UNL     1       3.386   6.001  20.733  0.00  0.00    +0.000 HD
BRANCH  20  22
ATOM     22  C   UNL     1       1.900   7.349  20.181  0.00  0.00    +0.000 A 
ATOM     23  C   UNL     1       2.109   7.882  18.906  0.00  0.00    +0.000 A 
ATOM     24  C   UNL     1       1.620   9.148  18.580  0.00  0.00    +0.000 A 
ATOM     25  C   UNL     1       0.916   9.888  19.527  0.00  0.00    +0.000 A 
ATOM     26  C   UNL     1       0.690   9.359  20.793  0.00  0.00    +0.000 A 
ATOM     27  C   UNL     1       1.171   8.087  21.117  0.00  0.00    +0.000 A 
ENDBRANCH  20  22
ENDBRANCH  17  18
ENDBRANCH  16  17
ENDBRANCH   7  16
TORSDOF 6
ENDMDL
