MODEL 1
REMARK VINA RESULT:      -8.0      0.000      0.000
REMARK  Name = 
REMARK  5 active torsions:
REMARK  status: ('A' for Active; 'I' for Inactive)
REMARK    1  A    between atoms: C_1  and  O_2
REMARK    2  A    between atoms: O_2  and  C_3
REMARK    3  A    between atoms: C_7  and  C_8
REMARK    4  A    between atoms: N_10  and  C_11
REMARK    5  A    between atoms: C_16  and  C_18
REMARK                            x       y       z     vdW  Elec       q    Type
REMARK                         _______ _______ _______ _____ _____    ______ ____
ROOT
ATOM      1  C   UNL     1       1.669   8.650  18.970  0.00  0.00    +0.000 A 
ATOM      2  C   UNL     1       0.988   9.698  18.361  0.00  0.00    +0.000 A 
ATOM      3  C   UNL     1       0.236  10.592  19.131  0.00  0.00    +0.000 A 
ATOM      4  C   UNL     1       0.167  10.411  20.507  0.00  0.00    +0.000 A 
ATOM      5  N   UNL     1      -0.548  11.351  21.257  0.00  0.00    +0.000 N 
ATOM      6  C   UNL     1      -0.704  11.320  22.627  0.00  0.00    +0.000 C 
ATOM      7  O   UNL     1      -0.291  10.446  23.382  0.00  0.00    +0.000 OA
ATOM      8  N   UNL     1       0.782   9.378  21.108  0.00  0.00    +0.000 NA
ATOM      9  C   UNL     1       1.508   8.529  20.345  0.00  0.00    +0.000 A 
ATOM     10  H   UNL     1      -0.966  12.135  20.775  0.00  0.00    +0.000 HD
ENDROOT
BRANCH   6  11
ATOM     11  C   UNL     1      -1.438  12.461  23.148  0.00  0.00    +0.000 A 
ATOM     12  C   UNL     1      -2.797  12.643  23.318  0.00  0.00    +0.000 A 
ATOM     13  C   UNL     1      -2.972  13.926  23.884  0.00  0.00    +0.000 A 
ATOM     14  C   UNL     1      -1.709  14.456  24.020  0.00  0.00    +0.000 A 
ATOM     15  O   UNL     1      -0.769  13.580  23.575  0.00  0.00    +0.000 OA
ENDBRANCH   6  11
BRANCH   1  18
ATOM     16  C   UNL     1       2.690   6.408  18.629  0.00  0.00    +0.000 C 
ATOM     17  O   UNL     1       2.157   5.820  19.566  0.00  0.00    +0.000 OA
ATOM     18  N   UNL     1       2.504   7.735  18.283  0.00  0.00    +0.000 N 
ATOM     19  H   UNL     1       2.860   8.040  17.385  0.00  0.00    +0.000 HD
BRANCH  16  24
ATOM     20  C   UNL     1       5.397   5.414  16.157  0.00  0.00    +0.000 A 
ATOM     21  C   UNL     1       5.247   4.024  16.176  0.00  0.00    +0.000 A 
ATOM     22  C   UNL     1       4.272   3.424  16.972  0.00  0.00    +0.000 A 
ATOM     23  C   UNL     1       3.438   4.217  17.753  0.00  0.00    +0.000 A 
ATOM     24  C   UNL     1       3.575   5.612  17.736  0.00  0.00    +0.000 A 
ATOM     25  C   UNL     1       4.561   6.213  16.942  0.00  0.00    +0.000 A 
BRANCH  20  27
ATOM     26  C   UNL     1       7.041   4.899  14.515  0.00  0.00    +0.000 C 
ATOM     27  O   UNL     1       6.399   5.864  15.339  0.00  0.00    +0.000 OA
ENDBRANCH  20  27
ENDBRANCH  16  24
ENDBRANCH   1  18
TORSDOF 4
ENDMDL
MODEL 2
REMARK VINA RESULT:      -8.0      1.128      1.283
REMARK  Name = 
REMARK  5 active torsions:
REMARK  status: ('A' for Active; 'I' for Inactive)
REMARK    1  A    between atoms: C_1  and  O_2
REMARK    2  A    between atoms: O_2  and  C_3
REMARK    3  A    between atoms: C_7  and  C_8
REMARK    4  A    between atoms: N_10  and  C_11
REMARK    5  A    between atoms: C_16  and  C_18
REMARK                            x       y       z     vdW  Elec       q    Type
REMARK                         _______ _______ _______ _____ _____    ______ ____
ROOT
ATOM      1  C   UNL     1       1.648   8.753  19.150  0.00  0.00    +0.000 A 
ATOM      2  C   UNL     1       0.810   9.669  18.523  0.00  0.00    +0.000 A 
ATOM      3  C   UNL     1      -0.071  10.450  19.278  0.00  0.00    +0.000 A 
ATOM      4  C   UNL     1      -0.109  10.290  20.657  0.00  0.00    +0.000 A 
ATOM      5  N   UNL     1      -0.961  11.122  21.390  0.00  0.00    +0.000 N 
ATOM      6  C   UNL     1      -1.108  11.096  22.762  0.00  0.00    +0.000 C 
ATOM      7  O   UNL     1      -0.563  10.314  23.533  0.00  0.00    +0.000 OA
ATOM      8  N   UNL     1       0.661   9.379  21.277  0.00  0.00    +0.000 NA
ATOM      9  C   UNL     1       1.510   8.638  20.528  0.00  0.00    +0.000 A 
ATOM     10  H   UNL     1      -1.497  11.820  20.895  0.00  0.00    +0.000 HD
ENDROOT
BRANCH   6  11
ATOM     11  C   UNL     1      -2.011  12.118  23.262  0.00  0.00    +0.000 A 
ATOM     12  C   UNL     1      -1.828  13.481  23.399  0.00  0.00    +0.000 A 
ATOM     13  C   UNL     1      -3.033  14.009  23.914  0.00  0.00    +0.000 A 
ATOM     14  C   UNL     1      -3.881  12.937  24.068  0.00  0.00    +0.000 A 
ATOM     15  O   UNL     1      -3.275  11.783  23.681  0.00  0.00    +0.000 OA
ENDBRANCH   6  11
BRANCH   1  18
ATOM     16  C   UNL     1       2.781   6.601  18.632  0.00  0.00    +0.000 C 
ATOM     17  O   UNL     1       2.116   5.866  19.356  0.00  0.00    +0.000 OA
ATOM     18  N   UNL     1       2.616   7.966  18.479  0.00  0.00    +0.000 N 
ATOM     19  H   UNL     1       3.108   8.415  17.716  0.00  0.00    +0.000 HD
BRANCH  16  24
ATOM     20  C   UNL     1       6.042   5.903  16.814  0.00  0.00    +0.000 A 
ATOM     21  C   UNL     1       5.757   4.645  16.274  0.00  0.00    +0.000 A 
ATOM     22  C   UNL     1       4.518   4.042  16.490  0.00  0.00    +0.000 A 
ATOM     23  C   UNL     1       3.556   4.700  17.249  0.00  0.00    +0.000 A 
ATOM     24  C   UNL     1       3.828   5.965  17.788  0.00  0.00    +0.000 A 
ATOM     25  C   UNL     1       5.077   6.565  17.577  0.00  0.00    +0.000 A 
BRANCH  20  27
ATOM     26  C   UNL     1       7.772   7.460  17.310  0.00  0.00    +0.000 C 
ATOM     27  O   UNL     1       7.298   6.368  16.531  0.00  0.00    +0.000 OA
ENDBRANCH  20  27
ENDBRANCH  16  24
ENDBRANCH   1  18
TORSDOF 4
ENDMDL
MODEL 3
REMARK VINA RESULT:      -7.9      1.881      2.344
REMARK  Name = 
REMARK  5 active torsions:
REMARK  status: ('A' for Active; 'I' for Inactive)
REMARK    1  A    between atoms: C_1  and  O_2
REMARK    2  A    between atoms: O_2  and  C_3
REMARK    3  A    between atoms: C_7  and  C_8
REMARK    4  A    between atoms: N_10  and  C_11
REMARK    5  A    between atoms: C_16  and  C_18
REMARK                            x       y       z     vdW  Elec       q    Type
REMARK                         _______ _______ _______ _____ _____    ______ ____
ROOT
ATOM      1  C   UNL     1       1.434   8.522  20.645  0.00  0.00    +0.000 A 
ATOM      2  C   UNL     1       1.333   8.553  22.032  0.00  0.00    +0.000 A 
ATOM      3  C   UNL     1       0.450   9.442  22.654  0.00  0.00    +0.000 A 
ATOM      4  C   UNL     1      -0.311  10.302  21.872  0.00  0.00    +0.000 A 
ATOM      5  N   UNL     1      -1.223  11.141  22.520  0.00  0.00    +0.000 N 
ATOM      6  C   UNL     1      -2.057  12.043  21.890  0.00  0.00    +0.000 C 
ATOM      7  O   UNL     1      -2.087  12.281  20.688  0.00  0.00    +0.000 OA
ATOM      8  N   UNL     1      -0.195  10.317  20.534  0.00  0.00    +0.000 NA
ATOM      9  C   UNL     1       0.661   9.445  19.952  0.00  0.00    +0.000 A 
ATOM     10  H   UNL     1      -1.310  11.076  23.524  0.00  0.00    +0.000 HD
ENDROOT
BRANCH   6  11
ATOM     11  C   UNL     1      -2.949  12.736  22.804  0.00  0.00    +0.000 A 
ATOM     12  C   UNL     1      -2.697  13.775  23.679  0.00  0.00    +0.000 A 
ATOM     13  C   UNL     1      -3.921  14.085  24.312  0.00  0.00    +0.000 A 
ATOM     14  C   UNL     1      -4.849  13.213  23.791  0.00  0.00    +0.000 A 
ATOM     15  O   UNL     1      -4.274  12.386  22.878  0.00  0.00    +0.000 OA
ENDBRANCH   6  11
BRANCH   1  18
ATOM     16  C   UNL     1       2.188   6.236  20.021  0.00  0.00    +0.000 C 
ATOM     17  O   UNL     1       1.420   5.591  20.729  0.00  0.00    +0.000 OA
ATOM     18  N   UNL     1       2.250   7.615  19.925  0.00  0.00    +0.000 N 
ATOM     19  H   UNL     1       2.800   8.008  19.171  0.00  0.00    +0.000 HD
BRANCH  16  24
ATOM     20  C   UNL     1       5.283   4.581  18.568  0.00  0.00    +0.000 A 
ATOM     21  C   UNL     1       4.719   3.935  17.463  0.00  0.00    +0.000 A 
ATOM     22  C   UNL     1       3.356   4.049  17.192  0.00  0.00    +0.000 A 
ATOM     23  C   UNL     1       2.550   4.814  18.027  0.00  0.00    +0.000 A 
ATOM     24  C   UNL     1       3.106   5.472  19.134  0.00  0.00    +0.000 A 
ATOM     25  C   UNL     1       4.474   5.349  19.410  0.00  0.00    +0.000 A 
BRANCH  20  27
ATOM     26  C   UNL     1       7.450   4.630  17.587  0.00  0.00    +0.000 C 
ATOM     27  O   UNL     1       6.628   4.374  18.718  0.00  0.00    +0.000 OA
ENDBRANCH  20  27
ENDBRANCH  16  24
ENDBRANCH   1  18
TORSDOF 4
ENDMDL
MODEL 4
REMARK VINA RESULT:      -7.9      1.475     10.281
REMARK  Name = 
REMARK  5 active torsions:
REMARK  status: ('A' for Active; 'I' for Inactive)
REMARK    1  A    between atoms: C_1  and  O_2
REMARK    2  A    between atoms: O_2  and  C_3
REMARK    3  A    between atoms: C_7  and  C_8
REMARK    4  A    between atoms: N_10  and  C_11
REMARK    5  A    between atoms: C_16  and  C_18
REMARK                            x       y       z     vdW  Elec       q    Type
REMARK                         _______ _______ _______ _____ _____    ______ ____
ROOT
ATOM      1  C   UNL     1       0.501   9.970  19.989  0.00  0.00    +0.000 A 
ATOM      2  C   UNL     1       0.816  10.284  18.671  0.00  0.00    +0.000 A 
ATOM      3  C   UNL     1       1.665   9.453  17.932  0.00  0.00    +0.000 A 
ATOM      4  C   UNL     1       2.201   8.321  18.535  0.00  0.00    +0.000 A 
ATOM      5  N   UNL     1       3.003   7.482  17.756  0.00  0.00    +0.000 N 
ATOM      6  C   UNL     1       3.600   6.319  18.200  0.00  0.00    +0.000 C 
ATOM      7  O   UNL     1       3.564   5.880  19.344  0.00  0.00    +0.000 OA
ATOM      8  N   UNL     1       1.944   8.026  19.820  0.00  0.00    +0.000 NA
ATOM      9  C   UNL     1       1.115   8.841  20.514  0.00  0.00    +0.000 A 
ATOM     10  H   UNL     1       3.144   7.716  16.783  0.00  0.00    +0.000 HD
ENDROOT
BRANCH   6  11
ATOM     11  C   UNL     1       4.323   5.610  17.157  0.00  0.00    +0.000 A 
ATOM     12  C   UNL     1       4.437   4.255  16.916  0.00  0.00    +0.000 A 
ATOM     13  C   UNL     1       5.236   4.109  15.760  0.00  0.00    +0.000 A 
ATOM     14  C   UNL     1       5.571   5.384  15.367  0.00  0.00    +0.000 A 
ATOM     15  O   UNL     1       5.027   6.305  16.206  0.00  0.00    +0.000 OA
ENDBRANCH   6  11
BRANCH   1  18
ATOM     16  C   UNL     1      -0.067  11.838  21.529  0.00  0.00    +0.000 C 
ATOM     17  O   UNL     1       1.039  12.367  21.591  0.00  0.00    +0.000 OA
ATOM     18  N   UNL     1      -0.397  10.714  20.793  0.00  0.00    +0.000 N 
ATOM     19  H   UNL     1      -1.380  10.495  20.687  0.00  0.00    +0.000 HD
BRANCH  16  24
ATOM     20  C   UNL     1      -3.157  12.423  23.659  0.00  0.00    +0.000 A 
ATOM     21  C   UNL     1      -3.168  13.822  23.695  0.00  0.00    +0.000 A 
ATOM     22  C   UNL     1      -2.191  14.558  23.027  0.00  0.00    +0.000 A 
ATOM     23  C   UNL     1      -1.197  13.895  22.314  0.00  0.00    +0.000 A 
ATOM     24  C   UNL     1      -1.181  12.495  22.265  0.00  0.00    +0.000 A 
ATOM     25  C   UNL     1      -2.158  11.756  22.945  0.00  0.00    +0.000 A 
BRANCH  20  27
ATOM     26  C   UNL     1      -5.403  12.532  24.436  0.00  0.00    +0.000 C 
ATOM     27  O   UNL     1      -4.168  11.831  24.367  0.00  0.00    +0.000 OA
ENDBRANCH  20  27
ENDBRANCH  16  24
ENDBRANCH   1  18
TORSDOF 4
ENDMDL
MODEL 5
REMARK VINA RESULT:      -7.8      1.878     10.084
REMARK  Name = 
REMARK  5 active torsions:
REMARK  status: ('A' for Active; 'I' for Inactive)
REMARK    1  A    between atoms: C_1  and  O_2
REMARK    2  A    between atoms: O_2  and  C_3
REMARK    3  A    between atoms: C_7  and  C_8
REMARK    4  A    between atoms: N_10  and  C_11
REMARK    5  A    between atoms: C_16  and  C_18
REMARK                            x       y       z     vdW  Elec       q    Type
REMARK                         _______ _______ _______ _____ _____    ______ ____
ROOT
ATOM      1  C   UNL     1       0.714   9.379  19.527  0.00  0.00    +0.000 A 
ATOM      2  C   UNL     1       1.159   9.642  18.236  0.00  0.00    +0.000 A 
ATOM      3  C   UNL     1       2.144   8.839  17.652  0.00  0.00    +0.000 A 
ATOM      4  C   UNL     1       2.682   7.786  18.382  0.00  0.00    +0.000 A 
ATOM      5  N   UNL     1       3.626   6.968  17.754  0.00  0.00    +0.000 N 
ATOM      6  C   UNL     1       4.245   5.880  18.334  0.00  0.00    +0.000 C 
ATOM      7  O   UNL     1       4.105   5.502  19.492  0.00  0.00    +0.000 OA
ATOM      8  N   UNL     1       2.296   7.543  19.646  0.00  0.00    +0.000 NA
ATOM      9  C   UNL     1       1.338   8.329  20.189  0.00  0.00    +0.000 A 
ATOM     10  H   UNL     1       3.864   7.158  16.790  0.00  0.00    +0.000 HD
ENDROOT
BRANCH   6  11
ATOM     11  C   UNL     1       5.132   5.172  17.427  0.00  0.00    +0.000 A 
ATOM     12  C   UNL     1       4.841   4.371  16.339  0.00  0.00    +0.000 A 
ATOM     13  C   UNL     1       6.075   3.951  15.796  0.00  0.00    +0.000 A 
ATOM     14  C   UNL     1       7.050   4.513  16.588  0.00  0.00    +0.000 A 
ATOM     15  O   UNL     1       6.494   5.253  17.583  0.00  0.00    +0.000 OA
ENDBRANCH   6  11
BRANCH   1  18
ATOM     16  C   UNL     1      -0.135  11.114  21.093  0.00  0.00    +0.000 C 
ATOM     17  O   UNL     1       0.944  11.559  21.474  0.00  0.00    +0.000 OA
ATOM     18  N   UNL     1      -0.322  10.095  20.176  0.00  0.00    +0.000 N 
ATOM     19  H   UNL     1      -1.258   9.954  19.816  0.00  0.00    +0.000 HD
BRANCH  16  24
ATOM     20  C   UNL     1      -3.405  13.034  21.314  0.00  0.00    +0.000 A 
ATOM     21  C   UNL     1      -3.697  12.863  22.671  0.00  0.00    +0.000 A 
ATOM     22  C   UNL     1      -2.836  12.145  23.500  0.00  0.00    +0.000 A 
ATOM     23  C   UNL     1      -1.673  11.594  22.971  0.00  0.00    +0.000 A 
ATOM     24  C   UNL     1      -1.366  11.766  21.614  0.00  0.00    +0.000 A 
ATOM     25  C   UNL     1      -2.237  12.480  20.781  0.00  0.00    +0.000 A 
BRANCH  20  27
ATOM     26  C   UNL     1      -5.694  13.326  20.734  0.00  0.00    +0.000 C 
ATOM     27  O   UNL     1      -4.341  13.751  20.619  0.00  0.00    +0.000 OA
ENDBRANCH  20  27
ENDBRANCH  16  24
ENDBRANCH   1  18
TORSDOF 4
ENDMDL
MODEL 6
REMARK VINA RESULT:      -7.8      1.656     10.221
REMARK  Name = 
REMARK  5 active torsions:
REMARK  status: ('A' for Active; 'I' for Inactive)
REMARK    1  A    between atoms: C_1  and  O_2
REMARK    2  A    between atoms: O_2  and  C_3
REMARK    3  A    between atoms: C_7  and  C_8
REMARK    4  A    between atoms: N_10  and  C_11
REMARK    5  A    between atoms: C_16  and  C_18
REMARK                            x       y       z     vdW  Elec       q    Type
REMARK                         _______ _______ _______ _____ _____    ______ ____
ROOT
ATOM      1  C   UNL     1       0.715   9.474  19.572  0.00  0.00    +0.000 A 
ATOM      2  C   UNL     1       1.118   9.678  18.256  0.00  0.00    +0.000 A 
ATOM      3  C   UNL     1       2.073   8.838  17.673  0.00  0.00    +0.000 A 
ATOM      4  C   UNL     1       2.624   7.811  18.428  0.00  0.00    +0.000 A 
ATOM      5  N   UNL     1       3.537   6.955  17.803  0.00  0.00    +0.000 N 
ATOM      6  C   UNL     1       4.165   5.886  18.408  0.00  0.00    +0.000 C 
ATOM      7  O   UNL     1       4.061   5.558  19.585  0.00  0.00    +0.000 OA
ATOM      8  N   UNL     1       2.281   7.626  19.714  0.00  0.00    +0.000 NA
ATOM      9  C   UNL     1       1.351   8.446  20.256  0.00  0.00    +0.000 A 
ATOM     10  H   UNL     1       3.743   7.102  16.825  0.00  0.00    +0.000 HD
ENDROOT
BRANCH   6  11
ATOM     11  C   UNL     1       5.011   5.129  17.501  0.00  0.00    +0.000 A 
ATOM     12  C   UNL     1       4.673   4.286  16.459  0.00  0.00    +0.000 A 
ATOM     13  C   UNL     1       5.883   3.829  15.891  0.00  0.00    +0.000 A 
ATOM     14  C   UNL     1       6.891   4.412  16.624  0.00  0.00    +0.000 A 
ATOM     15  O   UNL     1       6.378   5.201  17.606  0.00  0.00    +0.000 OA
ENDBRANCH   6  11
BRANCH   1  18
ATOM     16  C   UNL     1      -0.059  11.228  21.156  0.00  0.00    +0.000 C 
ATOM     17  O   UNL     1       1.038  11.617  21.548  0.00  0.00    +0.000 OA
ATOM     18  N   UNL     1      -0.289  10.230  20.225  0.00  0.00    +0.000 N 
ATOM     19  H   UNL     1      -1.229  10.138  19.860  0.00  0.00    +0.000 HD
BRANCH  16  24
ATOM     20  C   UNL     1      -3.019  12.227  23.317  0.00  0.00    +0.000 A 
ATOM     21  C   UNL     1      -3.444  13.372  22.635  0.00  0.00    +0.000 A 
ATOM     22  C   UNL     1      -2.782  13.802  21.486  0.00  0.00    +0.000 A 
ATOM     23  C   UNL     1      -1.691  13.083  21.010  0.00  0.00    +0.000 A 
ATOM     24  C   UNL     1      -1.261  11.930  21.681  0.00  0.00    +0.000 A 
ATOM     25  C   UNL     1      -1.921  11.504  22.841  0.00  0.00    +0.000 A 
BRANCH  20  27
ATOM     26  C   UNL     1      -5.070  12.460  24.500  0.00  0.00    +0.000 C 
ATOM     27  O   UNL     1      -3.753  11.928  24.433  0.00  0.00    +0.000 OA
ENDBRANCH  20  27
ENDBRANCH  16  24
ENDBRANCH   1  18
TORSDOF 4
ENDMDL
MODEL 7
REMARK VINA RESULT:      -7.8      1.462      1.896
REMARK  Name = 
REMARK  5 active torsions:
REMARK  status: ('A' for Active; 'I' for Inactive)
REMARK    1  A    between atoms: C_1  and  O_2
REMARK    2  A    between atoms: O_2  and  C_3
REMARK    3  A    between atoms: C_7  and  C_8
REMARK    4  A    between atoms: N_10  and  C_11
REMARK    5  A    between atoms: C_16  and  C_18
REMARK                            x       y       z     vdW  Elec       q    Type
REMARK                         _______ _______ _______ _____ _____    ______ ____
ROOT
ATOM      1  C   UNL     1       1.409   8.534  20.347  0.00  0.00    +0.000 A 
ATOM      2  C   UNL     1       1.425   8.440  21.735  0.00  0.00    +0.000 A 
ATOM      3  C   UNL     1       0.621   9.284  22.508  0.00  0.00    +0.000 A 
ATOM      4  C   UNL     1      -0.180  10.227  21.874  0.00  0.00    +0.000 A 
ATOM      5  N   UNL     1      -1.012  11.021  22.669  0.00  0.00    +0.000 N 
ATOM      6  C   UNL     1      -1.871  11.992  22.196  0.00  0.00    +0.000 C 
ATOM      7  O   UNL     1      -1.994  12.339  21.027  0.00  0.00    +0.000 OA
ATOM      8  N   UNL     1      -0.175  10.362  20.537  0.00  0.00    +0.000 NA
ATOM      9  C   UNL     1       0.606   9.531  19.809  0.00  0.00    +0.000 A 
ATOM     10  H   UNL     1      -1.016  10.865  23.667  0.00  0.00    +0.000 HD
ENDROOT
BRANCH   6  11
ATOM     11  C   UNL     1      -2.665  12.615  23.241  0.00  0.00    +0.000 A 
ATOM     12  C   UNL     1      -2.594  13.888  23.775  0.00  0.00    +0.000 A 
ATOM     13  C   UNL     1      -3.614  13.982  24.749  0.00  0.00    +0.000 A 
ATOM     14  C   UNL     1      -4.243  12.759  24.759  0.00  0.00    +0.000 A 
ATOM     15  O   UNL     1      -3.677  11.918  23.853  0.00  0.00    +0.000 OA
ENDBRANCH   6  11
BRANCH   1  18
ATOM     16  C   UNL     1       2.216   6.304  19.597  0.00  0.00    +0.000 C 
ATOM     17  O   UNL     1       1.665   5.614  20.450  0.00  0.00    +0.000 OA
ATOM     18  N   UNL     1       2.137   7.681  19.482  0.00  0.00    +0.000 N 
ATOM     19  H   UNL     1       2.488   8.101  18.629  0.00  0.00    +0.000 HD
BRANCH  16  24
ATOM     20  C   UNL     1       4.727   5.525  16.855  0.00  0.00    +0.000 A 
ATOM     21  C   UNL     1       4.472   4.162  16.671  0.00  0.00    +0.000 A 
ATOM     22  C   UNL     1       3.492   3.513  17.421  0.00  0.00    +0.000 A 
ATOM     23  C   UNL     1       2.756   4.231  18.359  0.00  0.00    +0.000 A 
ATOM     24  C   UNL     1       2.997   5.598  18.546  0.00  0.00    +0.000 A 
ATOM     25  C   UNL     1       3.990   6.246  17.799  0.00  0.00    +0.000 A 
BRANCH  20  27
ATOM     26  C   UNL     1       6.987   5.380  16.126  0.00  0.00    +0.000 C 
ATOM     27  O   UNL     1       5.722   6.027  16.061  0.00  0.00    +0.000 OA
ENDBRANCH  20  27
ENDBRANCH  16  24
ENDBRANCH   1  18
TORSDOF 4
ENDMDL
MODEL 8
REMARK VINA RESULT:      -7.7      1.798      2.666
REMARK  Name = 
REMARK  5 active torsions:
REMARK  status: ('A' for Active; 'I' for Inactive)
REMARK    1  A    between atoms: C_1  and  O_2
REMARK    2  A    between atoms: O_2  and  C_3
REMARK    3  A    between atoms: C_7  and  C_8
REMARK    4  A    between atoms: N_10  and  C_11
REMARK    5  A    between atoms: C_16  and  C_18
REMARK                            x       y       z     vdW  Elec       q    Type
REMARK                         _______ _______ _______ _____ _____    ______ ____
ROOT
ATOM      1  C   UNL     1       1.425   8.608  20.484  0.00  0.00    +0.000 A 
ATOM      2  C   UNL     1       1.424   8.545  21.874  0.00  0.00    +0.000 A 
ATOM      3  C   UNL     1       0.584   9.381  22.617  0.00  0.00    +0.000 A 
ATOM      4  C   UNL     1      -0.238  10.283  21.952  0.00  0.00    +0.000 A 
ATOM      5  N   UNL     1      -1.105  11.068  22.718  0.00  0.00    +0.000 N 
ATOM      6  C   UNL     1      -1.988  12.000  22.212  0.00  0.00    +0.000 C 
ATOM      7  O   UNL     1      -2.107  12.317  21.034  0.00  0.00    +0.000 OA
ATOM      8  N   UNL     1      -0.219  10.389  20.612  0.00  0.00    +0.000 NA
ATOM      9  C   UNL     1       0.597   9.567  19.913  0.00  0.00    +0.000 A 
ATOM     10  H   UNL     1      -1.119  10.934  23.720  0.00  0.00    +0.000 HD
ENDROOT
BRANCH   6  11
ATOM     11  C   UNL     1      -2.815  12.621  23.233  0.00  0.00    +0.000 A 
ATOM     12  C   UNL     1      -2.872  13.934  23.657  0.00  0.00    +0.000 A 
ATOM     13  C   UNL     1      -3.866  14.000  24.658  0.00  0.00    +0.000 A 
ATOM     14  C   UNL     1      -4.355  12.721  24.793  0.00  0.00    +0.000 A 
ATOM     15  O   UNL     1      -3.725  11.873  23.938  0.00  0.00    +0.000 OA
ENDBRANCH   6  11
BRANCH   1  18
ATOM     16  C   UNL     1       2.268   6.383  19.762  0.00  0.00    +0.000 C 
ATOM     17  O   UNL     1       1.683   5.689  20.588  0.00  0.00    +0.000 OA
ATOM     18  N   UNL     1       2.191   7.760  19.648  0.00  0.00    +0.000 N 
ATOM     19  H   UNL     1       2.577   8.184  18.813  0.00  0.00    +0.000 HD
BRANCH  16  24
ATOM     20  C   UNL     1       3.857   3.682  17.616  0.00  0.00    +0.000 A 
ATOM     21  C   UNL     1       4.603   4.474  16.737  0.00  0.00    +0.000 A 
ATOM     22  C   UNL     1       4.594   5.864  16.851  0.00  0.00    +0.000 A 
ATOM     23  C   UNL     1       3.840   6.468  17.852  0.00  0.00    +0.000 A 
ATOM     24  C   UNL     1       3.096   5.683  18.743  0.00  0.00    +0.000 A 
ATOM     25  C   UNL     1       3.097   4.287  18.621  0.00  0.00    +0.000 A 
BRANCH  20  27
ATOM     26  C   UNL     1       3.521   1.469  18.424  0.00  0.00    +0.000 C 
ATOM     27  O   UNL     1       3.950   2.337  17.382  0.00  0.00    +0.000 OA
ENDBRANCH  20  27
ENDBRANCH  16  24
ENDBRANCH   1  18
TORSDOF 4
ENDMDL
MODEL 9
REMARK VINA RESULT:      -7.7      1.593      1.985
REMARK  Name = 
REMARK  5 active torsions:
REMARK  status: ('A' for Active; 'I' for Inactive)
REMARK    1  A    between atoms: C_1  and  O_2
REMARK    2  A    between atoms: O_2  and  C_3
REMARK    3  A    between atoms: C_7  and  C_8
REMARK    4  A    between atoms: N_10  and  C_11
REMARK    5  A    between atoms: C_16  and  C_18
REMARK                            x       y       z     vdW  Elec       q    Type
REMARK                         _______ _______ _______ _____ _____    ______ ____
ROOT
ATOM      1  C   UNL     1       1.435   8.416  20.462  0.00  0.00    +0.000 A 
ATOM      2  C   UNL     1       1.507   8.449  21.851  0.00  0.00    +0.000 A 
ATOM      3  C   UNL     1       0.710   9.341  22.577  0.00  0.00    +0.000 A 
ATOM      4  C   UNL     1      -0.141  10.202  21.893  0.00  0.00    +0.000 A 
ATOM      5  N   UNL     1      -0.963  11.046  22.647  0.00  0.00    +0.000 N 
ATOM      6  C   UNL     1      -1.866  11.948  22.124  0.00  0.00    +0.000 C 
ATOM      7  O   UNL     1      -2.044  12.185  20.934  0.00  0.00    +0.000 OA
ATOM      8  N   UNL     1      -0.191  10.216  20.551  0.00  0.00    +0.000 NA
ATOM      9  C   UNL     1       0.585   9.341  19.869  0.00  0.00    +0.000 A 
ATOM     10  H   UNL     1      -0.926  10.981  23.655  0.00  0.00    +0.000 HD
ENDROOT
BRANCH   6  11
ATOM     11  C   UNL     1      -2.637  12.645  23.140  0.00  0.00    +0.000 A 
ATOM     12  C   UNL     1      -2.501  13.926  23.640  0.00  0.00    +0.000 A 
ATOM     13  C   UNL     1      -3.526  14.105  24.595  0.00  0.00    +0.000 A 
ATOM     14  C   UNL     1      -4.225  12.920  24.629  0.00  0.00    +0.000 A 
ATOM     15  O   UNL     1      -3.696  12.024  23.755  0.00  0.00    +0.000 OA
ENDBRANCH   6  11
BRANCH   1  18
ATOM     16  C   UNL     1       2.602   7.766  18.365  0.00  0.00    +0.000 C 
ATOM     17  O   UNL     1       2.460   8.815  17.744  0.00  0.00    +0.000 OA
ATOM     18  N   UNL     1       2.153   7.507  19.648  0.00  0.00    +0.000 N 
ATOM     19  H   UNL     1       2.497   6.671  20.105  0.00  0.00    +0.000 HD
BRANCH  16  24
ATOM     20  C   UNL     1       5.271   5.886  16.422  0.00  0.00    +0.000 A 
ATOM     21  C   UNL     1       4.824   4.573  16.602  0.00  0.00    +0.000 A 
ATOM     22  C   UNL     1       3.668   4.308  17.334  0.00  0.00    +0.000 A 
ATOM     23  C   UNL     1       2.948   5.362  17.889  0.00  0.00    +0.000 A 
ATOM     24  C   UNL     1       3.382   6.682  17.709  0.00  0.00    +0.000 A 
ATOM     25  C   UNL     1       4.550   6.946  16.980  0.00  0.00    +0.000 A 
BRANCH  20  27
ATOM     26  C   UNL     1       6.856   4.839  14.990  0.00  0.00    +0.000 C 
ATOM     27  O   UNL     1       6.423   5.997  15.693  0.00  0.00    +0.000 OA
ENDBRANCH  20  27
ENDBRANCH  16  24
ENDBRANCH   1  18
TORSDOF 4
ENDMDL
