MODEL 1
REMARK VINA RESULT:      -7.6      0.000      0.000
REMARK  Name = 
REMARK  3 active torsions:
REMARK  status: ('A' for Active; 'I' for Inactive)
REMARK    1  A    between atoms: N_12  and  C_13
REMARK    2  A    between atoms: C_13  and  C_14
REMARK    3  A    between atoms: C_13  and  C_20
REMARK                            x       y       z     vdW  Elec       q    Type
REMARK                         _______ _______ _______ _____ _____    ______ ____
ROOT
ATOM      1  F   UNL     1      -4.982  12.629  18.388  0.00  0.00    +0.000 F 
ATOM      2  C   UNL     1      -3.986  11.743  18.256  0.00  0.00    +0.000 A 
ATOM      3  C   UNL     1      -4.299  10.413  18.000  0.00  0.00    +0.000 A 
ATOM      4  C   UNL     1      -3.289   9.464  17.845  0.00  0.00    +0.000 A 
ATOM      5  C   UNL     1      -1.970   9.912  17.969  0.00  0.00    +0.000 A 
ATOM      6  N   UNL     1      -0.797   9.217  17.837  0.00  0.00    +0.000 N 
ATOM      7  C   UNL     1       0.283  10.025  18.088  0.00  0.00    +0.000 A 
ATOM      8  C   UNL     1       1.646   9.749  18.088  0.00  0.00    +0.000 A 
ATOM      9  N   UNL     1       2.134   8.480  17.855  0.00  0.00    +0.000 N 
ATOM     10  C   UNL     1       3.466   8.329  17.259  0.00  0.00    +0.000 C 
ATOM     11  C   UNL     1       4.417   7.488  18.142  0.00  0.00    +0.000 C 
ATOM     12  N   UNL     1       3.841   6.210  18.660  0.00  0.00    +0.000 NA
ATOM     13  C   UNL     1       2.636   6.601  19.420  0.00  0.00    +0.000 C 
ATOM     14  C   UNL     1       1.572   7.354  18.608  0.00  0.00    +0.000 C 
ATOM     15  N   UNL     1       2.462  10.807  18.281  0.00  0.00    +0.000 NA
ATOM     16  C   UNL     1       1.913  12.020  18.507  0.00  0.00    +0.000 A 
ATOM     17  N   UNL     1       0.612  12.352  18.545  0.00  0.00    +0.000 NA
ATOM     18  C   UNL     1      -0.203  11.299  18.309  0.00  0.00    +0.000 A 
ATOM     19  C   UNL     1      -1.629  11.240  18.241  0.00  0.00    +0.000 A 
ATOM     20  C   UNL     1      -2.666  12.181  18.382  0.00  0.00    +0.000 A 
ATOM     21  H   UNL     1      -0.728   8.242  17.594  0.00  0.00    +0.000 HD
ENDROOT
BRANCH  12  22
ATOM     22  C   UNL     1       3.578   5.227  17.556  0.00  0.00    +0.000 C 
BRANCH  22  23
ATOM     23  C   UNL     1       4.878   4.931  16.800  0.00  0.00    +0.000 A 
ATOM     24  C   UNL     1       6.095   4.809  17.491  0.00  0.00    +0.000 A 
ATOM     25  C   UNL     1       7.304   4.738  16.800  0.00  0.00    +0.000 A 
ATOM     26  C   UNL     1       7.314   4.781  15.408  0.00  0.00    +0.000 A 
ATOM     27  C   UNL     1       6.114   4.867  14.704  0.00  0.00    +0.000 A 
ATOM     28  C   UNL     1       4.902   4.930  15.395  0.00  0.00    +0.000 A 
ENDBRANCH  22  23
BRANCH  22  29
ATOM     29  C   UNL     1       2.860   3.937  17.991  0.00  0.00    +0.000 A 
ATOM     30  C   UNL     1       1.453   3.906  18.042  0.00  0.00    +0.000 A 
ATOM     31  C   UNL     1       0.774   2.785  18.534  0.00  0.00    +0.000 A 
ATOM     32  C   UNL     1       1.489   1.674  18.973  0.00  0.00    +0.000 A 
ATOM     33  C   UNL     1       2.878   1.664  18.880  0.00  0.00    +0.000 A 
ATOM     34  C   UNL     1       3.554   2.777  18.372  0.00  0.00    +0.000 A 
ENDBRANCH  22  29
ENDBRANCH  12  22
TORSDOF 3
ENDMDL
MODEL 2
REMARK VINA RESULT:      -7.4      3.775      9.590
REMARK  Name = 
REMARK  3 active torsions:
REMARK  status: ('A' for Active; 'I' for Inactive)
REMARK    1  A    between atoms: N_12  and  C_13
REMARK    2  A    between atoms: C_13  and  C_14
REMARK    3  A    between atoms: C_13  and  C_20
REMARK                            x       y       z     vdW  Elec       q    Type
REMARK                         _______ _______ _______ _____ _____    ______ ____
ROOT
ATOM      1  F   UNL     1       6.399   3.670  15.821  0.00  0.00    +0.000 F 
ATOM      2  C   UNL     1       5.594   4.570  16.402  0.00  0.00    +0.000 A 
ATOM      3  C   UNL     1       5.536   5.857  15.880  0.00  0.00    +0.000 A 
ATOM      4  C   UNL     1       4.701   6.817  16.452  0.00  0.00    +0.000 A 
ATOM      5  C   UNL     1       3.947   6.425  17.562  0.00  0.00    +0.000 A 
ATOM      6  N   UNL     1       3.035   7.139  18.293  0.00  0.00    +0.000 N 
ATOM      7  C   UNL     1       2.553   6.395  19.340  0.00  0.00    +0.000 A 
ATOM      8  C   UNL     1       1.638   6.712  20.338  0.00  0.00    +0.000 A 
ATOM      9  N   UNL     1       1.072   7.966  20.438  0.00  0.00    +0.000 N 
ATOM     10  C   UNL     1      -0.263   8.098  21.032  0.00  0.00    +0.000 C 
ATOM     11  C   UNL     1      -0.276   9.053  22.248  0.00  0.00    +0.000 C 
ATOM     12  N   UNL     1       0.423  10.357  22.043  0.00  0.00    +0.000 NA
ATOM     13  C   UNL     1       1.809  10.007  21.671  0.00  0.00    +0.000 C 
ATOM     14  C   UNL     1       1.946   9.144  20.409  0.00  0.00    +0.000 C 
ATOM     15  N   UNL     1       1.301   5.704  21.170  0.00  0.00    +0.000 NA
ATOM     16  C   UNL     1       1.898   4.504  21.015  0.00  0.00    +0.000 A 
ATOM     17  N   UNL     1       2.804   4.137  20.094  0.00  0.00    +0.000 NA
ATOM     18  C   UNL     1       3.110   5.135  19.234  0.00  0.00    +0.000 A 
ATOM     19  C   UNL     1       3.997   5.142  18.115  0.00  0.00    +0.000 A 
ATOM     20  C   UNL     1       4.839   4.189  17.513  0.00  0.00    +0.000 A 
ATOM     21  H   UNL     1       2.754   8.087  18.098  0.00  0.00    +0.000 HD
ENDROOT
BRANCH  12  22
ATOM     22  C   UNL     1      -0.283  11.217  21.034  0.00  0.00    +0.000 C 
BRANCH  22  23
ATOM     23  C   UNL     1      -1.519  11.861  21.671  0.00  0.00    +0.000 A 
ATOM     24  C   UNL     1      -1.750  11.753  23.052  0.00  0.00    +0.000 A 
ATOM     25  C   UNL     1      -2.962  12.162  23.608  0.00  0.00    +0.000 A 
ATOM     26  C   UNL     1      -3.959  12.689  22.791  0.00  0.00    +0.000 A 
ATOM     27  C   UNL     1      -3.736  12.835  21.423  0.00  0.00    +0.000 A 
ATOM     28  C   UNL     1      -2.519  12.434  20.867  0.00  0.00    +0.000 A 
ENDBRANCH  22  23
BRANCH  22  29
ATOM     29  C   UNL     1       0.606  12.255  20.327  0.00  0.00    +0.000 A 
ATOM     30  C   UNL     1       1.121  13.343  21.057  0.00  0.00    +0.000 A 
ATOM     31  C   UNL     1       1.844  14.360  20.421  0.00  0.00    +0.000 A 
ATOM     32  C   UNL     1       2.073  14.300  19.049  0.00  0.00    +0.000 A 
ATOM     33  C   UNL     1       1.619  13.205  18.320  0.00  0.00    +0.000 A 
ATOM     34  C   UNL     1       0.912  12.182  18.958  0.00  0.00    +0.000 A 
ENDBRANCH  22  29
ENDBRANCH  12  22
TORSDOF 3
ENDMDL
MODEL 3
REMARK VINA RESULT:      -7.4      3.765      9.621
REMARK  Name = 
REMARK  3 active torsions:
REMARK  status: ('A' for Active; 'I' for Inactive)
REMARK    1  A    between atoms: N_12  and  C_13
REMARK    2  A    between atoms: C_13  and  C_14
REMARK    3  A    between atoms: C_13  and  C_20
REMARK                            x       y       z     vdW  Elec       q    Type
REMARK                         _______ _______ _______ _____ _____    ______ ____
ROOT
ATOM      1  F   UNL     1       6.506   3.647  15.797  0.00  0.00    +0.000 F 
ATOM      2  C   UNL     1       5.689   4.537  16.375  0.00  0.00    +0.000 A 
ATOM      3  C   UNL     1       5.609   5.820  15.846  0.00  0.00    +0.000 A 
ATOM      4  C   UNL     1       4.760   6.770  16.415  0.00  0.00    +0.000 A 
ATOM      5  C   UNL     1       4.015   6.372  17.529  0.00  0.00    +0.000 A 
ATOM      6  N   UNL     1       3.094   7.076  18.260  0.00  0.00    +0.000 N 
ATOM      7  C   UNL     1       2.628   6.329  19.312  0.00  0.00    +0.000 A 
ATOM      8  C   UNL     1       1.710   6.637  20.311  0.00  0.00    +0.000 A 
ATOM      9  N   UNL     1       1.125   7.882  20.406  0.00  0.00    +0.000 N 
ATOM     10  C   UNL     1      -0.210   7.996  21.003  0.00  0.00    +0.000 C 
ATOM     11  C   UNL     1      -0.235   8.957  22.215  0.00  0.00    +0.000 C 
ATOM     12  N   UNL     1       0.442  10.272  21.999  0.00  0.00    +0.000 NA
ATOM     13  C   UNL     1       1.833   9.941  21.626  0.00  0.00    +0.000 C 
ATOM     14  C   UNL     1       1.980   9.074  20.368  0.00  0.00    +0.000 C 
ATOM     15  N   UNL     1       1.392   5.629  21.150  0.00  0.00    +0.000 NA
ATOM     16  C   UNL     1       2.009   4.437  20.999  0.00  0.00    +0.000 A 
ATOM     17  N   UNL     1       2.918   4.080  20.078  0.00  0.00    +0.000 NA
ATOM     18  C   UNL     1       3.204   5.078  19.211  0.00  0.00    +0.000 A 
ATOM     19  C   UNL     1       4.088   5.093  18.089  0.00  0.00    +0.000 A 
ATOM     20  C   UNL     1       4.944   4.150  17.491  0.00  0.00    +0.000 A 
ATOM     21  H   UNL     1       2.798   8.017  18.060  0.00  0.00    +0.000 HD
ENDROOT
BRANCH  12  22
ATOM     22  C   UNL     1      -0.281  11.114  20.988  0.00  0.00    +0.000 C 
BRANCH  22  23
ATOM     23  C   UNL     1      -1.583  11.651  21.591  0.00  0.00    +0.000 A 
ATOM     24  C   UNL     1      -2.538  12.287  20.780  0.00  0.00    +0.000 A 
ATOM     25  C   UNL     1      -3.627  12.950  21.346  0.00  0.00    +0.000 A 
ATOM     26  C   UNL     1      -3.781  12.981  22.730  0.00  0.00    +0.000 A 
ATOM     27  C   UNL     1      -2.862  12.326  23.549  0.00  0.00    +0.000 A 
ATOM     28  C   UNL     1      -1.776  11.655  22.983  0.00  0.00    +0.000 A 
ENDBRANCH  22  23
BRANCH  22  29
ATOM     29  C   UNL     1       0.562  12.234  20.351  0.00  0.00    +0.000 A 
ATOM     30  C   UNL     1       0.880  12.174  18.981  0.00  0.00    +0.000 A 
ATOM     31  C   UNL     1       1.732  13.119  18.397  0.00  0.00    +0.000 A 
ATOM     32  C   UNL     1       2.271  14.143  19.169  0.00  0.00    +0.000 A 
ATOM     33  C   UNL     1       1.927  14.251  20.514  0.00  0.00    +0.000 A 
ATOM     34  C   UNL     1       1.062  13.317  21.093  0.00  0.00    +0.000 A 
ENDBRANCH  22  29
ENDBRANCH  12  22
TORSDOF 3
ENDMDL
MODEL 4
REMARK VINA RESULT:      -7.2      5.107     11.404
REMARK  Name = 
REMARK  3 active torsions:
REMARK  status: ('A' for Active; 'I' for Inactive)
REMARK    1  A    between atoms: N_12  and  C_13
REMARK    2  A    between atoms: C_13  and  C_14
REMARK    3  A    between atoms: C_13  and  C_20
REMARK                            x       y       z     vdW  Elec       q    Type
REMARK                         _______ _______ _______ _____ _____    ______ ____
ROOT
ATOM      1  F   UNL     1       3.030   6.107  18.336  0.00  0.00    +0.000 F 
ATOM      2  C   UNL     1       2.463   7.285  18.629  0.00  0.00    +0.000 A 
ATOM      3  C   UNL     1       2.400   8.265  17.645  0.00  0.00    +0.000 A 
ATOM      4  C   UNL     1       1.808   9.499  17.911  0.00  0.00    +0.000 A 
ATOM      5  C   UNL     1       1.297   9.696  19.198  0.00  0.00    +0.000 A 
ATOM      6  N   UNL     1       0.645  10.781  19.721  0.00  0.00    +0.000 N 
ATOM      7  C   UNL     1       0.353  10.587  21.047  0.00  0.00    +0.000 A 
ATOM      8  C   UNL     1      -0.276  11.414  21.972  0.00  0.00    +0.000 A 
ATOM      9  N   UNL     1      -0.691  12.689  21.647  0.00  0.00    +0.000 N 
ATOM     10  C   UNL     1      -1.836  13.267  22.359  0.00  0.00    +0.000 C 
ATOM     11  C   UNL     1      -1.484  14.599  23.061  0.00  0.00    +0.000 C 
ATOM     12  N   UNL     1      -0.739  15.585  22.220  0.00  0.00    +0.000 NA
ATOM     13  C   UNL     1       0.488  14.885  21.788  0.00  0.00    +0.000 C 
ATOM     14  C   UNL     1       0.253  13.597  20.986  0.00  0.00    +0.000 C 
ATOM     15  N   UNL     1      -0.500  10.875  23.188  0.00  0.00    +0.000 NA
ATOM     16  C   UNL     1      -0.062   9.621  23.435  0.00  0.00    +0.000 A 
ATOM     17  N   UNL     1       0.571   8.780  22.602  0.00  0.00    +0.000 NA
ATOM     18  C   UNL     1       0.757   9.306  21.370  0.00  0.00    +0.000 A 
ATOM     19  C   UNL     1       1.360   8.732  20.209  0.00  0.00    +0.000 A 
ATOM     20  C   UNL     1       1.954   7.492  19.913  0.00  0.00    +0.000 A 
ATOM     21  H   UNL     1       0.412  11.616  19.207  0.00  0.00    +0.000 HD
ENDROOT
BRANCH  12  22
ATOM     22  C   UNL     1      -1.580  16.103  21.089  0.00  0.00    +0.000 C 
BRANCH  22  23
ATOM     23  C   UNL     1      -2.801  16.844  21.644  0.00  0.00    +0.000 A 
ATOM     24  C   UNL     1      -2.697  17.620  22.810  0.00  0.00    +0.000 A 
ATOM     25  C   UNL     1      -3.837  18.134  23.430  0.00  0.00    +0.000 A 
ATOM     26  C   UNL     1      -5.096  17.884  22.889  0.00  0.00    +0.000 A 
ATOM     27  C   UNL     1      -5.216  17.145  21.713  0.00  0.00    +0.000 A 
ATOM     28  C   UNL     1      -4.074  16.638  21.087  0.00  0.00    +0.000 A 
ENDBRANCH  22  23
BRANCH  22  29
ATOM     29  C   UNL     1      -0.822  16.944  20.046  0.00  0.00    +0.000 A 
ATOM     30  C   UNL     1      -0.996  16.678  18.675  0.00  0.00    +0.000 A 
ATOM     31  C   UNL     1      -0.242  17.353  17.708  0.00  0.00    +0.000 A 
ATOM     32  C   UNL     1       0.691  18.311  18.095  0.00  0.00    +0.000 A 
ATOM     33  C   UNL     1       0.840  18.627  19.442  0.00  0.00    +0.000 A 
ATOM     34  C   UNL     1       0.074  17.965  20.406  0.00  0.00    +0.000 A 
ENDBRANCH  22  29
ENDBRANCH  12  22
TORSDOF 3
ENDMDL
MODEL 5
REMARK VINA RESULT:      -7.1      6.200      9.528
REMARK  Name = 
REMARK  3 active torsions:
REMARK  status: ('A' for Active; 'I' for Inactive)
REMARK    1  A    between atoms: N_12  and  C_13
REMARK    2  A    between atoms: C_13  and  C_14
REMARK    3  A    between atoms: C_13  and  C_20
REMARK                            x       y       z     vdW  Elec       q    Type
REMARK                         _______ _______ _______ _____ _____    ______ ____
ROOT
ATOM      1  F   UNL     1       7.730  17.568  24.113  0.00  0.00    +0.000 F 
ATOM      2  C   UNL     1       6.661  16.920  23.631  0.00  0.00    +0.000 A 
ATOM      3  C   UNL     1       6.016  15.991  24.440  0.00  0.00    +0.000 A 
ATOM      4  C   UNL     1       4.894  15.306  23.977  0.00  0.00    +0.000 A 
ATOM      5  C   UNL     1       4.465  15.592  22.677  0.00  0.00    +0.000 A 
ATOM      6  N   UNL     1       3.390  15.099  21.984  0.00  0.00    +0.000 N 
ATOM      7  C   UNL     1       3.354  15.603  20.709  0.00  0.00    +0.000 A 
ATOM      8  C   UNL     1       2.467  15.373  19.663  0.00  0.00    +0.000 A 
ATOM      9  N   UNL     1       1.425  14.476  19.774  0.00  0.00    +0.000 N 
ATOM     10  C   UNL     1       0.211  14.695  18.981  0.00  0.00    +0.000 C 
ATOM     11  C   UNL     1      -0.123  13.492  18.068  0.00  0.00    +0.000 C 
ATOM     12  N   UNL     1      -0.072  12.155  18.732  0.00  0.00    +0.000 NA
ATOM     13  C   UNL     1       1.299  12.035  19.269  0.00  0.00    +0.000 C 
ATOM     14  C   UNL     1       1.701  13.124  20.273  0.00  0.00    +0.000 C 
ATOM     15  N   UNL     1       2.659  16.116  18.553  0.00  0.00    +0.000 NA
ATOM     16  C   UNL     1       3.702  16.972  18.515  0.00  0.00    +0.000 A 
ATOM     17  N   UNL     1       4.608  17.225  19.473  0.00  0.00    +0.000 NA
ATOM     18  C   UNL     1       4.390  16.511  20.601  0.00  0.00    +0.000 A 
ATOM     19  C   UNL     1       5.104  16.510  21.838  0.00  0.00    +0.000 A 
ATOM     20  C   UNL     1       6.228  17.196  22.333  0.00  0.00    +0.000 A 
ATOM     21  H   UNL     1       2.715  14.449  22.354  0.00  0.00    +0.000 HD
ENDROOT
BRANCH  12  22
ATOM     22  C   UNL     1      -1.151  12.001  19.765  0.00  0.00    +0.000 C 
BRANCH  22  23
ATOM     23  C   UNL     1      -2.502  11.772  19.078  0.00  0.00    +0.000 A 
ATOM     24  C   UNL     1      -3.673  12.353  19.593  0.00  0.00    +0.000 A 
ATOM     25  C   UNL     1      -4.926  11.993  19.096  0.00  0.00    +0.000 A 
ATOM     26  C   UNL     1      -5.025  11.052  18.074  0.00  0.00    +0.000 A 
ATOM     27  C   UNL     1      -3.873  10.490  17.528  0.00  0.00    +0.000 A 
ATOM     28  C   UNL     1      -2.617  10.857  18.019  0.00  0.00    +0.000 A 
ENDBRANCH  22  23
BRANCH  22  29
ATOM     29  C   UNL     1      -0.870  10.944  20.848  0.00  0.00    +0.000 A 
ATOM     30  C   UNL     1      -1.060  11.269  22.205  0.00  0.00    +0.000 A 
ATOM     31  C   UNL     1      -0.712  10.366  23.217  0.00  0.00    +0.000 A 
ATOM     32  C   UNL     1      -0.180   9.123  22.890  0.00  0.00    +0.000 A 
ATOM     33  C   UNL     1      -0.034   8.762  21.553  0.00  0.00    +0.000 A 
ATOM     34  C   UNL     1      -0.397   9.657  20.542  0.00  0.00    +0.000 A 
ENDBRANCH  22  29
ENDBRANCH  12  22
TORSDOF 3
ENDMDL
MODEL 6
REMARK VINA RESULT:      -6.9      3.752      9.240
REMARK  Name = 
REMARK  3 active torsions:
REMARK  status: ('A' for Active; 'I' for Inactive)
REMARK    1  A    between atoms: N_12  and  C_13
REMARK    2  A    between atoms: C_13  and  C_14
REMARK    3  A    between atoms: C_13  and  C_20
REMARK                            x       y       z     vdW  Elec       q    Type
REMARK                         _______ _______ _______ _____ _____    ______ ____
ROOT
ATOM      1  F   UNL     1       3.634   1.773  20.159  0.00  0.00    +0.000 F 
ATOM      2  C   UNL     1       3.148   3.018  20.264  0.00  0.00    +0.000 A 
ATOM      3  C   UNL     1       2.407   3.358  21.389  0.00  0.00    +0.000 A 
ATOM      4  C   UNL     1       1.895   4.647  21.538  0.00  0.00    +0.000 A 
ATOM      5  C   UNL     1       2.157   5.558  20.511  0.00  0.00    +0.000 A 
ATOM      6  N   UNL     1       1.809   6.879  20.406  0.00  0.00    +0.000 N 
ATOM      7  C   UNL     1       2.219   7.402  19.206  0.00  0.00    +0.000 A 
ATOM      8  C   UNL     1       2.071   8.677  18.670  0.00  0.00    +0.000 A 
ATOM      9  N   UNL     1       1.379   9.671  19.331  0.00  0.00    +0.000 N 
ATOM     10  C   UNL     1       1.748  11.071  19.095  0.00  0.00    +0.000 C 
ATOM     11  C   UNL     1       0.558  11.917  18.584  0.00  0.00    +0.000 C 
ATOM     12  N   UNL     1      -0.716  11.751  19.346  0.00  0.00    +0.000 NA
ATOM     13  C   UNL     1      -1.033  10.309  19.272  0.00  0.00    +0.000 C 
ATOM     14  C   UNL     1       0.040   9.377  19.853  0.00  0.00    +0.000 C 
ATOM     15  N   UNL     1       2.686   8.895  17.489  0.00  0.00    +0.000 NA
ATOM     16  C   UNL     1       3.343   7.873  16.899  0.00  0.00    +0.000 A 
ATOM     17  N   UNL     1       3.504   6.617  17.346  0.00  0.00    +0.000 NA
ATOM     18  C   UNL     1       2.922   6.411  18.549  0.00  0.00    +0.000 A 
ATOM     19  C   UNL     1       2.887   5.237  19.362  0.00  0.00    +0.000 A 
ATOM     20  C   UNL     1       3.401   3.933  19.240  0.00  0.00    +0.000 A 
ATOM     21  H   UNL     1       1.315   7.402  21.111  0.00  0.00    +0.000 HD
ENDROOT
BRANCH  12  22
ATOM     22  C   UNL     1      -0.604  12.283  20.745  0.00  0.00    +0.000 C 
BRANCH  22  23
ATOM     23  C   UNL     1       0.111  13.639  20.732  0.00  0.00    +0.000 A 
ATOM     24  C   UNL     1       1.217  13.871  21.566  0.00  0.00    +0.000 A 
ATOM     25  C   UNL     1       1.749  15.153  21.706  0.00  0.00    +0.000 A 
ATOM     26  C   UNL     1       1.185  16.220  21.010  0.00  0.00    +0.000 A 
ATOM     27  C   UNL     1       0.109  16.002  20.152  0.00  0.00    +0.000 A 
ATOM     28  C   UNL     1      -0.418  14.717  20.004  0.00  0.00    +0.000 A 
ENDBRANCH  22  23
BRANCH  22  29
ATOM     29  C   UNL     1      -1.928  12.340  21.528  0.00  0.00    +0.000 A 
ATOM     30  C   UNL     1      -3.117  12.694  20.862  0.00  0.00    +0.000 A 
ATOM     31  C   UNL     1      -4.316  12.858  21.566  0.00  0.00    +0.000 A 
ATOM     32  C   UNL     1      -4.349  12.660  22.943  0.00  0.00    +0.000 A 
ATOM     33  C   UNL     1      -3.196  12.256  23.612  0.00  0.00    +0.000 A 
ATOM     34  C   UNL     1      -2.003  12.077  22.906  0.00  0.00    +0.000 A 
ENDBRANCH  22  29
ENDBRANCH  12  22
TORSDOF 3
ENDMDL
MODEL 7
REMARK VINA RESULT:      -6.8      6.050      9.746
REMARK  Name = 
REMARK  3 active torsions:
REMARK  status: ('A' for Active; 'I' for Inactive)
REMARK    1  A    between atoms: N_12  and  C_13
REMARK    2  A    between atoms: C_13  and  C_14
REMARK    3  A    between atoms: C_13  and  C_20
REMARK                            x       y       z     vdW  Elec       q    Type
REMARK                         _______ _______ _______ _____ _____    ______ ____
ROOT
ATOM      1  F   UNL     1       9.258  16.439  21.761  0.00  0.00    +0.000 F 
ATOM      2  C   UNL     1       8.023  15.944  21.603  0.00  0.00    +0.000 A 
ATOM      3  C   UNL     1       7.564  14.984  22.497  0.00  0.00    +0.000 A 
ATOM      4  C   UNL     1       6.280  14.453  22.370  0.00  0.00    +0.000 A 
ATOM      5  C   UNL     1       5.498  14.925  21.311  0.00  0.00    +0.000 A 
ATOM      6  N   UNL     1       4.210  14.608  20.969  0.00  0.00    +0.000 N 
ATOM      7  C   UNL     1       3.831  15.261  19.824  0.00  0.00    +0.000 A 
ATOM      8  C   UNL     1       2.637  15.230  19.110  0.00  0.00    +0.000 A 
ATOM      9  N   UNL     1       1.587  14.416  19.480  0.00  0.00    +0.000 N 
ATOM     10  C   UNL     1       0.218  14.827  19.149  0.00  0.00    +0.000 C 
ATOM     11  C   UNL     1      -0.526  13.773  18.298  0.00  0.00    +0.000 C 
ATOM     12  N   UNL     1      -0.424  12.367  18.793  0.00  0.00    +0.000 NA
ATOM     13  C   UNL     1       1.023  12.070  18.840  0.00  0.00    +0.000 C 
ATOM     14  C   UNL     1       1.847  12.997  19.745  0.00  0.00    +0.000 C 
ATOM     15  N   UNL     1       2.553  16.080  18.065  0.00  0.00    +0.000 NA
ATOM     16  C   UNL     1       3.623  16.845  17.760  0.00  0.00    +0.000 A 
ATOM     17  N   UNL     1       4.809  16.907  18.387  0.00  0.00    +0.000 NA
ATOM     18  C   UNL     1       4.878  16.086  19.459  0.00  0.00    +0.000 A 
ATOM     19  C   UNL     1       5.941  15.880  20.390  0.00  0.00    +0.000 A 
ATOM     20  C   UNL     1       7.236  16.407  20.546  0.00  0.00    +0.000 A 
ATOM     21  H   UNL     1       3.616  13.978  21.483  0.00  0.00    +0.000 HD
ENDROOT
BRANCH  12  22
ATOM     22  C   UNL     1      -1.130  12.183  20.105  0.00  0.00    +0.000 C 
BRANCH  22  23
ATOM     23  C   UNL     1      -2.647  12.211  19.890  0.00  0.00    +0.000 A 
ATOM     24  C   UNL     1      -3.217  11.639  18.741  0.00  0.00    +0.000 A 
ATOM     25  C   UNL     1      -4.565  11.831  18.440  0.00  0.00    +0.000 A 
ATOM     26  C   UNL     1      -5.365  12.595  19.287  0.00  0.00    +0.000 A 
ATOM     27  C   UNL     1      -4.825  13.143  20.450  0.00  0.00    +0.000 A 
ATOM     28  C   UNL     1      -3.477  12.943  20.756  0.00  0.00    +0.000 A 
ENDBRANCH  22  23
BRANCH  22  29
ATOM     29  C   UNL     1      -0.687  10.952  20.916  0.00  0.00    +0.000 A 
ATOM     30  C   UNL     1      -0.698  11.003  22.323  0.00  0.00    +0.000 A 
ATOM     31  C   UNL     1      -0.201   9.940  23.086  0.00  0.00    +0.000 A 
ATOM     32  C   UNL     1       0.303   8.805  22.457  0.00  0.00    +0.000 A 
ATOM     33  C   UNL     1       0.272   8.713  21.069  0.00  0.00    +0.000 A 
ATOM     34  C   UNL     1      -0.239   9.768  20.307  0.00  0.00    +0.000 A 
ENDBRANCH  22  29
ENDBRANCH  12  22
TORSDOF 3
ENDMDL
MODEL 8
REMARK VINA RESULT:      -6.8      7.112      8.875
REMARK  Name = 
REMARK  3 active torsions:
REMARK  status: ('A' for Active; 'I' for Inactive)
REMARK    1  A    between atoms: N_12  and  C_13
REMARK    2  A    between atoms: C_13  and  C_14
REMARK    3  A    between atoms: C_13  and  C_20
REMARK                            x       y       z     vdW  Elec       q    Type
REMARK                         _______ _______ _______ _____ _____    ______ ____
ROOT
ATOM      1  F   UNL     1      -3.376  12.567  20.577  0.00  0.00    +0.000 F 
ATOM      2  C   UNL     1      -2.045  12.716  20.628  0.00  0.00    +0.000 A 
ATOM      3  C   UNL     1      -1.297  11.826  21.389  0.00  0.00    +0.000 A 
ATOM      4  C   UNL     1       0.091  11.943  21.458  0.00  0.00    +0.000 A 
ATOM      5  C   UNL     1       0.677  12.989  20.739  0.00  0.00    +0.000 A 
ATOM      6  N   UNL     1       1.999  13.320  20.602  0.00  0.00    +0.000 N 
ATOM      7  C   UNL     1       2.146  14.456  19.846  0.00  0.00    +0.000 A 
ATOM      8  C   UNL     1       3.286  15.157  19.468  0.00  0.00    +0.000 A 
ATOM      9  N   UNL     1       4.546  14.783  19.887  0.00  0.00    +0.000 N 
ATOM     10  C   UNL     1       5.700  15.096  19.037  0.00  0.00    +0.000 C 
ATOM     11  C   UNL     1       6.761  15.948  19.771  0.00  0.00    +0.000 C 
ATOM     12  N   UNL     1       7.132  15.466  21.136  0.00  0.00    +0.000 NA
ATOM     13  C   UNL     1       5.868  15.438  21.901  0.00  0.00    +0.000 C 
ATOM     14  C   UNL     1       4.774  14.533  21.314  0.00  0.00    +0.000 C 
ATOM     15  N   UNL     1       3.088  16.194  18.627  0.00  0.00    +0.000 NA
ATOM     16  C   UNL     1       1.826  16.504  18.261  0.00  0.00    +0.000 A 
ATOM     17  N   UNL     1       0.683  15.889  18.607  0.00  0.00    +0.000 NA
ATOM     18  C   UNL     1       0.886  14.825  19.416  0.00  0.00    +0.000 A 
ATOM     19  C   UNL     1      -0.054  13.907  19.977  0.00  0.00    +0.000 A 
ATOM     20  C   UNL     1      -1.451  13.761  19.916  0.00  0.00    +0.000 A 
ATOM     21  H   UNL     1       2.767  12.806  21.003  0.00  0.00    +0.000 HD
ENDROOT
BRANCH  12  22
ATOM     22  C   UNL     1       7.849  14.148  21.088  0.00  0.00    +0.000 C 
BRANCH  22  23
ATOM     23  C   UNL     1       9.130  14.282  20.257  0.00  0.00    +0.000 A 
ATOM     24  C   UNL     1       9.338  13.474  19.128  0.00  0.00    +0.000 A 
ATOM     25  C   UNL     1      10.576  13.448  18.485  0.00  0.00    +0.000 A 
ATOM     26  C   UNL     1      11.623  14.234  18.961  0.00  0.00    +0.000 A 
ATOM     27  C   UNL     1      11.426  15.067  20.060  0.00  0.00    +0.000 A 
ATOM     28  C   UNL     1      10.183  15.101  20.698  0.00  0.00    +0.000 A 
ENDBRANCH  22  23
BRANCH  22  29
ATOM     29  C   UNL     1       8.117  13.502  22.459  0.00  0.00    +0.000 A 
ATOM     30  C   UNL     1       7.979  12.110  22.612  0.00  0.00    +0.000 A 
ATOM     31  C   UNL     1       8.112  11.507  23.869  0.00  0.00    +0.000 A 
ATOM     32  C   UNL     1       8.395  12.283  24.989  0.00  0.00    +0.000 A 
ATOM     33  C   UNL     1       8.589  13.654  24.849  0.00  0.00    +0.000 A 
ATOM     34  C   UNL     1       8.473  14.254  23.591  0.00  0.00    +0.000 A 
ENDBRANCH  22  29
ENDBRANCH  12  22
TORSDOF 3
ENDMDL
MODEL 9
REMARK VINA RESULT:      -6.7      7.158      9.278
REMARK  Name = 
REMARK  3 active torsions:
REMARK  status: ('A' for Active; 'I' for Inactive)
REMARK    1  A    between atoms: N_12  and  C_13
REMARK    2  A    between atoms: C_13  and  C_14
REMARK    3  A    between atoms: C_13  and  C_20
REMARK                            x       y       z     vdW  Elec       q    Type
REMARK                         _______ _______ _______ _____ _____    ______ ____
ROOT
ATOM      1  F   UNL     1      -2.726  12.685  20.106  0.00  0.00    +0.000 F 
ATOM      2  C   UNL     1      -1.404  12.850  20.244  0.00  0.00    +0.000 A 
ATOM      3  C   UNL     1      -0.698  11.974  21.060  0.00  0.00    +0.000 A 
ATOM      4  C   UNL     1       0.681  12.108  21.218  0.00  0.00    +0.000 A 
ATOM      5  C   UNL     1       1.302  13.156  20.532  0.00  0.00    +0.000 A 
ATOM      6  N   UNL     1       2.627  13.502  20.479  0.00  0.00    +0.000 N 
ATOM      7  C   UNL     1       2.810  14.634  19.727  0.00  0.00    +0.000 A 
ATOM      8  C   UNL     1       3.964  15.346  19.419  0.00  0.00    +0.000 A 
ATOM      9  N   UNL     1       5.198  14.990  19.923  0.00  0.00    +0.000 N 
ATOM     10  C   UNL     1       6.402  15.310  19.149  0.00  0.00    +0.000 C 
ATOM     11  C   UNL     1       7.403  16.180  19.945  0.00  0.00    +0.000 C 
ATOM     12  N   UNL     1       7.688  15.711  21.335  0.00  0.00    +0.000 NA
ATOM     13  C   UNL     1       6.377  15.673  22.014  0.00  0.00    +0.000 C 
ATOM     14  C   UNL     1       5.335  14.752  21.364  0.00  0.00    +0.000 C 
ATOM     15  N   UNL     1       3.811  16.374  18.559  0.00  0.00    +0.000 NA
ATOM     16  C   UNL     1       2.572  16.667  18.109  0.00  0.00    +0.000 A 
ATOM     17  N   UNL     1       1.416  16.042  18.383  0.00  0.00    +0.000 NA
ATOM     18  C   UNL     1       1.577  14.985  19.212  0.00  0.00    +0.000 A 
ATOM     19  C   UNL     1       0.613  14.060  19.717  0.00  0.00    +0.000 A 
ATOM     20  C   UNL     1      -0.776  13.897  19.565  0.00  0.00    +0.000 A 
ATOM     21  H   UNL     1       3.372  12.999  20.934  0.00  0.00    +0.000 HD
ENDROOT
BRANCH  12  22
ATOM     22  C   UNL     1       8.422  14.401  21.343  0.00  0.00    +0.000 C 
BRANCH  22  23
ATOM     23  C   UNL     1       9.851  14.600  20.827  0.00  0.00    +0.000 A 
ATOM     24  C   UNL     1      10.608  15.713  21.230  0.00  0.00    +0.000 A 
ATOM     25  C   UNL     1      11.826  16.007  20.618  0.00  0.00    +0.000 A 
ATOM     26  C   UNL     1      12.309  15.190  19.599  0.00  0.00    +0.000 A 
ATOM     27  C   UNL     1      11.588  14.062  19.209  0.00  0.00    +0.000 A 
ATOM     28  C   UNL     1      10.372  13.762  19.828  0.00  0.00    +0.000 A 
ENDBRANCH  22  23
BRANCH  22  29
ATOM     29  C   UNL     1       8.395  13.649  22.686  0.00  0.00    +0.000 A 
ATOM     30  C   UNL     1       8.187  12.257  22.700  0.00  0.00    +0.000 A 
ATOM     31  C   UNL     1       8.051  11.561  23.908  0.00  0.00    +0.000 A 
ATOM     32  C   UNL     1       8.131  12.243  25.119  0.00  0.00    +0.000 A 
ATOM     33  C   UNL     1       8.391  13.611  25.126  0.00  0.00    +0.000 A 
ATOM     34  C   UNL     1       8.544  14.302  23.921  0.00  0.00    +0.000 A 
ENDBRANCH  22  29
ENDBRANCH  12  22
TORSDOF 3
ENDMDL
