MODEL 1
REMARK VINA RESULT:      -6.8      0.000      0.000
REMARK  Name = 
REMARK  13 active torsions:
REMARK  status: ('A' for Active; 'I' for Inactive)
REMARK    1  A    between atoms: C_1  and  C_2
REMARK    2  A    between atoms: C_2  and  O_4
REMARK    3  A    between atoms: O_4  and  C_5
REMARK    4  A    between atoms: C_8  and  C_9
REMARK    5  A    between atoms: C_17  and  C_18
REMARK    6  A    between atoms: C_22  and  C_23
REMARK    7  A    between atoms: C_23  and  C_24
REMARK    8  A    between atoms: C_23  and  C_25
REMARK    9  A    between atoms: C_25  and  C_26
REMARK   10  A    between atoms: C_26  and  C_27
REMARK   11  A    between atoms: C_27  and  C_28
REMARK   12  A    between atoms: C_28  and  C_29
REMARK   13  A    between atoms: C_28  and  C_30
REMARK                            x       y       z     vdW  Elec       q    Type
REMARK                         _______ _______ _______ _____ _____    ______ ____
ROOT
ATOM      1  C   UNL     1       4.996   4.598  18.464  0.00  0.00    +0.000 C 
ATOM      2  C   UNL     1       4.613   5.242  17.131  0.00  0.00    +0.000 C 
ATOM      3  C   UNL     1       3.934   6.597  17.334  0.00  0.00    +0.000 C 
ATOM      4  C   UNL     1       2.689   6.563  18.270  0.00  0.00    +0.000 C 
ATOM      5  C   UNL     1       1.516   5.859  17.549  0.00  0.00    +0.000 C 
ATOM      6  C   UNL     1       3.015   5.765  19.540  0.00  0.00    +0.000 C 
ATOM      7  C   UNL     1       2.680   6.184  20.771  0.00  0.00    +0.000 C 
ATOM      8  C   UNL     1       1.953   7.450  21.072  0.00  0.00    +0.000 C 
ATOM      9  C   UNL     1       1.345   8.139  19.837  0.00  0.00    +0.000 C 
ATOM     10  C   UNL     1       2.320   8.049  18.626  0.00  0.00    +0.000 C 
ATOM     11  C   UNL     1       1.824   8.876  17.412  0.00  0.00    +0.000 C 
ATOM     12  C   UNL     1       1.514  10.335  17.761  0.00  0.00    +0.000 C 
ATOM     13  C   UNL     1       0.587  10.454  18.978  0.00  0.00    +0.000 C 
ATOM     14  C   UNL     1      -0.838  10.006  18.536  0.00  0.00    +0.000 C 
ATOM     15  C   UNL     1       1.113   9.612  20.152  0.00  0.00    +0.000 C 
ATOM     16  C   UNL     1       0.236  10.019  21.326  0.00  0.00    +0.000 C 
ATOM     17  C   UNL     1      -0.010  11.521  21.089  0.00  0.00    +0.000 C 
ATOM     18  C   UNL     1       0.501  11.858  19.656  0.00  0.00    +0.000 C 
ATOM     19  C   UNL     1       3.764   4.460  19.365  0.00  0.00    +0.000 C 
ENDROOT
BRANCH  18  20
ATOM     20  C   UNL     1       1.801  12.744  19.627  0.00  0.00    +0.000 C 
ATOM     21  C   UNL     1       2.184  13.442  20.945  0.00  0.00    +0.000 C 
BRANCH  20  22
ATOM     22  C   UNL     1       1.731  13.806  18.506  0.00  0.00    +0.000 C 
BRANCH  22  23
ATOM     23  C   UNL     1       1.036  15.085  18.980  0.00  0.00    +0.000 C 
BRANCH  23  24
ATOM     24  C   UNL     1       1.808  16.336  18.588  0.00  0.00    +0.000 C 
BRANCH  24  25
ATOM     25  C   UNL     1       0.876  17.502  18.225  0.00  0.00    +0.000 C 
ATOM     26  C   UNL     1       1.249  18.156  16.893  0.00  0.00    +0.000 C 
ATOM     27  C   UNL     1      -0.564  16.997  18.179  0.00  0.00    +0.000 C 
ENDBRANCH  24  25
ENDBRANCH  23  24
ENDBRANCH  22  23
ENDBRANCH  20  22
ENDBRANCH  18  20
BRANCH   1  28
ATOM     28  O   UNL     1       5.971   5.406  19.156  0.00  0.00    +0.000 OA
BRANCH  28  30
ATOM     29  C   UNL     1       7.808   6.744  18.579  0.00  0.00    +0.000 C 
ATOM     30  C   UNL     1       7.244   5.362  18.675  0.00  0.00    +0.000 C 
ATOM     31  O   UNL     1       7.846   4.351  18.351  0.00  0.00    +0.000 OA
ENDBRANCH  28  30
ENDBRANCH   1  28
TORSDOF 7
ENDMDL
MODEL 2
REMARK VINA RESULT:      -6.7      0.717      1.184
REMARK  Name = 
REMARK  13 active torsions:
REMARK  status: ('A' for Active; 'I' for Inactive)
REMARK    1  A    between atoms: C_1  and  C_2
REMARK    2  A    between atoms: C_2  and  O_4
REMARK    3  A    between atoms: O_4  and  C_5
REMARK    4  A    between atoms: C_8  and  C_9
REMARK    5  A    between atoms: C_17  and  C_18
REMARK    6  A    between atoms: C_22  and  C_23
REMARK    7  A    between atoms: C_23  and  C_24
REMARK    8  A    between atoms: C_23  and  C_25
REMARK    9  A    between atoms: C_25  and  C_26
REMARK   10  A    between atoms: C_26  and  C_27
REMARK   11  A    between atoms: C_27  and  C_28
REMARK   12  A    between atoms: C_28  and  C_29
REMARK   13  A    between atoms: C_28  and  C_30
REMARK                            x       y       z     vdW  Elec       q    Type
REMARK                         _______ _______ _______ _____ _____    ______ ____
ROOT
ATOM      1  C   UNL     1       4.975   4.479  18.411  0.00  0.00    +0.000 C 
ATOM      2  C   UNL     1       4.634   5.192  17.103  0.00  0.00    +0.000 C 
ATOM      3  C   UNL     1       3.980   6.551  17.355  0.00  0.00    +0.000 C 
ATOM      4  C   UNL     1       2.716   6.502  18.263  0.00  0.00    +0.000 C 
ATOM      5  C   UNL     1       1.543   5.858  17.487  0.00  0.00    +0.000 C 
ATOM      6  C   UNL     1       2.997   5.640  19.501  0.00  0.00    +0.000 C 
ATOM      7  C   UNL     1       2.646   6.009  20.744  0.00  0.00    +0.000 C 
ATOM      8  C   UNL     1       1.941   7.275  21.089  0.00  0.00    +0.000 C 
ATOM      9  C   UNL     1       1.374   8.033  19.875  0.00  0.00    +0.000 C 
ATOM     10  C   UNL     1       2.371   7.978  18.681  0.00  0.00    +0.000 C 
ATOM     11  C   UNL     1       1.919   8.871  17.497  0.00  0.00    +0.000 C 
ATOM     12  C   UNL     1       1.632  10.319  17.908  0.00  0.00    +0.000 C 
ATOM     13  C   UNL     1       0.683  10.402  19.111  0.00  0.00    +0.000 C 
ATOM     14  C   UNL     1      -0.741  10.007  18.620  0.00  0.00    +0.000 C 
ATOM     15  C   UNL     1       1.166   9.496  20.254  0.00  0.00    +0.000 C 
ATOM     16  C   UNL     1       0.274   9.868  21.428  0.00  0.00    +0.000 C 
ATOM     17  C   UNL     1       0.066  11.383  21.256  0.00  0.00    +0.000 C 
ATOM     18  C   UNL     1       0.613  11.775  19.851  0.00  0.00    +0.000 C 
ATOM     19  C   UNL     1       3.722   4.327  19.280  0.00  0.00    +0.000 C 
ENDROOT
BRANCH  18  20
ATOM     20  C   UNL     1       1.932  12.632  19.889  0.00  0.00    +0.000 C 
ATOM     21  C   UNL     1       1.982  13.767  20.929  0.00  0.00    +0.000 C 
BRANCH  20  22
ATOM     22  C   UNL     1       2.260  13.220  18.497  0.00  0.00    +0.000 C 
BRANCH  22  23
ATOM     23  C   UNL     1       3.457  14.173  18.553  0.00  0.00    +0.000 C 
BRANCH  23  24
ATOM     24  C   UNL     1       3.333  15.307  17.547  0.00  0.00    +0.000 C 
BRANCH  24  25
ATOM     25  C   UNL     1       2.999  16.646  18.223  0.00  0.00    +0.000 C 
ATOM     26  C   UNL     1       1.505  16.794  18.519  0.00  0.00    +0.000 C 
ATOM     27  C   UNL     1       3.806  16.772  19.513  0.00  0.00    +0.000 C 
ENDBRANCH  24  25
ENDBRANCH  23  24
ENDBRANCH  22  23
ENDBRANCH  20  22
ENDBRANCH  18  20
BRANCH   1  28
ATOM     28  O   UNL     1       5.953   5.233  19.159  0.00  0.00    +0.000 OA
BRANCH  28  30
ATOM     29  C   UNL     1       7.668   6.695  18.514  0.00  0.00    +0.000 C 
ATOM     30  C   UNL     1       7.210   5.276  18.638  0.00  0.00    +0.000 C 
ATOM     31  O   UNL     1       7.874   4.308  18.304  0.00  0.00    +0.000 OA
ENDBRANCH  28  30
ENDBRANCH   1  28
TORSDOF 7
ENDMDL
MODEL 3
REMARK VINA RESULT:      -6.7      3.903      8.949
REMARK  Name = 
REMARK  13 active torsions:
REMARK  status: ('A' for Active; 'I' for Inactive)
REMARK    1  A    between atoms: C_1  and  C_2
REMARK    2  A    between atoms: C_2  and  O_4
REMARK    3  A    between atoms: O_4  and  C_5
REMARK    4  A    between atoms: C_8  and  C_9
REMARK    5  A    between atoms: C_17  and  C_18
REMARK    6  A    between atoms: C_22  and  C_23
REMARK    7  A    between atoms: C_23  and  C_24
REMARK    8  A    between atoms: C_23  and  C_25
REMARK    9  A    between atoms: C_25  and  C_26
REMARK   10  A    between atoms: C_26  and  C_27
REMARK   11  A    between atoms: C_27  and  C_28
REMARK   12  A    between atoms: C_28  and  C_29
REMARK   13  A    between atoms: C_28  and  C_30
REMARK                            x       y       z     vdW  Elec       q    Type
REMARK                         _______ _______ _______ _____ _____    ______ ____
ROOT
ATOM      1  C   UNL     1      -1.832  12.060  19.220  0.00  0.00    +0.000 C 
ATOM      2  C   UNL     1      -0.903  12.025  18.006  0.00  0.00    +0.000 C 
ATOM      3  C   UNL     1      -0.179  10.684  17.889  0.00  0.00    +0.000 C 
ATOM      4  C   UNL     1       0.615  10.264  19.162  0.00  0.00    +0.000 C 
ATOM      5  C   UNL     1       1.870  11.155  19.309  0.00  0.00    +0.000 C 
ATOM      6  C   UNL     1      -0.258  10.461  20.409  0.00  0.00    +0.000 C 
ATOM      7  C   UNL     1      -0.352   9.546  21.387  0.00  0.00    +0.000 C 
ATOM      8  C   UNL     1       0.369   8.242  21.405  0.00  0.00    +0.000 C 
ATOM      9  C   UNL     1       1.474   8.116  20.342  0.00  0.00    +0.000 C 
ATOM     10  C   UNL     1       1.015   8.752  18.997  0.00  0.00    +0.000 C 
ATOM     11  C   UNL     1       2.027   8.496  17.852  0.00  0.00    +0.000 C 
ATOM     12  C   UNL     1       2.372   7.015  17.669  0.00  0.00    +0.000 C 
ATOM     13  C   UNL     1       2.789   6.352  18.989  0.00  0.00    +0.000 C 
ATOM     14  C   UNL     1       4.206   6.882  19.361  0.00  0.00    +0.000 C 
ATOM     15  C   UNL     1       1.762   6.639  20.095  0.00  0.00    +0.000 C 
ATOM     16  C   UNL     1       2.187   5.735  21.243  0.00  0.00    +0.000 C 
ATOM     17  C   UNL     1       2.694   4.466  20.533  0.00  0.00    +0.000 C 
ATOM     18  C   UNL     1       2.799   4.791  19.013  0.00  0.00    +0.000 C 
ATOM     19  C   UNL     1      -1.051  11.749  20.501  0.00  0.00    +0.000 C 
ENDROOT
BRANCH  18  20
ATOM     20  C   UNL     1       1.728   4.057  18.123  0.00  0.00    +0.000 C 
ATOM     21  C   UNL     1       0.670   3.225  18.869  0.00  0.00    +0.000 C 
BRANCH  20  22
ATOM     22  C   UNL     1       2.403   3.162  17.058  0.00  0.00    +0.000 C 
BRANCH  22  23
ATOM     23  C   UNL     1       3.919   3.090  17.256  0.00  0.00    +0.000 C 
BRANCH  23  24
ATOM     24  C   UNL     1       4.677   3.766  16.123  0.00  0.00    +0.000 C 
BRANCH  24  25
ATOM     25  C   UNL     1       5.572   4.909  16.626  0.00  0.00    +0.000 C 
ATOM     26  C   UNL     1       7.059   4.550  16.586  0.00  0.00    +0.000 C 
ATOM     27  C   UNL     1       5.308   6.158  15.788  0.00  0.00    +0.000 C 
ENDBRANCH  24  25
ENDBRANCH  23  24
ENDBRANCH  22  23
ENDBRANCH  20  22
ENDBRANCH  18  20
BRANCH   1  28
ATOM     28  O   UNL     1      -2.882  11.077  19.084  0.00  0.00    +0.000 OA
BRANCH  28  30
ATOM     29  C   UNL     1      -4.575  11.001  17.464  0.00  0.00    +0.000 C 
ATOM     30  C   UNL     1      -4.120  11.554  18.778  0.00  0.00    +0.000 C 
ATOM     31  O   UNL     1      -4.769  12.331  19.459  0.00  0.00    +0.000 OA
ENDBRANCH  28  30
ENDBRANCH   1  28
TORSDOF 7
ENDMDL
MODEL 4
REMARK VINA RESULT:      -6.7      0.817      1.141
REMARK  Name = 
REMARK  13 active torsions:
REMARK  status: ('A' for Active; 'I' for Inactive)
REMARK    1  A    between atoms: C_1  and  C_2
REMARK    2  A    between atoms: C_2  and  O_4
REMARK    3  A    between atoms: O_4  and  C_5
REMARK    4  A    between atoms: C_8  and  C_9
REMARK    5  A    between atoms: C_17  and  C_18
REMARK    6  A    between atoms: C_22  and  C_23
REMARK    7  A    between atoms: C_23  and  C_24
REMARK    8  A    between atoms: C_23  and  C_25
REMARK    9  A    between atoms: C_25  and  C_26
REMARK   10  A    between atoms: C_26  and  C_27
REMARK   11  A    between atoms: C_27  and  C_28
REMARK   12  A    between atoms: C_28  and  C_29
REMARK   13  A    between atoms: C_28  and  C_30
REMARK                            x       y       z     vdW  Elec       q    Type
REMARK                         _______ _______ _______ _____ _____    ______ ____
ROOT
ATOM      1  C   UNL     1       5.024   4.615  18.477  0.00  0.00    +0.000 C 
ATOM      2  C   UNL     1       4.624   5.262  17.150  0.00  0.00    +0.000 C 
ATOM      3  C   UNL     1       3.917   6.600  17.365  0.00  0.00    +0.000 C 
ATOM      4  C   UNL     1       2.676   6.533  18.303  0.00  0.00    +0.000 C 
ATOM      5  C   UNL     1       1.516   5.810  17.579  0.00  0.00    +0.000 C 
ATOM      6  C   UNL     1       3.020   5.732  19.566  0.00  0.00    +0.000 C 
ATOM      7  C   UNL     1       2.679   6.134  20.801  0.00  0.00    +0.000 C 
ATOM      8  C   UNL     1       1.927   7.382  21.114  0.00  0.00    +0.000 C 
ATOM      9  C   UNL     1       1.302   8.067  19.885  0.00  0.00    +0.000 C 
ATOM     10  C   UNL     1       2.276   8.008  18.672  0.00  0.00    +0.000 C 
ATOM     11  C   UNL     1       1.761   8.834  17.465  0.00  0.00    +0.000 C 
ATOM     12  C   UNL     1       1.420  10.283  17.827  0.00  0.00    +0.000 C 
ATOM     13  C   UNL     1       0.494  10.373  19.047  0.00  0.00    +0.000 C 
ATOM     14  C   UNL     1      -0.922   9.899  18.604  0.00  0.00    +0.000 C 
ATOM     15  C   UNL     1       1.040   9.533  20.212  0.00  0.00    +0.000 C 
ATOM     16  C   UNL     1       0.156   9.912  21.392  0.00  0.00    +0.000 C 
ATOM     17  C   UNL     1      -0.121  11.410  21.167  0.00  0.00    +0.000 C 
ATOM     18  C   UNL     1       0.380  11.769  19.736  0.00  0.00    +0.000 C 
ATOM     19  C   UNL     1       3.796   4.444  19.379  0.00  0.00    +0.000 C 
ENDROOT
BRANCH  18  20
ATOM     20  C   UNL     1       1.660  12.683  19.712  0.00  0.00    +0.000 C 
ATOM     21  C   UNL     1       1.986  13.441  21.012  0.00  0.00    +0.000 C 
BRANCH  20  22
ATOM     22  C   UNL     1       1.604  13.697  18.546  0.00  0.00    +0.000 C 
BRANCH  22  23
ATOM     23  C   UNL     1       1.361  15.123  19.048  0.00  0.00    +0.000 C 
BRANCH  23  24
ATOM     24  C   UNL     1      -0.027  15.629  18.684  0.00  0.00    +0.000 C 
BRANCH  24  25
ATOM     25  C   UNL     1      -0.808  16.112  19.916  0.00  0.00    +0.000 C 
ATOM     26  C   UNL     1      -1.802  17.226  19.579  0.00  0.00    +0.000 C 
ATOM     27  C   UNL     1      -1.539  14.927  20.543  0.00  0.00    +0.000 C 
ENDBRANCH  24  25
ENDBRANCH  23  24
ENDBRANCH  22  23
ENDBRANCH  20  22
ENDBRANCH  18  20
BRANCH   1  28
ATOM     28  O   UNL     1       5.983   5.438  19.174  0.00  0.00    +0.000 OA
BRANCH  28  30
ATOM     29  C   UNL     1       7.639   6.835  18.278  0.00  0.00    +0.000 C 
ATOM     30  C   UNL     1       7.249   5.445  18.673  0.00  0.00    +0.000 C 
ATOM     31  O   UNL     1       7.968   4.467  18.547  0.00  0.00    +0.000 OA
ENDBRANCH  28  30
ENDBRANCH   1  28
TORSDOF 7
ENDMDL
MODEL 5
REMARK VINA RESULT:      -6.4      3.194      8.842
REMARK  Name = 
REMARK  13 active torsions:
REMARK  status: ('A' for Active; 'I' for Inactive)
REMARK    1  A    between atoms: C_1  and  C_2
REMARK    2  A    between atoms: C_2  and  O_4
REMARK    3  A    between atoms: O_4  and  C_5
REMARK    4  A    between atoms: C_8  and  C_9
REMARK    5  A    between atoms: C_17  and  C_18
REMARK    6  A    between atoms: C_22  and  C_23
REMARK    7  A    between atoms: C_23  and  C_24
REMARK    8  A    between atoms: C_23  and  C_25
REMARK    9  A    between atoms: C_25  and  C_26
REMARK   10  A    between atoms: C_26  and  C_27
REMARK   11  A    between atoms: C_27  and  C_28
REMARK   12  A    between atoms: C_28  and  C_29
REMARK   13  A    between atoms: C_28  and  C_30
REMARK                            x       y       z     vdW  Elec       q    Type
REMARK                         _______ _______ _______ _____ _____    ______ ____
ROOT
ATOM      1  C   UNL     1       0.529  12.812  21.068  0.00  0.00    +0.000 C 
ATOM      2  C   UNL     1      -0.118  11.614  21.762  0.00  0.00    +0.000 C 
ATOM      3  C   UNL     1       0.557  10.300  21.368  0.00  0.00    +0.000 C 
ATOM      4  C   UNL     1       0.619  10.039  19.834  0.00  0.00    +0.000 C 
ATOM      5  C   UNL     1      -0.795   9.700  19.307  0.00  0.00    +0.000 C 
ATOM      6  C   UNL     1       1.106  11.302  19.109  0.00  0.00    +0.000 C 
ATOM      7  C   UNL     1       2.033  11.275  18.138  0.00  0.00    +0.000 C 
ATOM      8  C   UNL     1       2.699  10.043  17.630  0.00  0.00    +0.000 C 
ATOM      9  C   UNL     1       2.046   8.731  18.102  0.00  0.00    +0.000 C 
ATOM     10  C   UNL     1       1.611   8.843  19.592  0.00  0.00    +0.000 C 
ATOM     11  C   UNL     1       1.106   7.491  20.159  0.00  0.00    +0.000 C 
ATOM     12  C   UNL     1       2.101   6.344  19.961  0.00  0.00    +0.000 C 
ATOM     13  C   UNL     1       2.579   6.237  18.507  0.00  0.00    +0.000 C 
ATOM     14  C   UNL     1       1.399   5.677  17.659  0.00  0.00    +0.000 C 
ATOM     15  C   UNL     1       3.061   7.600  17.987  0.00  0.00    +0.000 C 
ATOM     16  C   UNL     1       3.710   7.281  16.648  0.00  0.00    +0.000 C 
ATOM     17  C   UNL     1       4.373   5.912  16.886  0.00  0.00    +0.000 C 
ATOM     18  C   UNL     1       3.854   5.372  18.253  0.00  0.00    +0.000 C 
ATOM     19  C   UNL     1       0.508  12.624  19.547  0.00  0.00    +0.000 C 
ENDROOT
BRANCH  18  20
ATOM     20  C   UNL     1       4.940   5.352  19.392  0.00  0.00    +0.000 C 
ATOM     21  C   UNL     1       6.390   5.642  18.961  0.00  0.00    +0.000 C 
BRANCH  20  22
ATOM     22  C   UNL     1       4.911   4.017  20.171  0.00  0.00    +0.000 C 
BRANCH  22  23
ATOM     23  C   UNL     1       4.473   2.851  19.281  0.00  0.00    +0.000 C 
BRANCH  23  24
ATOM     24  C   UNL     1       3.346   2.044  19.907  0.00  0.00    +0.000 C 
BRANCH  24  25
ATOM     25  C   UNL     1       2.054   2.866  20.047  0.00  0.00    +0.000 C 
ATOM     26  C   UNL     1       0.965   2.414  19.072  0.00  0.00    +0.000 C 
ATOM     27  C   UNL     1       1.550   2.766  21.484  0.00  0.00    +0.000 C 
ENDBRANCH  24  25
ENDBRANCH  23  24
ENDBRANCH  22  23
ENDBRANCH  20  22
ENDBRANCH  18  20
BRANCH   1  28
ATOM     28  O   UNL     1       1.903  12.958  21.485  0.00  0.00    +0.000 OA
BRANCH  28  30
ATOM     29  C   UNL     1       1.923  15.281  21.796  0.00  0.00    +0.000 C 
ATOM     30  C   UNL     1       2.532  14.104  21.103  0.00  0.00    +0.000 C 
ATOM     31  O   UNL     1       3.450  14.177  20.303  0.00  0.00    +0.000 OA
ENDBRANCH  28  30
ENDBRANCH   1  28
TORSDOF 7
ENDMDL
MODEL 6
REMARK VINA RESULT:      -6.2      3.930      7.746
REMARK  Name = 
REMARK  13 active torsions:
REMARK  status: ('A' for Active; 'I' for Inactive)
REMARK    1  A    between atoms: C_1  and  C_2
REMARK    2  A    between atoms: C_2  and  O_4
REMARK    3  A    between atoms: O_4  and  C_5
REMARK    4  A    between atoms: C_8  and  C_9
REMARK    5  A    between atoms: C_17  and  C_18
REMARK    6  A    between atoms: C_22  and  C_23
REMARK    7  A    between atoms: C_23  and  C_24
REMARK    8  A    between atoms: C_23  and  C_25
REMARK    9  A    between atoms: C_25  and  C_26
REMARK   10  A    between atoms: C_26  and  C_27
REMARK   11  A    between atoms: C_27  and  C_28
REMARK   12  A    between atoms: C_28  and  C_29
REMARK   13  A    between atoms: C_28  and  C_30
REMARK                            x       y       z     vdW  Elec       q    Type
REMARK                         _______ _______ _______ _____ _____    ______ ____
ROOT
ATOM      1  C   UNL     1      -0.715  10.519  20.335  0.00  0.00    +0.000 C 
ATOM      2  C   UNL     1      -0.228  10.542  18.886  0.00  0.00    +0.000 C 
ATOM      3  C   UNL     1       0.991  11.447  18.715  0.00  0.00    +0.000 C 
ATOM      4  C   UNL     1       0.788  12.908  19.216  0.00  0.00    +0.000 C 
ATOM      5  C   UNL     1      -0.156  13.662  18.251  0.00  0.00    +0.000 C 
ATOM      6  C   UNL     1       0.137  12.896  20.605  0.00  0.00    +0.000 C 
ATOM      7  C   UNL     1       0.559  13.672  21.617  0.00  0.00    +0.000 C 
ATOM      8  C   UNL     1       1.689  14.640  21.533  0.00  0.00    +0.000 C 
ATOM      9  C   UNL     1       2.184  14.911  20.101  0.00  0.00    +0.000 C 
ATOM     10  C   UNL     1       2.201  13.594  19.271  0.00  0.00    +0.000 C 
ATOM     11  C   UNL     1       2.854  13.788  17.878  0.00  0.00    +0.000 C 
ATOM     12  C   UNL     1       4.251  14.413  17.947  0.00  0.00    +0.000 C 
ATOM     13  C   UNL     1       4.272  15.692  18.795  0.00  0.00    +0.000 C 
ATOM     14  C   UNL     1       3.550  16.810  17.986  0.00  0.00    +0.000 C 
ATOM     15  C   UNL     1       3.607  15.454  20.161  0.00  0.00    +0.000 C 
ATOM     16  C   UNL     1       3.917  16.717  20.952  0.00  0.00    +0.000 C 
ATOM     17  C   UNL     1       5.333  17.096  20.483  0.00  0.00    +0.000 C 
ATOM     18  C   UNL     1       5.674  16.205  19.251  0.00  0.00    +0.000 C 
ATOM     19  C   UNL     1      -1.021  11.941  20.819  0.00  0.00    +0.000 C 
ENDROOT
BRANCH  18  20
ATOM     20  C   UNL     1       6.776  15.118  19.527  0.00  0.00    +0.000 C 
ATOM     21  C   UNL     1       7.493  15.198  20.888  0.00  0.00    +0.000 C 
BRANCH  20  22
ATOM     22  C   UNL     1       7.841  15.100  18.406  0.00  0.00    +0.000 C 
BRANCH  22  23
ATOM     23  C   UNL     1       8.190  13.671  17.980  0.00  0.00    +0.000 C 
BRANCH  23  24
ATOM     24  C   UNL     1       9.546  13.231  18.511  0.00  0.00    +0.000 C 
BRANCH  24  25
ATOM     25  C   UNL     1       9.995  11.890  17.910  0.00  0.00    +0.000 C 
ATOM     26  C   UNL     1      11.502  11.664  18.046  0.00  0.00    +0.000 C 
ATOM     27  C   UNL     1       9.228  10.755  18.585  0.00  0.00    +0.000 C 
ENDBRANCH  24  25
ENDBRANCH  23  24
ENDBRANCH  22  23
ENDBRANCH  20  22
ENDBRANCH  18  20
BRANCH   1  28
ATOM     28  O   UNL     1       0.294   9.956  21.200  0.00  0.00    +0.000 OA
BRANCH  28  30
ATOM     29  C   UNL     1       1.409   7.905  20.988  0.00  0.00    +0.000 C 
ATOM     30  C   UNL     1       0.188   8.625  21.466  0.00  0.00    +0.000 C 
ATOM     31  O   UNL     1      -0.764   8.083  22.003  0.00  0.00    +0.000 OA
ENDBRANCH  28  30
ENDBRANCH   1  28
TORSDOF 7
ENDMDL
MODEL 7
REMARK VINA RESULT:      -6.1      5.779      9.304
REMARK  Name = 
REMARK  13 active torsions:
REMARK  status: ('A' for Active; 'I' for Inactive)
REMARK    1  A    between atoms: C_1  and  C_2
REMARK    2  A    between atoms: C_2  and  O_4
REMARK    3  A    between atoms: O_4  and  C_5
REMARK    4  A    between atoms: C_8  and  C_9
REMARK    5  A    between atoms: C_17  and  C_18
REMARK    6  A    between atoms: C_22  and  C_23
REMARK    7  A    between atoms: C_23  and  C_24
REMARK    8  A    between atoms: C_23  and  C_25
REMARK    9  A    between atoms: C_25  and  C_26
REMARK   10  A    between atoms: C_26  and  C_27
REMARK   11  A    between atoms: C_27  and  C_28
REMARK   12  A    between atoms: C_28  and  C_29
REMARK   13  A    between atoms: C_28  and  C_30
REMARK                            x       y       z     vdW  Elec       q    Type
REMARK                         _______ _______ _______ _____ _____    ______ ____
ROOT
ATOM      1  C   UNL     1      -0.412  11.489  18.534  0.00  0.00    +0.000 C 
ATOM      2  C   UNL     1      -0.814  10.567  19.685  0.00  0.00    +0.000 C 
ATOM      3  C   UNL     1      -1.845  11.226  20.602  0.00  0.00    +0.000 C 
ATOM      4  C   UNL     1      -1.413  12.609  21.173  0.00  0.00    +0.000 C 
ATOM      5  C   UNL     1      -0.303  12.410  22.232  0.00  0.00    +0.000 C 
ATOM      6  C   UNL     1      -0.844  13.483  20.047  0.00  0.00    +0.000 C 
ATOM      7  C   UNL     1      -1.173  14.775  19.888  0.00  0.00    +0.000 C 
ATOM      8  C   UNL     1      -2.109  15.530  20.768  0.00  0.00    +0.000 C 
ATOM      9  C   UNL     1      -2.476  14.801  22.073  0.00  0.00    +0.000 C 
ATOM     10  C   UNL     1      -2.684  13.280  21.810  0.00  0.00    +0.000 C 
ATOM     11  C   UNL     1      -3.222  12.537  23.059  0.00  0.00    +0.000 C 
ATOM     12  C   UNL     1      -4.488  13.172  23.642  0.00  0.00    +0.000 C 
ATOM     13  C   UNL     1      -4.325  14.680  23.873  0.00  0.00    +0.000 C 
ATOM     14  C   UNL     1      -3.378  14.874  25.094  0.00  0.00    +0.000 C 
ATOM     15  C   UNL     1      -3.782  15.373  22.613  0.00  0.00    +0.000 C 
ATOM     16  C   UNL     1      -3.904  16.858  22.920  0.00  0.00    +0.000 C 
ATOM     17  C   UNL     1      -5.206  16.951  23.737  0.00  0.00    +0.000 C 
ATOM     18  C   UNL     1      -5.635  15.498  24.100  0.00  0.00    +0.000 C 
ATOM     19  C   UNL     1       0.114  12.823  19.076  0.00  0.00    +0.000 C 
ENDROOT
BRANCH  18  20
ATOM     20  C   UNL     1      -6.925  15.000  23.348  0.00  0.00    +0.000 C 
ATOM     21  C   UNL     1      -7.916  16.088  22.894  0.00  0.00    +0.000 C 
BRANCH  20  22
ATOM     22  C   UNL     1      -7.691  13.949  24.184  0.00  0.00    +0.000 C 
BRANCH  22  23
ATOM     23  C   UNL     1      -7.760  12.598  23.467  0.00  0.00    +0.000 C 
BRANCH  23  24
ATOM     24  C   UNL     1      -7.865  12.755  21.957  0.00  0.00    +0.000 C 
BRANCH  24  25
ATOM     25  C   UNL     1      -6.840  11.885  21.213  0.00  0.00    +0.000 C 
ATOM     26  C   UNL     1      -7.498  10.749  20.427  0.00  0.00    +0.000 C 
ATOM     27  C   UNL     1      -6.020  12.768  20.275  0.00  0.00    +0.000 C 
ENDBRANCH  24  25
ENDBRANCH  23  24
ENDBRANCH  22  23
ENDBRANCH  20  22
ENDBRANCH  18  20
BRANCH   1  28
ATOM     28  O   UNL     1      -1.547  11.765  17.685  0.00  0.00    +0.000 OA
BRANCH  28  30
ATOM     29  C   UNL     1      -3.693  10.867  17.395  0.00  0.00    +0.000 C 
ATOM     30  C   UNL     1      -2.220  10.683  17.206  0.00  0.00    +0.000 C 
ATOM     31  O   UNL     1      -1.710   9.695  16.705  0.00  0.00    +0.000 OA
ENDBRANCH  28  30
ENDBRANCH   1  28
TORSDOF 7
ENDMDL
MODEL 8
REMARK VINA RESULT:      -6.1      4.368      7.754
REMARK  Name = 
REMARK  13 active torsions:
REMARK  status: ('A' for Active; 'I' for Inactive)
REMARK    1  A    between atoms: C_1  and  C_2
REMARK    2  A    between atoms: C_2  and  O_4
REMARK    3  A    between atoms: O_4  and  C_5
REMARK    4  A    between atoms: C_8  and  C_9
REMARK    5  A    between atoms: C_17  and  C_18
REMARK    6  A    between atoms: C_22  and  C_23
REMARK    7  A    between atoms: C_23  and  C_24
REMARK    8  A    between atoms: C_23  and  C_25
REMARK    9  A    between atoms: C_25  and  C_26
REMARK   10  A    between atoms: C_26  and  C_27
REMARK   11  A    between atoms: C_27  and  C_28
REMARK   12  A    between atoms: C_28  and  C_29
REMARK   13  A    between atoms: C_28  and  C_30
REMARK                            x       y       z     vdW  Elec       q    Type
REMARK                         _______ _______ _______ _____ _____    ______ ____
ROOT
ATOM      1  C   UNL     1      -0.793  10.643  20.466  0.00  0.00    +0.000 C 
ATOM      2  C   UNL     1      -0.348  10.638  19.003  0.00  0.00    +0.000 C 
ATOM      3  C   UNL     1       0.896  11.501  18.789  0.00  0.00    +0.000 C 
ATOM      4  C   UNL     1       0.757  12.971  19.283  0.00  0.00    +0.000 C 
ATOM      5  C   UNL     1      -0.189  13.749  18.339  0.00  0.00    +0.000 C 
ATOM      6  C   UNL     1       0.146  12.992  20.691  0.00  0.00    +0.000 C 
ATOM      7  C   UNL     1       0.623  13.761  21.683  0.00  0.00    +0.000 C 
ATOM      8  C   UNL     1       1.782  14.690  21.558  0.00  0.00    +0.000 C 
ATOM      9  C   UNL     1       2.244  14.933  20.111  0.00  0.00    +0.000 C 
ATOM     10  C   UNL     1       2.193  13.610  19.291  0.00  0.00    +0.000 C 
ATOM     11  C   UNL     1       2.812  13.771  17.879  0.00  0.00    +0.000 C 
ATOM     12  C   UNL     1       4.230  14.348  17.903  0.00  0.00    +0.000 C 
ATOM     13  C   UNL     1       4.318  15.632  18.739  0.00  0.00    +0.000 C 
ATOM     14  C   UNL     1       3.612  16.768  17.941  0.00  0.00    +0.000 C 
ATOM     15  C   UNL     1       3.686  15.428  20.125  0.00  0.00    +0.000 C 
ATOM     16  C   UNL     1       4.061  16.685  20.895  0.00  0.00    +0.000 C 
ATOM     17  C   UNL     1       5.475  17.013  20.383  0.00  0.00    +0.000 C 
ATOM     18  C   UNL     1       5.749  16.101  19.149  0.00  0.00    +0.000 C 
ATOM     19  C   UNL     1      -1.036  12.079  20.945  0.00  0.00    +0.000 C 
ENDROOT
BRANCH  18  20
ATOM     20  C   UNL     1       6.822  14.979  19.404  0.00  0.00    +0.000 C 
ATOM     21  C   UNL     1       7.624  15.081  20.714  0.00  0.00    +0.000 C 
BRANCH  20  22
ATOM     22  C   UNL     1       7.814  14.872  18.222  0.00  0.00    +0.000 C 
BRANCH  22  23
ATOM     23  C   UNL     1       8.056  13.416  17.816  0.00  0.00    +0.000 C 
BRANCH  23  24
ATOM     24  C   UNL     1       9.534  13.118  17.609  0.00  0.00    +0.000 C 
BRANCH  24  25
ATOM     25  C   UNL     1      10.435  14.128  18.335  0.00  0.00    +0.000 C 
ATOM     26  C   UNL     1      11.029  13.561  19.626  0.00  0.00    +0.000 C 
ATOM     27  C   UNL     1      11.551  14.572  17.392  0.00  0.00    +0.000 C 
ENDBRANCH  24  25
ENDBRANCH  23  24
ENDBRANCH  22  23
ENDBRANCH  20  22
ENDBRANCH  18  20
BRANCH   1  28
ATOM     28  O   UNL     1       0.221  10.054  21.307  0.00  0.00    +0.000 OA
BRANCH  28  30
ATOM     29  C   UNL     1       1.410   8.053  21.024  0.00  0.00    +0.000 C 
ATOM     30  C   UNL     1       0.147   8.706  21.488  0.00  0.00    +0.000 C 
ATOM     31  O   UNL     1      -0.810   8.104  21.948  0.00  0.00    +0.000 OA
ENDBRANCH  28  30
ENDBRANCH   1  28
TORSDOF 7
ENDMDL
MODEL 9
REMARK VINA RESULT:      -6.0      4.247      7.693
REMARK  Name = 
REMARK  13 active torsions:
REMARK  status: ('A' for Active; 'I' for Inactive)
REMARK    1  A    between atoms: C_1  and  C_2
REMARK    2  A    between atoms: C_2  and  O_4
REMARK    3  A    between atoms: O_4  and  C_5
REMARK    4  A    between atoms: C_8  and  C_9
REMARK    5  A    between atoms: C_17  and  C_18
REMARK    6  A    between atoms: C_22  and  C_23
REMARK    7  A    between atoms: C_23  and  C_24
REMARK    8  A    between atoms: C_23  and  C_25
REMARK    9  A    between atoms: C_25  and  C_26
REMARK   10  A    between atoms: C_26  and  C_27
REMARK   11  A    between atoms: C_27  and  C_28
REMARK   12  A    between atoms: C_28  and  C_29
REMARK   13  A    between atoms: C_28  and  C_30
REMARK                            x       y       z     vdW  Elec       q    Type
REMARK                         _______ _______ _______ _____ _____    ______ ____
ROOT
ATOM      1  C   UNL     1      -0.190  10.253  20.347  0.00  0.00    +0.000 C 
ATOM      2  C   UNL     1       0.307  10.296  18.903  0.00  0.00    +0.000 C 
ATOM      3  C   UNL     1       1.400  11.347  18.714  0.00  0.00    +0.000 C 
ATOM      4  C   UNL     1       1.004  12.783  19.168  0.00  0.00    +0.000 C 
ATOM      5  C   UNL     1      -0.019  13.379  18.173  0.00  0.00    +0.000 C 
ATOM      6  C   UNL     1       0.342  12.727  20.552  0.00  0.00    +0.000 C 
ATOM      7  C   UNL     1       0.647  13.581  21.543  0.00  0.00    +0.000 C 
ATOM      8  C   UNL     1       1.643  14.685  21.439  0.00  0.00    +0.000 C 
ATOM      9  C   UNL     1       2.116  14.976  20.004  0.00  0.00    +0.000 C 
ATOM     10  C   UNL     1       2.315  13.649  19.214  0.00  0.00    +0.000 C 
ATOM     11  C   UNL     1       2.954  13.886  17.821  0.00  0.00    +0.000 C 
ATOM     12  C   UNL     1       4.257  14.689  17.883  0.00  0.00    +0.000 C 
ATOM     13  C   UNL     1       4.100  15.983  18.692  0.00  0.00    +0.000 C 
ATOM     14  C   UNL     1       3.249  16.974  17.843  0.00  0.00    +0.000 C 
ATOM     15  C   UNL     1       3.456  15.701  20.059  0.00  0.00    +0.000 C 
ATOM     16  C   UNL     1       3.589  17.016  20.813  0.00  0.00    +0.000 C 
ATOM     17  C   UNL     1       4.950  17.563  20.345  0.00  0.00    +0.000 C 
ATOM     18  C   UNL     1       5.418  16.689  19.143  0.00  0.00    +0.000 C 
ATOM     19  C   UNL     1      -0.684  11.636  20.785  0.00  0.00    +0.000 C 
ENDROOT
BRANCH  18  20
ATOM     20  C   UNL     1       6.649  15.762  19.462  0.00  0.00    +0.000 C 
ATOM     21  C   UNL     1       7.405  16.052  20.772  0.00  0.00    +0.000 C 
BRANCH  20  22
ATOM     22  C   UNL     1       7.664  15.756  18.295  0.00  0.00    +0.000 C 
BRANCH  22  23
ATOM     23  C   UNL     1       8.152  14.340  17.977  0.00  0.00    +0.000 C 
BRANCH  23  24
ATOM     24  C   UNL     1       9.670  14.243  17.984  0.00  0.00    +0.000 C 
BRANCH  24  25
ATOM     25  C   UNL     1      10.171  13.058  18.825  0.00  0.00    +0.000 C 
ATOM     26  C   UNL     1       9.163  12.633  19.895  0.00  0.00    +0.000 C 
ATOM     27  C   UNL     1      10.484  11.884  17.900  0.00  0.00    +0.000 C 
ENDBRANCH  24  25
ENDBRANCH  23  24
ENDBRANCH  22  23
ENDBRANCH  20  22
ENDBRANCH  18  20
BRANCH   1  28
ATOM     28  O   UNL     1       0.873   9.852  21.238  0.00  0.00    +0.000 OA
BRANCH  28  30
ATOM     29  C   UNL     1      -0.569   8.321  22.273  0.00  0.00    +0.000 C 
ATOM     30  C   UNL     1       0.493   9.359  22.449  0.00  0.00    +0.000 C 
ATOM     31  O   UNL     1       0.936   9.714  23.530  0.00  0.00    +0.000 OA
ENDBRANCH  28  30
ENDBRANCH   1  28
TORSDOF 7
ENDMDL
