MODEL 1
REMARK VINA RESULT:      -8.6      0.000      0.000
REMARK  Name = 
REMARK  5 active torsions:
REMARK  status: ('A' for Active; 'I' for Inactive)
REMARK    1  A    between atoms: C_7  and  C_8
REMARK    2  A    between atoms: C_11  and  O_12
REMARK    3  A    between atoms: O_12  and  C_13
REMARK    4  A    between atoms: N_16  and  C_17
REMARK    5  A    between atoms: C_22  and  C_23
REMARK                            x       y       z     vdW  Elec       q    Type
REMARK                         _______ _______ _______ _____ _____    ______ ____
ROOT
ATOM      1  C   UNL     1       2.576   6.711  18.558  0.00  0.00    +0.000 A 
ATOM      2  C   UNL     1       2.221   7.748  17.682  0.00  0.00    +0.000 A 
ATOM      3  C   UNL     1       1.658   8.941  18.168  0.00  0.00    +0.000 A 
ATOM      4  C   UNL     1       1.432   9.122  19.537  0.00  0.00    +0.000 A 
ATOM      5  C   UNL     1       1.828   8.101  20.404  0.00  0.00    +0.000 A 
ATOM      6  F   UNL     1       1.648   8.231  21.726  0.00  0.00    +0.000 F 
ATOM      7  C   UNL     1       2.392   6.910  19.932  0.00  0.00    +0.000 A 
ENDROOT
BRANCH   1  14
ATOM      8  O   UNL     1       7.580   4.714  15.118  0.00  0.00    +0.000 OA
ATOM      9  C   UNL     1       6.584   4.886  15.811  0.00  0.00    +0.000 C 
ATOM     10  N   UNL     1       5.730   3.868  16.101  0.00  0.00    +0.000 N 
ATOM     11  C   UNL     1       4.605   3.938  16.875  0.00  0.00    +0.000 C 
ATOM     12  O   UNL     1       3.915   2.944  17.078  0.00  0.00    +0.000 OA
ATOM     13  C   UNL     1       4.292   5.286  17.422  0.00  0.00    +0.000 C 
ATOM     14  C   UNL     1       3.112   5.444  18.056  0.00  0.00    +0.000 C 
ATOM     15  C   UNL     1       5.269   6.385  17.212  0.00  0.00    +0.000 C 
ATOM     16  O   UNL     1       5.225   7.471  17.774  0.00  0.00    +0.000 OA
ATOM     17  N   UNL     1       6.288   6.100  16.347  0.00  0.00    +0.000 N 
ATOM     18  H   UNL     1       5.960   2.966  15.708  0.00  0.00    +0.000 HD
ATOM     19  H   UNL     1       6.959   6.839  16.187  0.00  0.00    +0.000 HD
ENDBRANCH   1  14
BRANCH   4  20
ATOM     20  O   UNL     1       0.898  10.269  20.090  0.00  0.00    +0.000 OA
BRANCH  20  21
ATOM     21  C   UNL     1      -0.536  10.296  20.245  0.00  0.00    +0.000 C 
ATOM     22  C   UNL     1      -1.122  11.635  19.784  0.00  0.00    +0.000 C 
ATOM     23  C   UNL     1      -1.024  12.760  20.813  0.00  0.00    +0.000 C 
ATOM     24  N   UNL     1      -1.529  12.332  22.143  0.00  0.00    +0.000 N 
ATOM     25  C   UNL     1      -0.722  11.202  22.648  0.00  0.00    +0.000 C 
ATOM     26  C   UNL     1      -0.914  10.004  21.707  0.00  0.00    +0.000 C 
BRANCH  24  27
ATOM     27  C   UNL     1      -1.648  13.434  23.017  0.00  0.00    +0.000 A 
ATOM     28  N   UNL     1      -0.579  14.281  23.075  0.00  0.00    +0.000 NA
ATOM     29  C   UNL     1      -0.650  15.448  23.748  0.00  0.00    +0.000 A 
ATOM     30  C   UNL     1      -1.768  15.864  24.422  0.00  0.00    +0.000 A 
ATOM     31  C   UNL     1      -2.854  15.007  24.412  0.00  0.00    +0.000 A 
ATOM     32  C   UNL     1      -2.814  13.770  23.707  0.00  0.00    +0.000 A 
BRANCH  32  33
ATOM     33  C   UNL     1      -4.095  12.989  23.744  0.00  0.00    +0.000 C 
ATOM     34  F   UNL     1      -4.544  12.440  22.587  0.00  0.00    +0.000 F 
ATOM     35  F   UNL     1      -4.005  11.942  24.625  0.00  0.00    +0.000 F 
ATOM     36  F   UNL     1      -5.138  13.739  24.214  0.00  0.00    +0.000 F 
ENDBRANCH  32  33
ENDBRANCH  24  27
ENDBRANCH  20  21
ENDBRANCH   4  20
TORSDOF 5
ENDMDL
MODEL 2
REMARK VINA RESULT:      -8.6      0.814      1.299
REMARK  Name = 
REMARK  5 active torsions:
REMARK  status: ('A' for Active; 'I' for Inactive)
REMARK    1  A    between atoms: C_7  and  C_8
REMARK    2  A    between atoms: C_11  and  O_12
REMARK    3  A    between atoms: O_12  and  C_13
REMARK    4  A    between atoms: N_16  and  C_17
REMARK    5  A    between atoms: C_22  and  C_23
REMARK                            x       y       z     vdW  Elec       q    Type
REMARK                         _______ _______ _______ _____ _____    ______ ____
ROOT
ATOM      1  C   UNL     1       2.593   6.416  18.648  0.00  0.00    +0.000 A 
ATOM      2  C   UNL     1       2.364   6.570  20.024  0.00  0.00    +0.000 A 
ATOM      3  C   UNL     1       1.833   7.766  20.537  0.00  0.00    +0.000 A 
ATOM      4  C   UNL     1       1.524   8.835  19.690  0.00  0.00    +0.000 A 
ATOM      5  C   UNL     1       1.716   8.657  18.318  0.00  0.00    +0.000 A 
ATOM      6  F   UNL     1       1.421   9.645  17.461  0.00  0.00    +0.000 F 
ATOM      7  C   UNL     1       2.242   7.469  17.795  0.00  0.00    +0.000 A 
ENDROOT
BRANCH   1  14
ATOM      8  O   UNL     1       7.635   4.803  15.066  0.00  0.00    +0.000 OA
ATOM      9  C   UNL     1       6.646   4.898  15.783  0.00  0.00    +0.000 C 
ATOM     10  N   UNL     1       5.865   3.823  16.071  0.00  0.00    +0.000 N 
ATOM     11  C   UNL     1       4.755   3.808  16.870  0.00  0.00    +0.000 C 
ATOM     12  O   UNL     1       4.133   2.769  17.068  0.00  0.00    +0.000 OA
ATOM     13  C   UNL     1       4.370   5.123  17.449  0.00  0.00    +0.000 C 
ATOM     14  C   UNL     1       3.196   5.195  18.111  0.00  0.00    +0.000 C 
ATOM     15  C   UNL     1       5.270   6.285  17.240  0.00  0.00    +0.000 C 
ATOM     16  O   UNL     1       5.171   7.357  17.825  0.00  0.00    +0.000 OA
ATOM     17  N   UNL     1       6.286   6.081  16.349  0.00  0.00    +0.000 N 
ATOM     18  H   UNL     1       6.142   2.945  15.656  0.00  0.00    +0.000 HD
ATOM     19  H   UNL     1       6.906   6.864  16.190  0.00  0.00    +0.000 HD
ENDBRANCH   1  14
BRANCH   4  20
ATOM     20  O   UNL     1       0.987  10.034  20.116  0.00  0.00    +0.000 OA
BRANCH  20  21
ATOM     21  C   UNL     1      -0.440  10.058  20.324  0.00  0.00    +0.000 C 
ATOM     22  C   UNL     1      -1.054  11.373  19.832  0.00  0.00    +0.000 C 
ATOM     23  C   UNL     1      -0.927  12.539  20.809  0.00  0.00    +0.000 C 
ATOM     24  N   UNL     1      -1.377  12.163  22.174  0.00  0.00    +0.000 N 
ATOM     25  C   UNL     1      -0.542  11.061  22.694  0.00  0.00    +0.000 C 
ATOM     26  C   UNL     1      -0.759   9.824  21.811  0.00  0.00    +0.000 C 
BRANCH  24  27
ATOM     27  C   UNL     1      -1.472  13.300  23.006  0.00  0.00    +0.000 A 
ATOM     28  N   UNL     1      -0.417  14.166  22.973  0.00  0.00    +0.000 NA
ATOM     29  C   UNL     1      -0.476  15.359  23.600  0.00  0.00    +0.000 A 
ATOM     30  C   UNL     1      -1.565  15.785  24.313  0.00  0.00    +0.000 A 
ATOM     31  C   UNL     1      -2.634  14.910  24.395  0.00  0.00    +0.000 A 
ATOM     32  C   UNL     1      -2.607  13.646  23.741  0.00  0.00    +0.000 A 
BRANCH  32  33
ATOM     33  C   UNL     1      -3.870  12.845  23.877  0.00  0.00    +0.000 C 
ATOM     34  F   UNL     1      -3.799  11.637  24.491  0.00  0.00    +0.000 F 
ATOM     35  F   UNL     1      -4.822  13.546  24.573  0.00  0.00    +0.000 F 
ATOM     36  F   UNL     1      -4.451  12.598  22.663  0.00  0.00    +0.000 F 
ENDBRANCH  32  33
ENDBRANCH  24  27
ENDBRANCH  20  21
ENDBRANCH   4  20
TORSDOF 5
ENDMDL
MODEL 3
REMARK VINA RESULT:      -8.6      2.795      3.360
REMARK  Name = 
REMARK  5 active torsions:
REMARK  status: ('A' for Active; 'I' for Inactive)
REMARK    1  A    between atoms: C_7  and  C_8
REMARK    2  A    between atoms: C_11  and  O_12
REMARK    3  A    between atoms: O_12  and  C_13
REMARK    4  A    between atoms: N_16  and  C_17
REMARK    5  A    between atoms: C_22  and  C_23
REMARK                            x       y       z     vdW  Elec       q    Type
REMARK                         _______ _______ _______ _____ _____    ______ ____
ROOT
ATOM      1  C   UNL     1       2.618   6.832  18.413  0.00  0.00    +0.000 A 
ATOM      2  C   UNL     1       2.422   7.835  17.452  0.00  0.00    +0.000 A 
ATOM      3  C   UNL     1       1.820   9.057  17.798  0.00  0.00    +0.000 A 
ATOM      4  C   UNL     1       1.398   9.303  19.109  0.00  0.00    +0.000 A 
ATOM      5  C   UNL     1       1.637   8.315  20.067  0.00  0.00    +0.000 A 
ATOM      6  F   UNL     1       1.266   8.507  21.341  0.00  0.00    +0.000 F 
ATOM      7  C   UNL     1       2.237   7.095  19.734  0.00  0.00    +0.000 A 
ENDROOT
BRANCH   1  14
ATOM      8  O   UNL     1       7.807   4.626  15.399  0.00  0.00    +0.000 OA
ATOM      9  C   UNL     1       6.776   4.842  16.027  0.00  0.00    +0.000 C 
ATOM     10  N   UNL     1       5.923   3.839  16.365  0.00  0.00    +0.000 N 
ATOM     11  C   UNL     1       4.761   3.957  17.076  0.00  0.00    +0.000 C 
ATOM     12  O   UNL     1       4.073   2.974  17.333  0.00  0.00    +0.000 OA
ATOM     13  C   UNL     1       4.405   5.342  17.487  0.00  0.00    +0.000 C 
ATOM     14  C   UNL     1       3.194   5.535  18.050  0.00  0.00    +0.000 C 
ATOM     15  C   UNL     1       5.377   6.434  17.228  0.00  0.00    +0.000 C 
ATOM     16  O   UNL     1       5.293   7.565  17.691  0.00  0.00    +0.000 OA
ATOM     17  N   UNL     1       6.440   6.092  16.440  0.00  0.00    +0.000 N 
ATOM     18  H   UNL     1       6.182   2.910  16.063  0.00  0.00    +0.000 HD
ATOM     19  H   UNL     1       7.109   6.826  16.248  0.00  0.00    +0.000 HD
ENDBRANCH   1  14
BRANCH   4  20
ATOM     20  O   UNL     1       0.814  10.482  19.528  0.00  0.00    +0.000 OA
BRANCH  20  21
ATOM     21  C   UNL     1       0.169  11.275  18.510  0.00  0.00    +0.000 C 
ATOM     22  C   UNL     1      -0.179  12.673  19.029  0.00  0.00    +0.000 C 
ATOM     23  C   UNL     1      -1.465  12.745  19.850  0.00  0.00    +0.000 C 
ATOM     24  N   UNL     1      -2.599  12.084  19.153  0.00  0.00    +0.000 N 
ATOM     25  C   UNL     1      -2.294  10.655  18.937  0.00  0.00    +0.000 C 
ATOM     26  C   UNL     1      -1.086  10.549  17.995  0.00  0.00    +0.000 C 
BRANCH  24  27
ATOM     27  C   UNL     1      -3.821  12.355  19.807  0.00  0.00    +0.000 A 
ATOM     28  N   UNL     1      -3.733  12.840  21.080  0.00  0.00    +0.000 NA
ATOM     29  C   UNL     1      -4.826  13.285  21.733  0.00  0.00    +0.000 A 
ATOM     30  C   UNL     1      -6.085  13.277  21.192  0.00  0.00    +0.000 A 
ATOM     31  C   UNL     1      -6.209  12.754  19.917  0.00  0.00    +0.000 A 
ATOM     32  C   UNL     1      -5.074  12.281  19.197  0.00  0.00    +0.000 A 
BRANCH  32  33
ATOM     33  C   UNL     1      -5.371  11.805  17.805  0.00  0.00    +0.000 C 
ATOM     34  F   UNL     1      -4.498  12.128  16.818  0.00  0.00    +0.000 F 
ATOM     35  F   UNL     1      -5.468  10.438  17.764  0.00  0.00    +0.000 F 
ATOM     36  F   UNL     1      -6.589  12.245  17.364  0.00  0.00    +0.000 F 
ENDBRANCH  32  33
ENDBRANCH  24  27
ENDBRANCH  20  21
ENDBRANCH   4  20
TORSDOF 5
ENDMDL
MODEL 4
REMARK VINA RESULT:      -8.5      3.686     11.540
REMARK  Name = 
REMARK  5 active torsions:
REMARK  status: ('A' for Active; 'I' for Inactive)
REMARK    1  A    between atoms: C_7  and  C_8
REMARK    2  A    between atoms: C_11  and  O_12
REMARK    3  A    between atoms: O_12  and  C_13
REMARK    4  A    between atoms: N_16  and  C_17
REMARK    5  A    between atoms: C_22  and  C_23
REMARK                            x       y       z     vdW  Elec       q    Type
REMARK                         _______ _______ _______ _____ _____    ______ ____
ROOT
ATOM      1  C   UNL     1      -1.594  12.531  22.522  0.00  0.00    +0.000 A 
ATOM      2  C   UNL     1      -1.359  12.842  21.175  0.00  0.00    +0.000 A 
ATOM      3  C   UNL     1      -0.839  11.879  20.292  0.00  0.00    +0.000 A 
ATOM      4  C   UNL     1      -0.540  10.587  20.737  0.00  0.00    +0.000 A 
ATOM      5  C   UNL     1      -0.817  10.275  22.071  0.00  0.00    +0.000 A 
ATOM      6  F   UNL     1      -0.563   9.046  22.543  0.00  0.00    +0.000 F 
ATOM      7  C   UNL     1      -1.337  11.225  22.958  0.00  0.00    +0.000 A 
ENDROOT
BRANCH   1  14
ATOM      8  O   UNL     1      -7.089  15.530  23.819  0.00  0.00    +0.000 OA
ATOM      9  C   UNL     1      -5.963  15.051  23.750  0.00  0.00    +0.000 C 
ATOM     10  N   UNL     1      -4.935  15.532  24.498  0.00  0.00    +0.000 N 
ATOM     11  C   UNL     1      -3.649  15.068  24.519  0.00  0.00    +0.000 C 
ATOM     12  O   UNL     1      -2.804  15.577  25.248  0.00  0.00    +0.000 OA
ATOM     13  C   UNL     1      -3.368  13.934  23.598  0.00  0.00    +0.000 C 
ATOM     14  C   UNL     1      -2.083  13.543  23.461  0.00  0.00    +0.000 C 
ATOM     15  C   UNL     1      -4.499  13.320  22.857  0.00  0.00    +0.000 C 
ATOM     16  O   UNL     1      -4.433  12.269  22.232  0.00  0.00    +0.000 OA
ATOM     17  N   UNL     1      -5.683  13.996  22.939  0.00  0.00    +0.000 N 
ATOM     18  H   UNL     1      -5.150  16.310  25.107  0.00  0.00    +0.000 HD
ATOM     19  H   UNL     1      -6.464  13.596  22.435  0.00  0.00    +0.000 HD
ENDBRANCH   1  14
BRANCH   4  20
ATOM     20  O   UNL     1      -0.041   9.583  19.930  0.00  0.00    +0.000 OA
BRANCH  20  21
ATOM     21  C   UNL     1       1.391   9.545  19.767  0.00  0.00    +0.000 C 
ATOM     22  C   UNL     1       1.780   9.241  18.316  0.00  0.00    +0.000 C 
ATOM     23  C   UNL     1       1.733   7.761  17.942  0.00  0.00    +0.000 C 
ATOM     24  N   UNL     1       2.462   6.922  18.928  0.00  0.00    +0.000 N 
ATOM     25  C   UNL     1       1.843   7.058  20.262  0.00  0.00    +0.000 C 
ATOM     26  C   UNL     1       2.003   8.512  20.729  0.00  0.00    +0.000 C 
BRANCH  24  27
ATOM     27  C   UNL     1       2.608   5.599  18.456  0.00  0.00    +0.000 A 
ATOM     28  N   UNL     1       1.617   4.723  18.791  0.00  0.00    +0.000 NA
ATOM     29  C   UNL     1       1.573   3.484  18.259  0.00  0.00    +0.000 A 
ATOM     30  C   UNL     1       2.501   3.010  17.370  0.00  0.00    +0.000 A 
ATOM     31  C   UNL     1       3.540   3.865  17.042  0.00  0.00    +0.000 A 
ATOM     32  C   UNL     1       3.613   5.181  17.582  0.00  0.00    +0.000 A 
BRANCH  32  33
ATOM     33  C   UNL     1       4.766   6.000  17.076  0.00  0.00    +0.000 C 
ATOM     34  F   UNL     1       5.628   6.520  17.986  0.00  0.00    +0.000 F 
ATOM     35  F   UNL     1       5.547   5.269  16.219  0.00  0.00    +0.000 F 
ATOM     36  F   UNL     1       4.345   7.065  16.329  0.00  0.00    +0.000 F 
ENDBRANCH  32  33
ENDBRANCH  24  27
ENDBRANCH  20  21
ENDBRANCH   4  20
TORSDOF 5
ENDMDL
MODEL 5
REMARK VINA RESULT:      -8.5      2.473      3.192
REMARK  Name = 
REMARK  5 active torsions:
REMARK  status: ('A' for Active; 'I' for Inactive)
REMARK    1  A    between atoms: C_7  and  C_8
REMARK    2  A    between atoms: C_11  and  O_12
REMARK    3  A    between atoms: O_12  and  C_13
REMARK    4  A    between atoms: N_16  and  C_17
REMARK    5  A    between atoms: C_22  and  C_23
REMARK                            x       y       z     vdW  Elec       q    Type
REMARK                         _______ _______ _______ _____ _____    ______ ____
ROOT
ATOM      1  C   UNL     1       3.010   7.318  18.941  0.00  0.00    +0.000 A 
ATOM      2  C   UNL     1       2.793   8.110  17.805  0.00  0.00    +0.000 A 
ATOM      3  C   UNL     1       1.728   9.027  17.757  0.00  0.00    +0.000 A 
ATOM      4  C   UNL     1       0.854   9.168  18.841  0.00  0.00    +0.000 A 
ATOM      5  C   UNL     1       1.105   8.405  19.984  0.00  0.00    +0.000 A 
ATOM      6  F   UNL     1       0.306   8.514  21.056  0.00  0.00    +0.000 F 
ATOM      7  C   UNL     1       2.164   7.491  20.043  0.00  0.00    +0.000 A 
ENDROOT
BRANCH   1  14
ATOM      8  O   UNL     1       3.606   0.973  18.442  0.00  0.00    +0.000 OA
ATOM      9  C   UNL     1       3.708   2.191  18.533  0.00  0.00    +0.000 C 
ATOM     10  N   UNL     1       4.892   2.788  18.832  0.00  0.00    +0.000 N 
ATOM     11  C   UNL     1       5.128   4.131  18.939  0.00  0.00    +0.000 C 
ATOM     12  O   UNL     1       6.248   4.558  19.204  0.00  0.00    +0.000 OA
ATOM     13  C   UNL     1       3.942   5.004  18.728  0.00  0.00    +0.000 C 
ATOM     14  C   UNL     1       4.083   6.322  18.979  0.00  0.00    +0.000 C 
ATOM     15  C   UNL     1       2.668   4.381  18.289  0.00  0.00    +0.000 C 
ATOM     16  O   UNL     1       1.689   5.002  17.892  0.00  0.00    +0.000 OA
ATOM     17  N   UNL     1       2.648   3.015  18.317  0.00  0.00    +0.000 N 
ATOM     18  H   UNL     1       5.679   2.173  18.983  0.00  0.00    +0.000 HD
ATOM     19  H   UNL     1       1.786   2.573  18.027  0.00  0.00    +0.000 HD
ENDBRANCH   1  14
BRANCH   4  20
ATOM     20  O   UNL     1      -0.204  10.054  18.875  0.00  0.00    +0.000 OA
BRANCH  20  21
ATOM     21  C   UNL     1       0.136  11.454  18.965  0.00  0.00    +0.000 C 
ATOM     22  C   UNL     1       0.771  11.787  20.319  0.00  0.00    +0.000 C 
ATOM     23  C   UNL     1      -0.228  11.992  21.457  0.00  0.00    +0.000 C 
ATOM     24  N   UNL     1      -1.310  12.935  21.074  0.00  0.00    +0.000 N 
ATOM     25  C   UNL     1      -2.061  12.399  19.920  0.00  0.00    +0.000 C 
ATOM     26  C   UNL     1      -1.113  12.315  18.715  0.00  0.00    +0.000 C 
BRANCH  24  27
ATOM     27  C   UNL     1      -2.089  13.292  22.195  0.00  0.00    +0.000 A 
ATOM     28  N   UNL     1      -3.047  12.398  22.578  0.00  0.00    +0.000 NA
ATOM     29  C   UNL     1      -3.734  12.562  23.728  0.00  0.00    +0.000 A 
ATOM     30  C   UNL     1      -3.541  13.619  24.579  0.00  0.00    +0.000 A 
ATOM     31  C   UNL     1      -2.603  14.562  24.195  0.00  0.00    +0.000 A 
ATOM     32  C   UNL     1      -1.857  14.416  22.991  0.00  0.00    +0.000 A 
BRANCH  32  33
ATOM     33  C   UNL     1      -0.837  15.492  22.754  0.00  0.00    +0.000 C 
ATOM     34  F   UNL     1       0.472  15.136  22.722  0.00  0.00    +0.000 F 
ATOM     35  F   UNL     1      -1.065  16.128  21.560  0.00  0.00    +0.000 F 
ATOM     36  F   UNL     1      -0.917  16.486  23.690  0.00  0.00    +0.000 F 
ENDBRANCH  32  33
ENDBRANCH  24  27
ENDBRANCH  20  21
ENDBRANCH   4  20
TORSDOF 5
ENDMDL
MODEL 6
REMARK VINA RESULT:      -8.4      3.209      4.116
REMARK  Name = 
REMARK  5 active torsions:
REMARK  status: ('A' for Active; 'I' for Inactive)
REMARK    1  A    between atoms: C_7  and  C_8
REMARK    2  A    between atoms: C_11  and  O_12
REMARK    3  A    between atoms: O_12  and  C_13
REMARK    4  A    between atoms: N_16  and  C_17
REMARK    5  A    between atoms: C_22  and  C_23
REMARK                            x       y       z     vdW  Elec       q    Type
REMARK                         _______ _______ _______ _____ _____    ______ ____
ROOT
ATOM      1  C   UNL     1       2.969   7.512  18.456  0.00  0.00    +0.000 A 
ATOM      2  C   UNL     1       2.529   8.492  17.554  0.00  0.00    +0.000 A 
ATOM      3  C   UNL     1       1.510   9.393  17.908  0.00  0.00    +0.000 A 
ATOM      4  C   UNL     1       0.906   9.333  19.169  0.00  0.00    +0.000 A 
ATOM      5  C   UNL     1       1.381   8.381  20.075  0.00  0.00    +0.000 A 
ATOM      6  F   UNL     1       0.847   8.292  21.301  0.00  0.00    +0.000 F 
ATOM      7  C   UNL     1       2.396   7.480  19.733  0.00  0.00    +0.000 A 
ENDROOT
BRANCH   1  14
ATOM      8  O   UNL     1       3.494   1.161  17.951  0.00  0.00    +0.000 OA
ATOM      9  C   UNL     1       3.588   2.384  17.952  0.00  0.00    +0.000 C 
ATOM     10  N   UNL     1       4.772   3.009  17.716  0.00  0.00    +0.000 N 
ATOM     11  C   UNL     1       4.990   4.358  17.674  0.00  0.00    +0.000 C 
ATOM     12  O   UNL     1       6.106   4.811  17.437  0.00  0.00    +0.000 OA
ATOM     13  C   UNL     1       3.798   5.205  17.946  0.00  0.00    +0.000 C 
ATOM     14  C   UNL     1       3.991   6.534  18.075  0.00  0.00    +0.000 C 
ATOM     15  C   UNL     1       2.475   4.546  18.095  0.00  0.00    +0.000 C 
ATOM     16  O   UNL     1       1.402   5.136  18.121  0.00  0.00    +0.000 OA
ATOM     17  N   UNL     1       2.510   3.182  18.170  0.00  0.00    +0.000 N 
ATOM     18  H   UNL     1       5.568   2.412  17.545  0.00  0.00    +0.000 HD
ATOM     19  H   UNL     1       1.619   2.717  18.278  0.00  0.00    +0.000 HD
ENDBRANCH   1  14
BRANCH   4  20
ATOM     20  O   UNL     1      -0.088  10.191  19.596  0.00  0.00    +0.000 OA
BRANCH  20  21
ATOM     21  C   UNL     1      -0.587  11.129  18.619  0.00  0.00    +0.000 C 
ATOM     22  C   UNL     1      -0.863  12.497  19.250  0.00  0.00    +0.000 C 
ATOM     23  C   UNL     1      -2.199  12.602  19.982  0.00  0.00    +0.000 C 
ATOM     24  N   UNL     1      -3.324  12.110  19.145  0.00  0.00    +0.000 N 
ATOM     25  C   UNL     1      -3.117  10.687  18.809  0.00  0.00    +0.000 C 
ATOM     26  C   UNL     1      -1.851  10.566  17.948  0.00  0.00    +0.000 C 
BRANCH  24  27
ATOM     27  C   UNL     1      -4.568  12.422  19.735  0.00  0.00    +0.000 A 
ATOM     28  N   UNL     1      -4.534  12.840  21.035  0.00  0.00    +0.000 NA
ATOM     29  C   UNL     1      -5.641  13.318  21.641  0.00  0.00    +0.000 A 
ATOM     30  C   UNL     1      -6.860  13.411  21.024  0.00  0.00    +0.000 A 
ATOM     31  C   UNL     1      -6.931  12.957  19.718  0.00  0.00    +0.000 A 
ATOM     32  C   UNL     1      -5.782  12.452  19.047  0.00  0.00    +0.000 A 
BRANCH  32  33
ATOM     33  C   UNL     1      -6.015  12.061  17.616  0.00  0.00    +0.000 C 
ATOM     34  F   UNL     1      -5.166  12.544  16.675  0.00  0.00    +0.000 F 
ATOM     35  F   UNL     1      -5.977  10.698  17.468  0.00  0.00    +0.000 F 
ATOM     36  F   UNL     1      -7.265  12.415  17.188  0.00  0.00    +0.000 F 
ENDBRANCH  32  33
ENDBRANCH  24  27
ENDBRANCH  20  21
ENDBRANCH   4  20
TORSDOF 5
ENDMDL
MODEL 7
REMARK VINA RESULT:      -8.3      1.913      3.011
REMARK  Name = 
REMARK  5 active torsions:
REMARK  status: ('A' for Active; 'I' for Inactive)
REMARK    1  A    between atoms: C_7  and  C_8
REMARK    2  A    between atoms: C_11  and  O_12
REMARK    3  A    between atoms: O_12  and  C_13
REMARK    4  A    between atoms: N_16  and  C_17
REMARK    5  A    between atoms: C_22  and  C_23
REMARK                            x       y       z     vdW  Elec       q    Type
REMARK                         _______ _______ _______ _____ _____    ______ ____
ROOT
ATOM      1  C   UNL     1       2.712   7.618  18.493  0.00  0.00    +0.000 A 
ATOM      2  C   UNL     1       2.064   8.529  17.647  0.00  0.00    +0.000 A 
ATOM      3  C   UNL     1       1.022   9.343  18.126  0.00  0.00    +0.000 A 
ATOM      4  C   UNL     1       0.603   9.261  19.458  0.00  0.00    +0.000 A 
ATOM      5  C   UNL     1       1.284   8.381  20.303  0.00  0.00    +0.000 A 
ATOM      6  F   UNL     1       0.932   8.277  21.593  0.00  0.00    +0.000 F 
ATOM      7  C   UNL     1       2.324   7.568  19.838  0.00  0.00    +0.000 A 
ENDROOT
BRANCH   1  14
ATOM      8  O   UNL     1       3.687   1.332  17.857  0.00  0.00    +0.000 OA
ATOM      9  C   UNL     1       3.682   2.558  17.863  0.00  0.00    +0.000 C 
ATOM     10  N   UNL     1       4.777   3.279  17.503  0.00  0.00    +0.000 N 
ATOM     11  C   UNL     1       4.881   4.642  17.453  0.00  0.00    +0.000 C 
ATOM     12  O   UNL     1       5.923   5.185  17.099  0.00  0.00    +0.000 OA
ATOM     13  C   UNL     1       3.662   5.388  17.867  0.00  0.00    +0.000 C 
ATOM     14  C   UNL     1       3.760   6.728  17.990  0.00  0.00    +0.000 C 
ATOM     15  C   UNL     1       2.422   4.623  18.155  0.00  0.00    +0.000 C 
ATOM     16  O   UNL     1       1.315   5.124  18.307  0.00  0.00    +0.000 OA
ATOM     17  N   UNL     1       2.574   3.266  18.209  0.00  0.00    +0.000 N 
ATOM     18  H   UNL     1       5.595   2.749  17.237  0.00  0.00    +0.000 HD
ATOM     19  H   UNL     1       1.741   2.729  18.410  0.00  0.00    +0.000 HD
ENDBRANCH   1  14
BRANCH   4  20
ATOM     20  O   UNL     1      -0.400  10.036  20.005  0.00  0.00    +0.000 OA
BRANCH  20  21
ATOM     21  C   UNL     1      -0.008  11.330  20.509  0.00  0.00    +0.000 C 
ATOM     22  C   UNL     1      -0.201  11.420  22.026  0.00  0.00    +0.000 C 
ATOM     23  C   UNL     1      -1.631  11.720  22.469  0.00  0.00    +0.000 C 
ATOM     24  N   UNL     1      -2.199  12.884  21.740  0.00  0.00    +0.000 N 
ATOM     25  C   UNL     1      -2.237  12.602  20.291  0.00  0.00    +0.000 C 
ATOM     26  C   UNL     1      -0.796  12.436  19.786  0.00  0.00    +0.000 C 
BRANCH  24  27
ATOM     27  C   UNL     1      -3.422  13.292  22.315  0.00  0.00    +0.000 A 
ATOM     28  N   UNL     1      -4.531  12.588  21.943  0.00  0.00    +0.000 NA
ATOM     29  C   UNL     1      -5.718  12.786  22.553  0.00  0.00    +0.000 A 
ATOM     30  C   UNL     1      -5.908  13.695  23.560  0.00  0.00    +0.000 A 
ATOM     31  C   UNL     1      -4.809  14.451  23.929  0.00  0.00    +0.000 A 
ATOM     32  C   UNL     1      -3.540  14.263  23.310  0.00  0.00    +0.000 A 
BRANCH  32  33
ATOM     33  C   UNL     1      -2.440  15.117  23.870  0.00  0.00    +0.000 C 
ATOM     34  F   UNL     1      -1.733  15.894  23.011  0.00  0.00    +0.000 F 
ATOM     35  F   UNL     1      -2.925  15.982  24.818  0.00  0.00    +0.000 F 
ATOM     36  F   UNL     1      -1.505  14.374  24.536  0.00  0.00    +0.000 F 
ENDBRANCH  32  33
ENDBRANCH  24  27
ENDBRANCH  20  21
ENDBRANCH   4  20
TORSDOF 5
ENDMDL
MODEL 8
REMARK VINA RESULT:      -8.3      1.309      1.656
REMARK  Name = 
REMARK  5 active torsions:
REMARK  status: ('A' for Active; 'I' for Inactive)
REMARK    1  A    between atoms: C_7  and  C_8
REMARK    2  A    between atoms: C_11  and  O_12
REMARK    3  A    between atoms: O_12  and  C_13
REMARK    4  A    between atoms: N_16  and  C_17
REMARK    5  A    between atoms: C_22  and  C_23
REMARK                            x       y       z     vdW  Elec       q    Type
REMARK                         _______ _______ _______ _____ _____    ______ ____
ROOT
ATOM      1  C   UNL     1       2.879   6.532  18.376  0.00  0.00    +0.000 A 
ATOM      2  C   UNL     1       2.403   6.089  19.619  0.00  0.00    +0.000 A 
ATOM      3  C   UNL     1       1.824   6.987  20.532  0.00  0.00    +0.000 A 
ATOM      4  C   UNL     1       1.712   8.348  20.225  0.00  0.00    +0.000 A 
ATOM      5  C   UNL     1       2.151   8.772  18.968  0.00  0.00    +0.000 A 
ATOM      6  F   UNL     1       2.052  10.063  18.619  0.00  0.00    +0.000 F 
ATOM      7  C   UNL     1       2.727   7.885  18.050  0.00  0.00    +0.000 A 
ENDROOT
BRANCH   1  14
ATOM      8  O   UNL     1       8.680   3.990  17.511  0.00  0.00    +0.000 OA
ATOM      9  C   UNL     1       7.505   4.340  17.521  0.00  0.00    +0.000 C 
ATOM     10  N   UNL     1       6.649   3.999  16.522  0.00  0.00    +0.000 N 
ATOM     11  C   UNL     1       5.322   4.315  16.437  0.00  0.00    +0.000 C 
ATOM     12  O   UNL     1       4.641   3.939  15.488  0.00  0.00    +0.000 OA
ATOM     13  C   UNL     1       4.792   5.140  17.556  0.00  0.00    +0.000 C 
ATOM     14  C   UNL     1       3.533   5.613  17.442  0.00  0.00    +0.000 C 
ATOM     15  C   UNL     1       5.679   5.428  18.711  0.00  0.00    +0.000 C 
ATOM     16  O   UNL     1       5.306   5.919  19.770  0.00  0.00    +0.000 OA
ATOM     17  N   UNL     1       6.987   5.071  18.543  0.00  0.00    +0.000 N 
ATOM     18  H   UNL     1       7.037   3.448  15.768  0.00  0.00    +0.000 HD
ATOM     19  H   UNL     1       7.608   5.266  19.318  0.00  0.00    +0.000 HD
ENDBRANCH   1  14
BRANCH   4  20
ATOM     20  O   UNL     1       1.143   9.288  21.061  0.00  0.00    +0.000 OA
BRANCH  20  21
ATOM     21  C   UNL     1      -0.295   9.397  21.018  0.00  0.00    +0.000 C 
ATOM     22  C   UNL     1      -0.737  10.639  20.238  0.00  0.00    +0.000 C 
ATOM     23  C   UNL     1      -0.697  11.940  21.038  0.00  0.00    +0.000 C 
ATOM     24  N   UNL     1      -1.385  11.800  22.348  0.00  0.00    +0.000 N 
ATOM     25  C   UNL     1      -0.716  10.764  23.160  0.00  0.00    +0.000 C 
ATOM     26  C   UNL     1      -0.864   9.412  22.448  0.00  0.00    +0.000 C 
BRANCH  24  27
ATOM     27  C   UNL     1      -1.542  13.056  22.972  0.00  0.00    +0.000 A 
ATOM     28  N   UNL     1      -0.486  13.917  22.880  0.00  0.00    +0.000 NA
ATOM     29  C   UNL     1      -0.591  15.196  23.296  0.00  0.00    +0.000 A 
ATOM     30  C   UNL     1      -1.732  15.721  23.843  0.00  0.00    +0.000 A 
ATOM     31  C   UNL     1      -2.806  14.860  23.985  0.00  0.00    +0.000 A 
ATOM     32  C   UNL     1      -2.730  13.506  23.551  0.00  0.00    +0.000 A 
BRANCH  32  33
ATOM     33  C   UNL     1      -4.002  12.724  23.719  0.00  0.00    +0.000 C 
ATOM     34  F   UNL     1      -3.943  11.542  24.381  0.00  0.00    +0.000 F 
ATOM     35  F   UNL     1      -4.946  13.463  24.385  0.00  0.00    +0.000 F 
ATOM     36  F   UNL     1      -4.584  12.434  22.516  0.00  0.00    +0.000 F 
ENDBRANCH  32  33
ENDBRANCH  24  27
ENDBRANCH  20  21
ENDBRANCH   4  20
TORSDOF 5
ENDMDL
MODEL 9
REMARK VINA RESULT:      -8.3      3.691     11.505
REMARK  Name = 
REMARK  5 active torsions:
REMARK  status: ('A' for Active; 'I' for Inactive)
REMARK    1  A    between atoms: C_7  and  C_8
REMARK    2  A    between atoms: C_11  and  O_12
REMARK    3  A    between atoms: O_12  and  C_13
REMARK    4  A    between atoms: N_16  and  C_17
REMARK    5  A    between atoms: C_22  and  C_23
REMARK                            x       y       z     vdW  Elec       q    Type
REMARK                         _______ _______ _______ _____ _____    ______ ____
ROOT
ATOM      1  C   UNL     1      -1.215  12.351  22.685  0.00  0.00    +0.000 A 
ATOM      2  C   UNL     1      -1.070  10.992  23.001  0.00  0.00    +0.000 A 
ATOM      3  C   UNL     1      -0.654  10.066  22.028  0.00  0.00    +0.000 A 
ATOM      4  C   UNL     1      -0.379  10.476  20.719  0.00  0.00    +0.000 A 
ATOM      5  C   UNL     1      -0.486  11.838  20.426  0.00  0.00    +0.000 A 
ATOM      6  F   UNL     1      -0.219  12.284  19.190  0.00  0.00    +0.000 F 
ATOM      7  C   UNL     1      -0.897  12.769  21.387  0.00  0.00    +0.000 A 
ENDROOT
BRANCH   1  14
ATOM      8  O   UNL     1      -6.602  15.557  23.935  0.00  0.00    +0.000 OA
ATOM      9  C   UNL     1      -5.502  15.019  23.886  0.00  0.00    +0.000 C 
ATOM     10  N   UNL     1      -4.493  15.379  24.724  0.00  0.00    +0.000 N 
ATOM     11  C   UNL     1      -3.238  14.838  24.773  0.00  0.00    +0.000 C 
ATOM     12  O   UNL     1      -2.409  15.238  25.585  0.00  0.00    +0.000 OA
ATOM     13  C   UNL     1      -2.967  13.766  23.778  0.00  0.00    +0.000 C 
ATOM     14  C   UNL     1      -1.701  13.313  23.677  0.00  0.00    +0.000 C 
ATOM     15  C   UNL     1      -4.086  13.281  22.931  0.00  0.00    +0.000 C 
ATOM     16  O   UNL     1      -4.043  12.281  22.226  0.00  0.00    +0.000 OA
ATOM     17  N   UNL     1      -5.235  14.018  23.006  0.00  0.00    +0.000 N 
ATOM     18  H   UNL     1      -4.700  16.117  25.382  0.00  0.00    +0.000 HD
ATOM     19  H   UNL     1      -6.006  13.706  22.432  0.00  0.00    +0.000 HD
ENDBRANCH   1  14
BRANCH   4  20
ATOM     20  O   UNL     1       0.047   9.630  19.714  0.00  0.00    +0.000 OA
BRANCH  20  21
ATOM     21  C   UNL     1       1.471   9.570  19.489  0.00  0.00    +0.000 C 
ATOM     22  C   UNL     1       1.791   9.165  18.047  0.00  0.00    +0.000 C 
ATOM     23  C   UNL     1       1.721   7.664  17.777  0.00  0.00    +0.000 C 
ATOM     24  N   UNL     1       2.491   6.888  18.783  0.00  0.00    +0.000 N 
ATOM     25  C   UNL     1       1.934   7.120  20.132  0.00  0.00    +0.000 C 
ATOM     26  C   UNL     1       2.121   8.601  20.491  0.00  0.00    +0.000 C 
BRANCH  24  27
ATOM     27  C   UNL     1       2.609   5.536  18.397  0.00  0.00    +0.000 A 
ATOM     28  N   UNL     1       1.585   4.709  18.760  0.00  0.00    +0.000 NA
ATOM     29  C   UNL     1       1.518   3.441  18.304  0.00  0.00    +0.000 A 
ATOM     30  C   UNL     1       2.452   2.888  17.468  0.00  0.00    +0.000 A 
ATOM     31  C   UNL     1       3.522   3.692  17.116  0.00  0.00    +0.000 A 
ATOM     32  C   UNL     1       3.621   5.036  17.575  0.00  0.00    +0.000 A 
BRANCH  32  33
ATOM     33  C   UNL     1       4.808   5.790  17.049  0.00  0.00    +0.000 C 
ATOM     34  F   UNL     1       5.771   5.093  16.396  0.00  0.00    +0.000 F 
ATOM     35  F   UNL     1       4.417   6.769  16.172  0.00  0.00    +0.000 F 
ATOM     36  F   UNL     1       5.464   6.466  18.042  0.00  0.00    +0.000 F 
ENDBRANCH  32  33
ENDBRANCH  24  27
ENDBRANCH  20  21
ENDBRANCH   4  20
TORSDOF 5
ENDMDL
