MODEL 1
REMARK VINA RESULT:      -6.7      0.000      0.000
REMARK  Name = 
REMARK  3 active torsions:
REMARK  status: ('A' for Active; 'I' for Inactive)
REMARK    1  A    between atoms: C_1  and  C_2
REMARK    2  A    between atoms: C_7  and  C_8
REMARK    3  A    between atoms: C_9  and  N_10
REMARK                            x       y       z     vdW  Elec       q    Type
REMARK                         _______ _______ _______ _____ _____    ______ ____
ROOT
ATOM      1  C   UNL     1       5.309   3.700  15.919  0.00  0.00    +0.000 C 
ATOM      2  C   UNL     1       4.212   4.185  16.832  0.00  0.00    +0.000 A 
ATOM      3  C   UNL     1       3.253   3.263  17.285  0.00  0.00    +0.000 A 
ATOM      4  C   UNL     1       2.208   3.672  18.104  0.00  0.00    +0.000 A 
ATOM      5 BR   UNL     1       0.942   2.398  18.752  0.00  0.00    +0.000 Br
ATOM      6  C   UNL     1       2.069   5.013  18.443  0.00  0.00    +0.000 A 
ATOM      7  C   UNL     1       3.001   5.968  18.006  0.00  0.00    +0.000 A 
ATOM      8  C   UNL     1       2.710   7.423  18.335  0.00  0.00    +0.000 C 
ATOM      9  C   UNL     1       4.123   5.545  17.226  0.00  0.00    +0.000 A 
ENDROOT
BRANCH   9  10
ATOM     10  N   UNL     1       5.107   6.474  16.764  0.00  0.00    +0.000 NA
ATOM     11  C   UNL     1       6.265   6.662  17.320  0.00  0.00    +0.000 C 
ATOM     12  N   UNL     1       7.106   7.723  16.993  0.00  0.00    +0.000 N 
ATOM     13  C   UNL     1       8.147   7.812  17.991  0.00  0.00    +0.000 C 
ATOM     14  C   UNL     1       7.963   6.559  18.885  0.00  0.00    +0.000 C 
ATOM     15  N   UNL     1       6.785   5.902  18.372  0.00  0.00    +0.000 N 
ATOM     16  H   UNL     1       6.937   8.415  16.248  0.00  0.00    +0.000 HD
ATOM     17  H   UNL     1       6.391   5.028  18.754  0.00  0.00    +0.000 HD
ENDBRANCH   9  10
TORSDOF 1
ENDMDL
MODEL 2
REMARK VINA RESULT:      -6.5      0.158      2.265
REMARK  Name = 
REMARK  3 active torsions:
REMARK  status: ('A' for Active; 'I' for Inactive)
REMARK    1  A    between atoms: C_1  and  C_2
REMARK    2  A    between atoms: C_7  and  C_8
REMARK    3  A    between atoms: C_9  and  N_10
REMARK                            x       y       z     vdW  Elec       q    Type
REMARK                         _______ _______ _______ _____ _____    ______ ____
ROOT
ATOM      1  C   UNL     1       2.909   7.386  18.517  0.00  0.00    +0.000 C 
ATOM      2  C   UNL     1       3.055   5.958  18.058  0.00  0.00    +0.000 A 
ATOM      3  C   UNL     1       2.138   5.001  18.523  0.00  0.00    +0.000 A 
ATOM      4  C   UNL     1       2.251   3.668  18.149  0.00  0.00    +0.000 A 
ATOM      5 BR   UNL     1       0.967   2.390  18.750  0.00  0.00    +0.000 Br
ATOM      6  C   UNL     1       3.311   3.255  17.349  0.00  0.00    +0.000 A 
ATOM      7  C   UNL     1       4.254   4.176  16.869  0.00  0.00    +0.000 A 
ATOM      8  C   UNL     1       5.435   3.620  16.091  0.00  0.00    +0.000 C 
ATOM      9  C   UNL     1       4.101   5.563  17.185  0.00  0.00    +0.000 A 
ENDROOT
BRANCH   9  10
ATOM     10  N   UNL     1       5.027   6.546  16.713  0.00  0.00    +0.000 NA
ATOM     11  C   UNL     1       6.194   6.773  17.234  0.00  0.00    +0.000 C 
ATOM     12  N   UNL     1       6.976   7.877  16.906  0.00  0.00    +0.000 N 
ATOM     13  C   UNL     1       8.047   7.988  17.870  0.00  0.00    +0.000 C 
ATOM     14  C   UNL     1       7.949   6.707  18.737  0.00  0.00    +0.000 C 
ATOM     15  N   UNL     1       6.784   6.011  18.248  0.00  0.00    +0.000 N 
ATOM     16  H   UNL     1       6.751   8.579  16.186  0.00  0.00    +0.000 HD
ATOM     17  H   UNL     1       6.442   5.111  18.620  0.00  0.00    +0.000 HD
ENDBRANCH   9  10
TORSDOF 1
ENDMDL
MODEL 3
REMARK VINA RESULT:      -6.3      3.436      5.406
REMARK  Name = 
REMARK  3 active torsions:
REMARK  status: ('A' for Active; 'I' for Inactive)
REMARK    1  A    between atoms: C_1  and  C_2
REMARK    2  A    between atoms: C_7  and  C_8
REMARK    3  A    between atoms: C_9  and  N_10
REMARK                            x       y       z     vdW  Elec       q    Type
REMARK                         _______ _______ _______ _____ _____    ______ ____
ROOT
ATOM      1  C   UNL     1       3.051   7.243  18.027  0.00  0.00    +0.000 C 
ATOM      2  C   UNL     1       3.663   5.971  17.498  0.00  0.00    +0.000 A 
ATOM      3  C   UNL     1       4.781   6.060  16.651  0.00  0.00    +0.000 A 
ATOM      4  C   UNL     1       5.360   4.916  16.118  0.00  0.00    +0.000 A 
ATOM      5 BR   UNL     1       6.909   5.051  15.010  0.00  0.00    +0.000 Br
ATOM      6  C   UNL     1       4.804   3.667  16.373  0.00  0.00    +0.000 A 
ATOM      7  C   UNL     1       3.682   3.534  17.206  0.00  0.00    +0.000 A 
ATOM      8  C   UNL     1       3.080   2.145  17.342  0.00  0.00    +0.000 C 
ATOM      9  C   UNL     1       3.126   4.699  17.823  0.00  0.00    +0.000 A 
ENDROOT
BRANCH   9  10
ATOM     10  N   UNL     1       1.991   4.619  18.689  0.00  0.00    +0.000 NA
ATOM     11  C   UNL     1       1.982   4.023  19.842  0.00  0.00    +0.000 C 
ATOM     12  N   UNL     1       0.815   3.763  20.558  0.00  0.00    +0.000 N 
ATOM     13  C   UNL     1       1.125   2.836  21.623  0.00  0.00    +0.000 C 
ATOM     14  C   UNL     1       2.668   2.691  21.603  0.00  0.00    +0.000 C 
ATOM     15  N   UNL     1       3.104   3.483  20.478  0.00  0.00    +0.000 N 
ATOM     16  H   UNL     1      -0.133   4.064  20.290  0.00  0.00    +0.000 HD
ATOM     17  H   UNL     1       4.089   3.596  20.190  0.00  0.00    +0.000 HD
ENDBRANCH   9  10
TORSDOF 1
ENDMDL
MODEL 4
REMARK VINA RESULT:      -6.2      3.193      5.057
REMARK  Name = 
REMARK  3 active torsions:
REMARK  status: ('A' for Active; 'I' for Inactive)
REMARK    1  A    between atoms: C_1  and  C_2
REMARK    2  A    between atoms: C_7  and  C_8
REMARK    3  A    between atoms: C_9  and  N_10
REMARK                            x       y       z     vdW  Elec       q    Type
REMARK                         _______ _______ _______ _____ _____    ______ ____
ROOT
ATOM      1  C   UNL     1       2.141   5.386  20.851  0.00  0.00    +0.000 C 
ATOM      2  C   UNL     1       2.525   6.329  19.740  0.00  0.00    +0.000 A 
ATOM      3  C   UNL     1       1.809   7.530  19.595  0.00  0.00    +0.000 A 
ATOM      4  C   UNL     1       2.109   8.415  18.568  0.00  0.00    +0.000 A 
ATOM      5 BR   UNL     1       1.160  10.065  18.415  0.00  0.00    +0.000 Br
ATOM      6  C   UNL     1       3.090   8.097  17.635  0.00  0.00    +0.000 A 
ATOM      7  C   UNL     1       3.824   6.905  17.738  0.00  0.00    +0.000 A 
ATOM      8  C   UNL     1       4.800   6.592  16.616  0.00  0.00    +0.000 C 
ATOM      9  C   UNL     1       3.576   6.024  18.837  0.00  0.00    +0.000 A 
ENDROOT
BRANCH   9  10
ATOM     10  N   UNL     1       4.302   4.802  18.996  0.00  0.00    +0.000 NA
ATOM     11  C   UNL     1       3.907   3.646  18.557  0.00  0.00    +0.000 C 
ATOM     12  N   UNL     1       4.513   2.444  18.919  0.00  0.00    +0.000 N 
ATOM     13  C   UNL     1       3.657   1.354  18.509  0.00  0.00    +0.000 C 
ATOM     14  C   UNL     1       2.525   2.014  17.679  0.00  0.00    +0.000 C 
ATOM     15  N   UNL     1       2.786   3.431  17.750  0.00  0.00    +0.000 N 
ATOM     16  H   UNL     1       5.356   2.350  19.504  0.00  0.00    +0.000 HD
ATOM     17  H   UNL     1       2.207   4.155  17.295  0.00  0.00    +0.000 HD
ENDBRANCH   9  10
TORSDOF 1
ENDMDL
MODEL 5
REMARK VINA RESULT:      -6.2      3.466      5.049
REMARK  Name = 
REMARK  3 active torsions:
REMARK  status: ('A' for Active; 'I' for Inactive)
REMARK    1  A    between atoms: C_1  and  C_2
REMARK    2  A    between atoms: C_7  and  C_8
REMARK    3  A    between atoms: C_9  and  N_10
REMARK                            x       y       z     vdW  Elec       q    Type
REMARK                         _______ _______ _______ _____ _____    ______ ____
ROOT
ATOM      1  C   UNL     1       3.164   2.075  17.447  0.00  0.00    +0.000 C 
ATOM      2  C   UNL     1       3.661   3.472  17.182  0.00  0.00    +0.000 A 
ATOM      3  C   UNL     1       4.804   3.642  16.383  0.00  0.00    +0.000 A 
ATOM      4  C   UNL     1       5.315   4.910  16.136  0.00  0.00    +0.000 A 
ATOM      5 BR   UNL     1       6.839   5.128  15.006  0.00  0.00    +0.000 Br
ATOM      6  C   UNL     1       4.730   6.026  16.724  0.00  0.00    +0.000 A 
ATOM      7  C   UNL     1       3.592   5.900  17.535  0.00  0.00    +0.000 A 
ATOM      8  C   UNL     1       3.085   7.159  18.220  0.00  0.00    +0.000 C 
ATOM      9  C   UNL     1       3.012   4.607  17.732  0.00  0.00    +0.000 A 
ENDROOT
BRANCH   9  10
ATOM     10  N   UNL     1       1.847   4.424  18.541  0.00  0.00    +0.000 NA
ATOM     11  C   UNL     1       1.851   3.936  19.744  0.00  0.00    +0.000 C 
ATOM     12  N   UNL     1       0.693   3.557  20.419  0.00  0.00    +0.000 N 
ATOM     13  C   UNL     1       1.069   2.787  21.583  0.00  0.00    +0.000 C 
ATOM     14  C   UNL     1       2.614   2.887  21.657  0.00  0.00    +0.000 C 
ATOM     15  N   UNL     1       2.998   3.638  20.487  0.00  0.00    +0.000 N 
ATOM     16  H   UNL     1      -0.270   3.680  20.074  0.00  0.00    +0.000 HD
ATOM     17  H   UNL     1       3.971   3.880  20.241  0.00  0.00    +0.000 HD
ENDBRANCH   9  10
TORSDOF 1
ENDMDL
MODEL 6
REMARK VINA RESULT:      -6.1      2.673      3.487
REMARK  Name = 
REMARK  3 active torsions:
REMARK  status: ('A' for Active; 'I' for Inactive)
REMARK    1  A    between atoms: C_1  and  C_2
REMARK    2  A    between atoms: C_7  and  C_8
REMARK    3  A    between atoms: C_9  and  N_10
REMARK                            x       y       z     vdW  Elec       q    Type
REMARK                         _______ _______ _______ _____ _____    ______ ____
ROOT
ATOM      1  C   UNL     1       2.680   3.670  20.518  0.00  0.00    +0.000 C 
ATOM      2  C   UNL     1       2.565   5.112  20.092  0.00  0.00    +0.000 A 
ATOM      3  C   UNL     1       1.711   5.963  20.815  0.00  0.00    +0.000 A 
ATOM      4  C   UNL     1       1.552   7.291  20.441  0.00  0.00    +0.000 A 
ATOM      5 BR   UNL     1       0.428   8.447  21.464  0.00  0.00    +0.000 Br
ATOM      6  C   UNL     1       2.197   7.781  19.311  0.00  0.00    +0.000 A 
ATOM      7  C   UNL     1       3.052   6.963  18.557  0.00  0.00    +0.000 A 
ATOM      8  C   UNL     1       3.628   7.553  17.280  0.00  0.00    +0.000 C 
ATOM      9  C   UNL     1       3.283   5.616  18.978  0.00  0.00    +0.000 A 
ENDROOT
BRANCH   9  10
ATOM     10  N   UNL     1       4.153   4.743  18.253  0.00  0.00    +0.000 NA
ATOM     11  C   UNL     1       5.449   4.762  18.325  0.00  0.00    +0.000 C 
ATOM     12  N   UNL     1       6.274   4.064  17.447  0.00  0.00    +0.000 N 
ATOM     13  C   UNL     1       7.629   4.538  17.611  0.00  0.00    +0.000 C 
ATOM     14  C   UNL     1       7.583   5.491  18.833  0.00  0.00    +0.000 C 
ATOM     15  N   UNL     1       6.193   5.543  19.216  0.00  0.00    +0.000 N 
ATOM     16  H   UNL     1       5.955   3.422  16.707  0.00  0.00    +0.000 HD
ATOM     17  H   UNL     1       5.825   6.096  20.005  0.00  0.00    +0.000 HD
ENDBRANCH   9  10
TORSDOF 1
ENDMDL
MODEL 7
REMARK VINA RESULT:      -6.1      3.128      4.821
REMARK  Name = 
REMARK  3 active torsions:
REMARK  status: ('A' for Active; 'I' for Inactive)
REMARK    1  A    between atoms: C_1  and  C_2
REMARK    2  A    between atoms: C_7  and  C_8
REMARK    3  A    between atoms: C_9  and  N_10
REMARK                            x       y       z     vdW  Elec       q    Type
REMARK                         _______ _______ _______ _____ _____    ______ ____
ROOT
ATOM      1  C   UNL     1       4.914   6.735  16.760  0.00  0.00    +0.000 C 
ATOM      2  C   UNL     1       3.796   6.972  17.742  0.00  0.00    +0.000 A 
ATOM      3  C   UNL     1       3.046   8.156  17.638  0.00  0.00    +0.000 A 
ATOM      4  C   UNL     1       2.024   8.430  18.539  0.00  0.00    +0.000 A 
ATOM      5 BR   UNL     1       0.983  10.019  18.354  0.00  0.00    +0.000 Br
ATOM      6  C   UNL     1       1.767   7.557  19.590  0.00  0.00    +0.000 A 
ATOM      7  C   UNL     1       2.497   6.367  19.735  0.00  0.00    +0.000 A 
ATOM      8  C   UNL     1       2.219   5.528  20.971  0.00  0.00    +0.000 C 
ATOM      9  C   UNL     1       3.498   6.038  18.767  0.00  0.00    +0.000 A 
ENDROOT
BRANCH   9  10
ATOM     10  N   UNL     1       4.264   4.834  18.861  0.00  0.00    +0.000 NA
ATOM     11  C   UNL     1       3.854   3.666  18.473  0.00  0.00    +0.000 C 
ATOM     12  N   UNL     1       4.520   2.481  18.780  0.00  0.00    +0.000 N 
ATOM     13  C   UNL     1       3.652   1.369  18.467  0.00  0.00    +0.000 C 
ATOM     14  C   UNL     1       2.428   1.995  17.751  0.00  0.00    +0.000 C 
ATOM     15  N   UNL     1       2.661   3.419  17.785  0.00  0.00    +0.000 N 
ATOM     16  H   UNL     1       5.419   2.411  19.278  0.00  0.00    +0.000 HD
ATOM     17  H   UNL     1       2.024   4.125  17.386  0.00  0.00    +0.000 HD
ENDBRANCH   9  10
TORSDOF 1
ENDMDL
MODEL 8
REMARK VINA RESULT:      -6.0      1.484      1.611
REMARK  Name = 
REMARK  3 active torsions:
REMARK  status: ('A' for Active; 'I' for Inactive)
REMARK    1  A    between atoms: C_1  and  C_2
REMARK    2  A    between atoms: C_7  and  C_8
REMARK    3  A    between atoms: C_9  and  N_10
REMARK                            x       y       z     vdW  Elec       q    Type
REMARK                         _______ _______ _______ _____ _____    ______ ____
ROOT
ATOM      1  C   UNL     1       4.394   3.105  17.328  0.00  0.00    +0.000 C 
ATOM      2  C   UNL     1       3.637   3.817  18.420  0.00  0.00    +0.000 A 
ATOM      3  C   UNL     1       2.942   3.051  19.371  0.00  0.00    +0.000 A 
ATOM      4  C   UNL     1       2.208   3.665  20.377  0.00  0.00    +0.000 A 
ATOM      5 BR   UNL     1       1.311   2.610  21.692  0.00  0.00    +0.000 Br
ATOM      6  C   UNL     1       2.106   5.051  20.422  0.00  0.00    +0.000 A 
ATOM      7  C   UNL     1       2.778   5.854  19.486  0.00  0.00    +0.000 A 
ATOM      8  C   UNL     1       2.524   7.351  19.548  0.00  0.00    +0.000 C 
ATOM      9  C   UNL     1       3.600   5.233  18.494  0.00  0.00    +0.000 A 
ENDROOT
BRANCH   9  10
ATOM     10  N   UNL     1       4.314   6.004  17.523  0.00  0.00    +0.000 NA
ATOM     11  C   UNL     1       5.577   6.294  17.594  0.00  0.00    +0.000 C 
ATOM     12  N   UNL     1       6.194   7.228  16.764  0.00  0.00    +0.000 N 
ATOM     13  C   UNL     1       7.502   7.528  17.301  0.00  0.00    +0.000 C 
ATOM     14  C   UNL     1       7.705   6.528  18.468  0.00  0.00    +0.000 C 
ATOM     15  N   UNL     1       6.465   5.794  18.551  0.00  0.00    +0.000 N 
ATOM     16  H   UNL     1       5.743   7.727  15.984  0.00  0.00    +0.000 HD
ATOM     17  H   UNL     1       6.276   5.044  19.235  0.00  0.00    +0.000 HD
ENDBRANCH   9  10
TORSDOF 1
ENDMDL
MODEL 9
REMARK VINA RESULT:      -5.8      2.619      3.611
REMARK  Name = 
REMARK  3 active torsions:
REMARK  status: ('A' for Active; 'I' for Inactive)
REMARK    1  A    between atoms: C_1  and  C_2
REMARK    2  A    between atoms: C_7  and  C_8
REMARK    3  A    between atoms: C_9  and  N_10
REMARK                            x       y       z     vdW  Elec       q    Type
REMARK                         _______ _______ _______ _____ _____    ______ ____
ROOT
ATOM      1  C   UNL     1       3.687   7.534  17.294  0.00  0.00    +0.000 C 
ATOM      2  C   UNL     1       2.988   6.961  18.500  0.00  0.00    +0.000 A 
ATOM      3  C   UNL     1       2.167   7.804  19.269  0.00  0.00    +0.000 A 
ATOM      4  C   UNL     1       1.526   7.326  20.405  0.00  0.00    +0.000 A 
ATOM      5 BR   UNL     1       0.374   8.471  21.409  0.00  0.00    +0.000 Br
ATOM      6  C   UNL     1       1.733   6.017  20.826  0.00  0.00    +0.000 A 
ATOM      7  C   UNL     1       2.551   5.145  20.092  0.00  0.00    +0.000 A 
ATOM      8  C   UNL     1       2.804   3.768  20.684  0.00  0.00    +0.000 C 
ATOM      9  C   UNL     1       3.153   5.604  18.878  0.00  0.00    +0.000 A 
ENDROOT
BRANCH   9  10
ATOM     10  N   UNL     1       3.987   4.754  18.086  0.00  0.00    +0.000 NA
ATOM     11  C   UNL     1       5.284   4.731  18.142  0.00  0.00    +0.000 C 
ATOM     12  N   UNL     1       6.077   4.066  17.209  0.00  0.00    +0.000 N 
ATOM     13  C   UNL     1       7.447   4.489  17.384  0.00  0.00    +0.000 C 
ATOM     14  C   UNL     1       7.445   5.362  18.665  0.00  0.00    +0.000 C 
ATOM     15  N   UNL     1       6.062   5.430  19.070  0.00  0.00    +0.000 N 
ATOM     16  H   UNL     1       5.730   3.482  16.435  0.00  0.00    +0.000 HD
ATOM     17  H   UNL     1       5.720   5.943  19.898  0.00  0.00    +0.000 HD
ENDBRANCH   9  10
TORSDOF 1
ENDMDL
