MODEL 1
REMARK VINA RESULT:      -8.2      0.000      0.000
REMARK  Name = 
REMARK  4 active torsions:
REMARK  status: ('A' for Active; 'I' for Inactive)
REMARK    1  A    between atoms: C_1  and  C_2
REMARK    2  A    between atoms: C_2  and  N_3
REMARK    3  A    between atoms: N_3  and  C_4
REMARK    4  A    between atoms: C_7  and  C_8
REMARK                            x       y       z     vdW  Elec       q    Type
REMARK                         _______ _______ _______ _____ _____    ______ ____
ROOT
ATOM      1  C   UNL     1       5.058   4.947  18.520  0.00  0.00    +0.000 C 
ATOM      2  O   UNL     1       5.986   4.751  19.332  0.00  0.00    +0.000 OA
ATOM      3  N   UNL     1       3.665   4.770  19.024  0.00  0.00    +0.000 N 
ATOM      4  C   UNL     1       3.716   3.746  20.147  0.00  0.00    +0.000 C 
ATOM      5  C   UNL     1       2.567   2.739  20.182  0.00  0.00    +0.000 C 
ATOM      6  C   UNL     1       1.378   3.208  21.009  0.00  0.00    +0.000 C 
ATOM      7  C   UNL     1       0.798   4.415  20.336  0.00  0.00    +0.000 C 
ATOM      8  C   UNL     1       1.699   5.622  20.446  0.00  0.00    +0.000 A 
ATOM      9  C   UNL     1       1.150   6.603  21.305  0.00  0.00    +0.000 A 
ATOM     10  C   UNL     1       1.179   7.893  20.887  0.00  0.00    +0.000 A 
ATOM     11 CL   UNL     1       0.237   9.072  21.719  0.00  0.00    +0.000 Cl
ATOM     12  C   UNL     1       1.844   8.182  19.700  0.00  0.00    +0.000 A 
ATOM     13  C   UNL     1       2.680   7.214  19.048  0.00  0.00    +0.000 A 
ATOM     14  C   UNL     1       2.715   5.886  19.468  0.00  0.00    +0.000 A 
ENDROOT
BRANCH   1  18
ATOM     15  C   UNL     1       6.244   4.223  14.202  0.00  0.00    +0.000 A 
ATOM     16  C   UNL     1       5.021   4.781  14.592  0.00  0.00    +0.000 A 
ATOM     17  C   UNL     1       4.737   5.102  15.973  0.00  0.00    +0.000 A 
ATOM     18  C   UNL     1       5.634   4.934  17.072  0.00  0.00    +0.000 A 
ATOM     19  C   UNL     1       6.888   4.492  16.661  0.00  0.00    +0.000 A 
ATOM     20 CL   UNL     1       8.244   4.333  17.693  0.00  0.00    +0.000 Cl
ATOM     21  C   UNL     1       7.150   4.117  15.271  0.00  0.00    +0.000 A 
BRANCH  15  22
ATOM     22  N   UNL     1       6.561   3.673  12.974  0.00  0.00    +0.000 N 
ATOM     23  H   UNL     1       7.047   4.332  12.354  0.00  0.00    +0.000 HD
BRANCH  22  25
ATOM     24  C   UNL     1       4.537   3.283  11.509  0.00  0.00    +0.000 C 
ATOM     25  C   UNL     1       5.818   2.728  12.119  0.00  0.00    +0.000 C 
ENDBRANCH  22  25
ENDBRANCH  15  22
ENDBRANCH   1  18
TORSDOF 3
ENDMDL
MODEL 2
REMARK VINA RESULT:      -7.8      4.198      6.977
REMARK  Name = 
REMARK  4 active torsions:
REMARK  status: ('A' for Active; 'I' for Inactive)
REMARK    1  A    between atoms: C_1  and  C_2
REMARK    2  A    between atoms: C_2  and  N_3
REMARK    3  A    between atoms: N_3  and  C_4
REMARK    4  A    between atoms: C_7  and  C_8
REMARK                            x       y       z     vdW  Elec       q    Type
REMARK                         _______ _______ _______ _____ _____    ______ ____
ROOT
ATOM      1  C   UNL     1       1.668   9.535  18.339  0.00  0.00    +0.000 C 
ATOM      2  O   UNL     1       2.404  10.105  17.508  0.00  0.00    +0.000 OA
ATOM      3  N   UNL     1       0.648  10.376  19.033  0.00  0.00    +0.000 N 
ATOM      4  C   UNL     1       1.196  11.792  19.096  0.00  0.00    +0.000 C 
ATOM      5  C   UNL     1       0.945  12.547  20.401  0.00  0.00    +0.000 C 
ATOM      6  C   UNL     1      -0.363  13.325  20.406  0.00  0.00    +0.000 C 
ATOM      7  C   UNL     1      -1.486  12.337  20.322  0.00  0.00    +0.000 C 
ATOM      8  C   UNL     1      -1.568  11.675  18.967  0.00  0.00    +0.000 A 
ATOM      9  C   UNL     1      -2.712  12.101  18.250  0.00  0.00    +0.000 A 
ATOM     10  C   UNL     1      -3.451  11.152  17.624  0.00  0.00    +0.000 A 
ATOM     11 CL   UNL     1      -5.018  11.557  17.030  0.00  0.00    +0.000 Cl
ATOM     12  C   UNL     1      -2.979   9.843  17.630  0.00  0.00    +0.000 A 
ATOM     13  C   UNL     1      -1.649   9.523  18.066  0.00  0.00    +0.000 A 
ATOM     14  C   UNL     1      -0.837  10.476  18.676  0.00  0.00    +0.000 A 
ENDROOT
BRANCH   1  18
ATOM     15  C   UNL     1       2.971   5.220  18.844  0.00  0.00    +0.000 A 
ATOM     16  C   UNL     1       3.376   6.038  17.783  0.00  0.00    +0.000 A 
ATOM     17  C   UNL     1       3.030   7.441  17.729  0.00  0.00    +0.000 A 
ATOM     18  C   UNL     1       2.293   8.159  18.719  0.00  0.00    +0.000 A 
ATOM     19  C   UNL     1       1.997   7.370  19.826  0.00  0.00    +0.000 A 
ATOM     20 CL   UNL     1       1.262   7.948  21.259  0.00  0.00    +0.000 Cl
ATOM     21  C   UNL     1       2.301   5.938  19.849  0.00  0.00    +0.000 A 
BRANCH  15  22
ATOM     22  N   UNL     1       3.041   3.841  18.914  0.00  0.00    +0.000 N 
ATOM     23  H   UNL     1       4.005   3.493  18.984  0.00  0.00    +0.000 HD
BRANCH  22  25
ATOM     24  C   UNL     1       0.849   2.583  18.820  0.00  0.00    +0.000 C 
ATOM     25  C   UNL     1       2.242   2.799  18.241  0.00  0.00    +0.000 C 
ENDBRANCH  22  25
ENDBRANCH  15  22
ENDBRANCH   1  18
TORSDOF 3
ENDMDL
MODEL 3
REMARK VINA RESULT:      -7.7      1.306      1.612
REMARK  Name = 
REMARK  4 active torsions:
REMARK  status: ('A' for Active; 'I' for Inactive)
REMARK    1  A    between atoms: C_1  and  C_2
REMARK    2  A    between atoms: C_2  and  N_3
REMARK    3  A    between atoms: N_3  and  C_4
REMARK    4  A    between atoms: C_7  and  C_8
REMARK                            x       y       z     vdW  Elec       q    Type
REMARK                         _______ _______ _______ _____ _____    ______ ____
ROOT
ATOM      1  C   UNL     1       5.140   4.561  18.691  0.00  0.00    +0.000 C 
ATOM      2  O   UNL     1       6.061   4.450  19.527  0.00  0.00    +0.000 OA
ATOM      3  N   UNL     1       3.741   4.484  19.207  0.00  0.00    +0.000 N 
ATOM      4  C   UNL     1       3.765   3.612  20.452  0.00  0.00    +0.000 C 
ATOM      5  C   UNL     1       2.593   2.645  20.610  0.00  0.00    +0.000 C 
ATOM      6  C   UNL     1       1.414   3.244  21.364  0.00  0.00    +0.000 C 
ATOM      7  C   UNL     1       0.864   4.367  20.538  0.00  0.00    +0.000 C 
ATOM      8  C   UNL     1       1.794   5.557  20.497  0.00  0.00    +0.000 A 
ATOM      9  C   UNL     1       1.266   6.653  21.220  0.00  0.00    +0.000 A 
ATOM     10  C   UNL     1       1.327   7.877  20.641  0.00  0.00    +0.000 A 
ATOM     11 CL   UNL     1       0.412   9.175  21.309  0.00  0.00    +0.000 Cl
ATOM     12  C   UNL     1       2.002   7.996  19.429  0.00  0.00    +0.000 A 
ATOM     13  C   UNL     1       2.815   6.933  18.911  0.00  0.00    +0.000 A 
ATOM     14  C   UNL     1       2.818   5.670  19.499  0.00  0.00    +0.000 A 
ENDROOT
BRANCH   1  18
ATOM     15  C   UNL     1       6.878   4.793  14.508  0.00  0.00    +0.000 A 
ATOM     16  C   UNL     1       7.629   4.971  15.676  0.00  0.00    +0.000 A 
ATOM     17  C   UNL     1       7.055   4.770  16.988  0.00  0.00    +0.000 A 
ATOM     18  C   UNL     1       5.718   4.350  17.260  0.00  0.00    +0.000 A 
ATOM     19  C   UNL     1       5.013   4.060  16.095  0.00  0.00    +0.000 A 
ATOM     20 CL   UNL     1       3.441   3.386  16.057  0.00  0.00    +0.000 Cl
ATOM     21  C   UNL     1       5.582   4.319  14.772  0.00  0.00    +0.000 A 
BRANCH  15  22
ATOM     22  N   UNL     1       7.230   5.157  13.222  0.00  0.00    +0.000 N 
ATOM     23  H   UNL     1       6.832   6.061  12.940  0.00  0.00    +0.000 HD
BRANCH  22  25
ATOM     24  C   UNL     1       6.445   3.163  11.879  0.00  0.00    +0.000 C 
ATOM     25  C   UNL     1       7.397   4.347  12.001  0.00  0.00    +0.000 C 
ENDBRANCH  22  25
ENDBRANCH  15  22
ENDBRANCH   1  18
TORSDOF 3
ENDMDL
MODEL 4
REMARK VINA RESULT:      -7.5      5.013      8.049
REMARK  Name = 
REMARK  4 active torsions:
REMARK  status: ('A' for Active; 'I' for Inactive)
REMARK    1  A    between atoms: C_1  and  C_2
REMARK    2  A    between atoms: C_2  and  N_3
REMARK    3  A    between atoms: N_3  and  C_4
REMARK    4  A    between atoms: C_7  and  C_8
REMARK                            x       y       z     vdW  Elec       q    Type
REMARK                         _______ _______ _______ _____ _____    ______ ____
ROOT
ATOM      1  C   UNL     1      -0.050  10.547  19.157  0.00  0.00    +0.000 C 
ATOM      2  O   UNL     1      -0.829  10.319  18.208  0.00  0.00    +0.000 OA
ATOM      3  N   UNL     1      -0.161  11.879  19.821  0.00  0.00    +0.000 N 
ATOM      4  C   UNL     1      -0.670  12.863  18.781  0.00  0.00    +0.000 C 
ATOM      5  C   UNL     1      -0.032  14.251  18.809  0.00  0.00    +0.000 C 
ATOM      6  C   UNL     1      -0.758  15.231  19.720  0.00  0.00    +0.000 C 
ATOM      7  C   UNL     1      -0.630  14.732  21.126  0.00  0.00    +0.000 C 
ATOM      8  C   UNL     1      -1.444  13.482  21.368  0.00  0.00    +0.000 A 
ATOM      9  C   UNL     1      -2.548  13.738  22.216  0.00  0.00    +0.000 A 
ATOM     10  C   UNL     1      -2.787  12.857  23.219  0.00  0.00    +0.000 A 
ATOM     11 CL   UNL     1      -3.890  13.285  24.472  0.00  0.00    +0.000 Cl
ATOM     12  C   UNL     1      -2.008  11.707  23.282  0.00  0.00    +0.000 A 
ATOM     13  C   UNL     1      -1.140  11.324  22.204  0.00  0.00    +0.000 A 
ATOM     14  C   UNL     1      -0.896  12.178  21.131  0.00  0.00    +0.000 A 
ENDROOT
BRANCH   1  18
ATOM     15  C   UNL     1       2.842   7.113  18.515  0.00  0.00    +0.000 A 
ATOM     16  C   UNL     1       2.650   8.152  17.598  0.00  0.00    +0.000 A 
ATOM     17  C   UNL     1       1.806   9.287  17.899  0.00  0.00    +0.000 A 
ATOM     18  C   UNL     1       1.112   9.509  19.128  0.00  0.00    +0.000 A 
ATOM     19  C   UNL     1       1.401   8.533  20.077  0.00  0.00    +0.000 A 
ATOM     20 CL   UNL     1       0.866   8.574  21.701  0.00  0.00    +0.000 Cl
ATOM     21  C   UNL     1       2.212   7.361  19.746  0.00  0.00    +0.000 A 
BRANCH  15  22
ATOM     22  N   UNL     1       3.433   5.885  18.279  0.00  0.00    +0.000 N 
ATOM     23  H   UNL     1       4.026   5.882  17.440  0.00  0.00    +0.000 HD
BRANCH  22  25
ATOM     24  C   UNL     1       1.616   4.213  17.732  0.00  0.00    +0.000 C 
ATOM     25  C   UNL     1       2.919   4.515  18.463  0.00  0.00    +0.000 C 
ENDBRANCH  22  25
ENDBRANCH  15  22
ENDBRANCH   1  18
TORSDOF 3
ENDMDL
MODEL 5
REMARK VINA RESULT:      -7.4      5.501      8.737
REMARK  Name = 
REMARK  4 active torsions:
REMARK  status: ('A' for Active; 'I' for Inactive)
REMARK    1  A    between atoms: C_1  and  C_2
REMARK    2  A    between atoms: C_2  and  N_3
REMARK    3  A    between atoms: N_3  and  C_4
REMARK    4  A    between atoms: C_7  and  C_8
REMARK                            x       y       z     vdW  Elec       q    Type
REMARK                         _______ _______ _______ _____ _____    ______ ____
ROOT
ATOM      1  C   UNL     1      -0.212  10.737  18.850  0.00  0.00    +0.000 C 
ATOM      2  O   UNL     1       0.397  11.825  18.778  0.00  0.00    +0.000 OA
ATOM      3  N   UNL     1      -1.685  10.766  18.617  0.00  0.00    +0.000 N 
ATOM      4  C   UNL     1      -2.184  12.139  19.040  0.00  0.00    +0.000 C 
ATOM      5  C   UNL     1      -3.519  12.164  19.782  0.00  0.00    +0.000 C 
ATOM      6  C   UNL     1      -4.721  12.294  18.857  0.00  0.00    +0.000 C 
ATOM      7  C   UNL     1      -4.785  11.059  18.010  0.00  0.00    +0.000 C 
ATOM      8  C   UNL     1      -3.667  11.000  16.996  0.00  0.00    +0.000 A 
ATOM      9  C   UNL     1      -4.151  11.180  15.679  0.00  0.00    +0.000 A 
ATOM     10  C   UNL     1      -3.690  10.340  14.719  0.00  0.00    +0.000 A 
ATOM     11 CL   UNL     1      -4.484  10.288  13.190  0.00  0.00    +0.000 Cl
ATOM     12  C   UNL     1      -2.693   9.433  15.065  0.00  0.00    +0.000 A 
ATOM     13  C   UNL     1      -1.992   9.523  16.314  0.00  0.00    +0.000 A 
ATOM     14  C   UNL     1      -2.402  10.402  17.314  0.00  0.00    +0.000 A 
ENDROOT
BRANCH   1  18
ATOM     15  C   UNL     1       1.989   7.121  20.480  0.00  0.00    +0.000 A 
ATOM     16  C   UNL     1       2.219   7.668  19.212  0.00  0.00    +0.000 A 
ATOM     17  C   UNL     1       1.579   8.891  18.784  0.00  0.00    +0.000 A 
ATOM     18  C   UNL     1       0.692   9.691  19.569  0.00  0.00    +0.000 A 
ATOM     19  C   UNL     1       0.561   9.206  20.867  0.00  0.00    +0.000 A 
ATOM     20 CL   UNL     1      -0.298  10.001  22.115  0.00  0.00    +0.000 Cl
ATOM     21  C   UNL     1       1.168   7.938  21.275  0.00  0.00    +0.000 A 
BRANCH  15  22
ATOM     22  N   UNL     1       2.355   5.866  20.930  0.00  0.00    +0.000 N 
ATOM     23  H   UNL     1       3.183   5.885  21.537  0.00  0.00    +0.000 HD
BRANCH  22  25
ATOM     24  C   UNL     1       1.170   3.649  20.653  0.00  0.00    +0.000 C 
ATOM     25  C   UNL     1       2.330   4.554  20.256  0.00  0.00    +0.000 C 
ENDBRANCH  22  25
ENDBRANCH  15  22
ENDBRANCH   1  18
TORSDOF 3
ENDMDL
MODEL 6
REMARK VINA RESULT:      -7.3      3.917      6.679
REMARK  Name = 
REMARK  4 active torsions:
REMARK  status: ('A' for Active; 'I' for Inactive)
REMARK    1  A    between atoms: C_1  and  C_2
REMARK    2  A    between atoms: C_2  and  N_3
REMARK    3  A    between atoms: N_3  and  C_4
REMARK    4  A    between atoms: C_7  and  C_8
REMARK                            x       y       z     vdW  Elec       q    Type
REMARK                         _______ _______ _______ _____ _____    ______ ____
ROOT
ATOM      1  C   UNL     1       1.296   9.409  18.794  0.00  0.00    +0.000 C 
ATOM      2  O   UNL     1       0.637   9.397  17.735  0.00  0.00    +0.000 OA
ATOM      3  N   UNL     1       1.313  10.684  19.570  0.00  0.00    +0.000 N 
ATOM      4  C   UNL     1       1.131  11.821  18.577  0.00  0.00    +0.000 C 
ATOM      5  C   UNL     1       1.981  13.066  18.827  0.00  0.00    +0.000 C 
ATOM      6  C   UNL     1       1.304  14.087  19.731  0.00  0.00    +0.000 C 
ATOM      7  C   UNL     1       1.141  13.466  21.085  0.00  0.00    +0.000 C 
ATOM      8  C   UNL     1       0.104  12.368  21.091  0.00  0.00    +0.000 A 
ATOM      9  C   UNL     1      -1.053  12.750  21.810  0.00  0.00    +0.000 A 
ATOM     10  C   UNL     1      -1.579  11.852  22.680  0.00  0.00    +0.000 A 
ATOM     11 CL   UNL     1      -2.765  12.373  23.816  0.00  0.00    +0.000 Cl
ATOM     12  C   UNL     1      -1.019  10.580  22.727  0.00  0.00    +0.000 A 
ATOM     13  C   UNL     1      -0.080  10.132  21.738  0.00  0.00    +0.000 A 
ATOM     14  C   UNL     1       0.456  11.009  20.797  0.00  0.00    +0.000 A 
ENDROOT
BRANCH   1  18
ATOM     15  C   UNL     1       3.682   5.607  18.147  0.00  0.00    +0.000 A 
ATOM     16  C   UNL     1       3.852   6.772  17.391  0.00  0.00    +0.000 A 
ATOM     17  C   UNL     1       3.153   7.996  17.712  0.00  0.00    +0.000 A 
ATOM     18  C   UNL     1       2.261   8.186  18.812  0.00  0.00    +0.000 A 
ATOM     19  C   UNL     1       2.189   7.060  19.627  0.00  0.00    +0.000 A 
ATOM     20 CL   UNL     1       1.339   6.993  21.111  0.00  0.00    +0.000 Cl
ATOM     21  C   UNL     1       2.856   5.809  19.266  0.00  0.00    +0.000 A 
BRANCH  15  22
ATOM     22  N   UNL     1       4.110   4.331  17.829  0.00  0.00    +0.000 N 
ATOM     23  H   UNL     1       4.225   4.189  16.818  0.00  0.00    +0.000 HD
BRANCH  22  25
ATOM     24  C   UNL     1       2.586   2.313  17.788  0.00  0.00    +0.000 C 
ATOM     25  C   UNL     1       3.774   3.024  18.425  0.00  0.00    +0.000 C 
ENDBRANCH  22  25
ENDBRANCH  15  22
ENDBRANCH   1  18
TORSDOF 3
ENDMDL
MODEL 7
REMARK VINA RESULT:      -7.3      4.443      7.128
REMARK  Name = 
REMARK  4 active torsions:
REMARK  status: ('A' for Active; 'I' for Inactive)
REMARK    1  A    between atoms: C_1  and  C_2
REMARK    2  A    between atoms: C_2  and  N_3
REMARK    3  A    between atoms: N_3  and  C_4
REMARK    4  A    between atoms: C_7  and  C_8
REMARK                            x       y       z     vdW  Elec       q    Type
REMARK                         _______ _______ _______ _____ _____    ______ ____
ROOT
ATOM      1  C   UNL     1       1.320  10.023  18.732  0.00  0.00    +0.000 C 
ATOM      2  O   UNL     1       2.083  10.783  18.099  0.00  0.00    +0.000 OA
ATOM      3  N   UNL     1       0.168  10.653  19.441  0.00  0.00    +0.000 N 
ATOM      4  C   UNL     1       0.582  12.069  19.808  0.00  0.00    +0.000 C 
ATOM      5  C   UNL     1       0.138  12.557  21.186  0.00  0.00    +0.000 C 
ATOM      6  C   UNL     1      -1.227  13.231  21.177  0.00  0.00    +0.000 C 
ATOM      7  C   UNL     1      -2.246  12.199  20.798  0.00  0.00    +0.000 C 
ATOM      8  C   UNL     1      -2.136  11.790  19.349  0.00  0.00    +0.000 A 
ATOM      9  C   UNL     1      -3.236  12.258  18.592  0.00  0.00    +0.000 A 
ATOM     10  C   UNL     1      -3.824  11.390  17.733  0.00  0.00    +0.000 A 
ATOM     11 CL   UNL     1      -5.353  11.787  17.045  0.00  0.00    +0.000 Cl
ATOM     12  C   UNL     1      -3.242  10.137  17.567  0.00  0.00    +0.000 A 
ATOM     13  C   UNL     1      -1.940   9.834  18.088  0.00  0.00    +0.000 A 
ATOM     14  C   UNL     1      -1.278  10.715  18.941  0.00  0.00    +0.000 A 
ENDROOT
BRANCH   1  18
ATOM     15  C   UNL     1       2.788   5.731  18.773  0.00  0.00    +0.000 A 
ATOM     16  C   UNL     1       3.041   6.632  17.733  0.00  0.00    +0.000 A 
ATOM     17  C   UNL     1       2.655   8.022  17.819  0.00  0.00    +0.000 A 
ATOM     18  C   UNL     1       2.022   8.647  18.937  0.00  0.00    +0.000 A 
ATOM     19  C   UNL     1       1.881   7.775  20.012  0.00  0.00    +0.000 A 
ATOM     20 CL   UNL     1       1.307   8.230  21.559  0.00  0.00    +0.000 Cl
ATOM     21  C   UNL     1       2.224   6.357  19.898  0.00  0.00    +0.000 A 
BRANCH  15  22
ATOM     22  N   UNL     1       2.901   4.354  18.736  0.00  0.00    +0.000 N 
ATOM     23  H   UNL     1       2.338   3.887  19.457  0.00  0.00    +0.000 HD
BRANCH  22  25
ATOM     24  C   UNL     1       4.613   3.597  17.035  0.00  0.00    +0.000 C 
ATOM     25  C   UNL     1       4.062   3.489  18.451  0.00  0.00    +0.000 C 
ENDBRANCH  22  25
ENDBRANCH  15  22
ENDBRANCH   1  18
TORSDOF 3
ENDMDL
MODEL 8
REMARK VINA RESULT:      -7.3      4.670      7.597
REMARK  Name = 
REMARK  4 active torsions:
REMARK  status: ('A' for Active; 'I' for Inactive)
REMARK    1  A    between atoms: C_1  and  C_2
REMARK    2  A    between atoms: C_2  and  N_3
REMARK    3  A    between atoms: N_3  and  C_4
REMARK    4  A    between atoms: C_7  and  C_8
REMARK                            x       y       z     vdW  Elec       q    Type
REMARK                         _______ _______ _______ _____ _____    ______ ____
ROOT
ATOM      1  C   UNL     1       0.260  10.234  19.026  0.00  0.00    +0.000 C 
ATOM      2  O   UNL     1      -0.505  10.024  18.062  0.00  0.00    +0.000 OA
ATOM      3  N   UNL     1       0.166  11.568  19.690  0.00  0.00    +0.000 N 
ATOM      4  C   UNL     1      -0.299  12.564  18.640  0.00  0.00    +0.000 C 
ATOM      5  C   UNL     1       0.370  13.937  18.681  0.00  0.00    +0.000 C 
ATOM      6  C   UNL     1      -0.351  14.933  19.578  0.00  0.00    +0.000 C 
ATOM      7  C   UNL     1      -0.263  14.430  20.987  0.00  0.00    +0.000 C 
ATOM      8  C   UNL     1      -1.110  13.200  21.211  0.00  0.00    +0.000 A 
ATOM      9  C   UNL     1      -2.225  13.481  22.037  0.00  0.00    +0.000 A 
ATOM     10  C   UNL     1      -2.505  12.605  23.034  0.00  0.00    +0.000 A 
ATOM     11 CL   UNL     1      -3.622  13.058  24.266  0.00  0.00    +0.000 Cl
ATOM     12  C   UNL     1      -1.753  11.437  23.112  0.00  0.00    +0.000 A 
ATOM     13  C   UNL     1      -0.873  11.035  22.052  0.00  0.00    +0.000 A 
ATOM     14  C   UNL     1      -0.588  11.883  20.984  0.00  0.00    +0.000 A 
ENDROOT
BRANCH   1  18
ATOM     15  C   UNL     1       3.079   6.729  18.448  0.00  0.00    +0.000 A 
ATOM     16  C   UNL     1       2.922   7.764  17.520  0.00  0.00    +0.000 A 
ATOM     17  C   UNL     1       2.101   8.920  17.802  0.00  0.00    +0.000 A 
ATOM     18  C   UNL     1       1.398   9.170  19.020  0.00  0.00    +0.000 A 
ATOM     19  C   UNL     1       1.654   8.196  19.981  0.00  0.00    +0.000 A 
ATOM     20 CL   UNL     1       1.101   8.263  21.599  0.00  0.00    +0.000 Cl
ATOM     21  C   UNL     1       2.441   7.002  19.670  0.00  0.00    +0.000 A 
BRANCH  15  22
ATOM     22  N   UNL     1       3.645   5.486  18.230  0.00  0.00    +0.000 N 
ATOM     23  H   UNL     1       3.378   4.795  18.941  0.00  0.00    +0.000 HD
BRANCH  22  25
ATOM     24  C   UNL     1       5.085   5.002  16.208  0.00  0.00    +0.000 C 
ATOM     25  C   UNL     1       4.979   5.108  17.724  0.00  0.00    +0.000 C 
ENDBRANCH  22  25
ENDBRANCH  15  22
ENDBRANCH   1  18
TORSDOF 3
ENDMDL
MODEL 9
REMARK VINA RESULT:      -7.2      3.694      6.283
REMARK  Name = 
REMARK  4 active torsions:
REMARK  status: ('A' for Active; 'I' for Inactive)
REMARK    1  A    between atoms: C_1  and  C_2
REMARK    2  A    between atoms: C_2  and  N_3
REMARK    3  A    between atoms: N_3  and  C_4
REMARK    4  A    between atoms: C_7  and  C_8
REMARK                            x       y       z     vdW  Elec       q    Type
REMARK                         _______ _______ _______ _____ _____    ______ ____
ROOT
ATOM      1  C   UNL     1       1.486   9.214  18.622  0.00  0.00    +0.000 C 
ATOM      2  O   UNL     1       0.809   9.173  17.573  0.00  0.00    +0.000 OA
ATOM      3  N   UNL     1       1.460  10.489  19.397  0.00  0.00    +0.000 N 
ATOM      4  C   UNL     1       1.211  11.616  18.408  0.00  0.00    +0.000 C 
ATOM      5  C   UNL     1       2.010  12.897  18.644  0.00  0.00    +0.000 C 
ATOM      6  C   UNL     1       1.304  13.888  19.559  0.00  0.00    +0.000 C 
ATOM      7  C   UNL     1       1.193  13.261  20.915  0.00  0.00    +0.000 C 
ATOM      8  C   UNL     1       0.205  12.119  20.940  0.00  0.00    +0.000 A 
ATOM      9  C   UNL     1      -0.955  12.450  21.679  0.00  0.00    +0.000 A 
ATOM     10  C   UNL     1      -1.425  11.531  22.557  0.00  0.00    +0.000 A 
ATOM     11 CL   UNL     1      -2.614  11.999  23.715  0.00  0.00    +0.000 Cl
ATOM     12  C   UNL     1      -0.809  10.284  22.594  0.00  0.00    +0.000 A 
ATOM     13  C   UNL     1       0.131   9.877  21.589  0.00  0.00    +0.000 A 
ATOM     14  C   UNL     1       0.611  10.776  20.639  0.00  0.00    +0.000 A 
ENDROOT
BRANCH   1  18
ATOM     15  C   UNL     1       4.074   5.561  17.891  0.00  0.00    +0.000 A 
ATOM     16  C   UNL     1       4.227   6.775  17.211  0.00  0.00    +0.000 A 
ATOM     17  C   UNL     1       3.457   7.947  17.562  0.00  0.00    +0.000 A 
ATOM     18  C   UNL     1       2.504   8.034  18.622  0.00  0.00    +0.000 A 
ATOM     19  C   UNL     1       2.442   6.861  19.369  0.00  0.00    +0.000 A 
ATOM     20 CL   UNL     1       1.523   6.672  20.799  0.00  0.00    +0.000 Cl
ATOM     21  C   UNL     1       3.183   5.663  18.974  0.00  0.00    +0.000 A 
BRANCH  15  22
ATOM     22  N   UNL     1       4.575   4.326  17.525  0.00  0.00    +0.000 N 
ATOM     23  H   UNL     1       5.052   3.844  18.296  0.00  0.00    +0.000 HD
BRANCH  22  25
ATOM     24  C   UNL     1       6.644   4.300  16.071  0.00  0.00    +0.000 C 
ATOM     25  C   UNL     1       5.195   3.870  16.266  0.00  0.00    +0.000 C 
ENDBRANCH  22  25
ENDBRANCH  15  22
ENDBRANCH   1  18
TORSDOF 3
ENDMDL
