MODEL 1
REMARK VINA RESULT:      -6.6      0.000      0.000
REMARK  Name = 
REMARK  4 active torsions:
REMARK  status: ('A' for Active; 'I' for Inactive)
REMARK    1  A    between atoms: C_1  and  C_2
REMARK    2  A    between atoms: C_8  and  C_10
REMARK    3  A    between atoms: C_10  and  C_11
REMARK    4  A    between atoms: C_11  and  N_12
REMARK                            x       y       z     vdW  Elec       q    Type
REMARK                         _______ _______ _______ _____ _____    ______ ____
ROOT
ATOM      1  C   UNL     1       5.515   2.516  11.663  0.00  0.00    +0.000 C 
ATOM      2  C   UNL     1       6.216   3.551  12.489  0.00  0.00    +0.000 A 
ATOM      3  C   UNL     1       7.315   4.243  11.985  0.00  0.00    +0.000 A 
ATOM      4  C   UNL     1       7.930   5.177  12.797  0.00  0.00    +0.000 A 
ATOM      5  N   UNL     1       7.528   5.455  14.053  0.00  0.00    +0.000 NA
ATOM      6  C   UNL     1       6.463   4.797  14.540  0.00  0.00    +0.000 A 
ATOM      7  N   UNL     1       6.007   5.072  15.841  0.00  0.00    +0.000 N 
ATOM      8  C   UNL     1       6.589   5.982  16.694  0.00  0.00    +0.000 C 
ATOM      9  O   UNL     1       7.594   6.657  16.502  0.00  0.00    +0.000 OA
ATOM     10  C   UNL     1       5.779   3.843  13.788  0.00  0.00    +0.000 A 
ATOM     11  H   UNL     1       5.160   4.600  16.127  0.00  0.00    +0.000 HD
ENDROOT
BRANCH   8  12
ATOM     12  C   UNL     1       5.853   6.147  18.002  0.00  0.00    +0.000 C 
BRANCH  12  13
ATOM     13  C   UNL     1       6.169   4.968  18.908  0.00  0.00    +0.000 C 
BRANCH  13  14
ATOM     14  N   UNL     1       5.004   4.018  18.959  0.00  0.00    +0.000 N 
ATOM     15  O   UNL     1       5.083   3.054  19.735  0.00  0.00    +0.000 OA
ATOM     16  O   UNL     1       4.019   4.303  18.269  0.00  0.00    +0.000 OA
ENDBRANCH  13  14
ENDBRANCH  12  13
ENDBRANCH   8  12
TORSDOF 3
ENDMDL
MODEL 2
REMARK VINA RESULT:      -6.3      3.294      5.899
REMARK  Name = 
REMARK  4 active torsions:
REMARK  status: ('A' for Active; 'I' for Inactive)
REMARK    1  A    between atoms: C_1  and  C_2
REMARK    2  A    between atoms: C_8  and  C_10
REMARK    3  A    between atoms: C_10  and  C_11
REMARK    4  A    between atoms: C_11  and  N_12
REMARK                            x       y       z     vdW  Elec       q    Type
REMARK                         _______ _______ _______ _____ _____    ______ ____
ROOT
ATOM      1  C   UNL     1       2.061   2.815  21.600  0.00  0.00    +0.000 C 
ATOM      2  C   UNL     1       2.357   3.179  20.177  0.00  0.00    +0.000 A 
ATOM      3  C   UNL     1       1.337   3.251  19.231  0.00  0.00    +0.000 A 
ATOM      4  C   UNL     1       1.673   3.577  17.930  0.00  0.00    +0.000 A 
ATOM      5  N   UNL     1       2.933   3.827  17.524  0.00  0.00    +0.000 NA
ATOM      6  C   UNL     1       3.919   3.768  18.435  0.00  0.00    +0.000 A 
ATOM      7  N   UNL     1       5.244   4.036  18.050  0.00  0.00    +0.000 N 
ATOM      8  C   UNL     1       5.632   4.354  16.768  0.00  0.00    +0.000 C 
ATOM      9  O   UNL     1       4.933   4.413  15.762  0.00  0.00    +0.000 OA
ATOM     10  C   UNL     1       3.670   3.452  19.769  0.00  0.00    +0.000 A 
ATOM     11  H   UNL     1       5.931   4.047  18.790  0.00  0.00    +0.000 HD
ENDROOT
BRANCH   8  12
ATOM     12  C   UNL     1       7.101   4.678  16.641  0.00  0.00    +0.000 C 
BRANCH  12  13
ATOM     13  C   UNL     1       7.777   4.485  17.988  0.00  0.00    +0.000 C 
BRANCH  13  14
ATOM     14  N   UNL     1       7.630   5.722  18.832  0.00  0.00    +0.000 N 
ATOM     15  O   UNL     1       7.780   6.819  18.272  0.00  0.00    +0.000 OA
ATOM     16  O   UNL     1       7.304   5.559  20.012  0.00  0.00    +0.000 OA
ENDBRANCH  13  14
ENDBRANCH  12  13
ENDBRANCH   8  12
TORSDOF 3
ENDMDL
MODEL 3
REMARK VINA RESULT:      -6.3      3.447      5.258
REMARK  Name = 
REMARK  4 active torsions:
REMARK  status: ('A' for Active; 'I' for Inactive)
REMARK    1  A    between atoms: C_1  and  C_2
REMARK    2  A    between atoms: C_8  and  C_10
REMARK    3  A    between atoms: C_10  and  C_11
REMARK    4  A    between atoms: C_11  and  N_12
REMARK                            x       y       z     vdW  Elec       q    Type
REMARK                         _______ _______ _______ _____ _____    ______ ____
ROOT
ATOM      1  C   UNL     1       7.961   5.910  18.913  0.00  0.00    +0.000 C 
ATOM      2  C   UNL     1       6.772   5.413  18.149  0.00  0.00    +0.000 A 
ATOM      3  C   UNL     1       6.646   5.661  16.784  0.00  0.00    +0.000 A 
ATOM      4  C   UNL     1       5.520   5.189  16.134  0.00  0.00    +0.000 A 
ATOM      5  N   UNL     1       4.534   4.506  16.749  0.00  0.00    +0.000 NA
ATOM      6  C   UNL     1       4.657   4.257  18.063  0.00  0.00    +0.000 A 
ATOM      7  N   UNL     1       3.654   3.535  18.733  0.00  0.00    +0.000 N 
ATOM      8  C   UNL     1       2.510   3.054  18.137  0.00  0.00    +0.000 C 
ATOM      9  O   UNL     1       2.149   3.201  16.975  0.00  0.00    +0.000 OA
ATOM     10  C   UNL     1       5.761   4.690  18.795  0.00  0.00    +0.000 A 
ATOM     11  H   UNL     1       3.834   3.316  19.703  0.00  0.00    +0.000 HD
ENDROOT
BRANCH   8  12
ATOM     12  C   UNL     1       1.639   2.240  19.063  0.00  0.00    +0.000 C 
BRANCH  12  13
ATOM     13  C   UNL     1       0.869   3.175  19.981  0.00  0.00    +0.000 C 
BRANCH  13  14
ATOM     14  N   UNL     1       1.589   3.334  21.292  0.00  0.00    +0.000 N 
ATOM     15  O   UNL     1       2.244   4.372  21.465  0.00  0.00    +0.000 OA
ATOM     16  O   UNL     1       1.422   2.444  22.133  0.00  0.00    +0.000 OA
ENDBRANCH  13  14
ENDBRANCH  12  13
ENDBRANCH   8  12
TORSDOF 3
ENDMDL
MODEL 4
REMARK VINA RESULT:      -6.2      3.411      5.936
REMARK  Name = 
REMARK  4 active torsions:
REMARK  status: ('A' for Active; 'I' for Inactive)
REMARK    1  A    between atoms: C_1  and  C_2
REMARK    2  A    between atoms: C_8  and  C_10
REMARK    3  A    between atoms: C_10  and  C_11
REMARK    4  A    between atoms: C_11  and  N_12
REMARK                            x       y       z     vdW  Elec       q    Type
REMARK                         _______ _______ _______ _____ _____    ______ ____
ROOT
ATOM      1  C   UNL     1       2.168   2.612  21.575  0.00  0.00    +0.000 C 
ATOM      2  C   UNL     1       2.648   2.653  20.157  0.00  0.00    +0.000 A 
ATOM      3  C   UNL     1       1.933   2.022  19.142  0.00  0.00    +0.000 A 
ATOM      4  C   UNL     1       2.432   2.082  17.854  0.00  0.00    +0.000 A 
ATOM      5  N   UNL     1       3.576   2.714  17.525  0.00  0.00    +0.000 NA
ATOM      6  C   UNL     1       4.264   3.332  18.499  0.00  0.00    +0.000 A 
ATOM      7  N   UNL     1       5.454   4.014  18.190  0.00  0.00    +0.000 N 
ATOM      8  C   UNL     1       6.000   4.094  16.929  0.00  0.00    +0.000 C 
ATOM      9  O   UNL     1       5.593   3.570  15.898  0.00  0.00    +0.000 OA
ATOM     10  C   UNL     1       3.831   3.327  19.824  0.00  0.00    +0.000 A 
ATOM     11  H   UNL     1       5.890   4.519  18.949  0.00  0.00    +0.000 HD
ENDROOT
BRANCH   8  12
ATOM     12  C   UNL     1       7.237   4.956  16.856  0.00  0.00    +0.000 C 
BRANCH  12  13
ATOM     13  C   UNL     1       6.967   6.283  17.545  0.00  0.00    +0.000 C 
BRANCH  13  14
ATOM     14  N   UNL     1       7.862   6.445  18.744  0.00  0.00    +0.000 N 
ATOM     15  O   UNL     1       8.533   7.485  18.823  0.00  0.00    +0.000 OA
ATOM     16  O   UNL     1       7.815   5.555  19.600  0.00  0.00    +0.000 OA
ENDBRANCH  13  14
ENDBRANCH  12  13
ENDBRANCH   8  12
TORSDOF 3
ENDMDL
MODEL 5
REMARK VINA RESULT:      -6.2      3.069      4.786
REMARK  Name = 
REMARK  4 active torsions:
REMARK  status: ('A' for Active; 'I' for Inactive)
REMARK    1  A    between atoms: C_1  and  C_2
REMARK    2  A    between atoms: C_8  and  C_10
REMARK    3  A    between atoms: C_10  and  C_11
REMARK    4  A    between atoms: C_11  and  N_12
REMARK                            x       y       z     vdW  Elec       q    Type
REMARK                         _______ _______ _______ _____ _____    ______ ____
ROOT
ATOM      1  C   UNL     1       7.387   7.345  17.512  0.00  0.00    +0.000 C 
ATOM      2  C   UNL     1       6.425   6.268  17.115  0.00  0.00    +0.000 A 
ATOM      3  C   UNL     1       6.629   5.518  15.959  0.00  0.00    +0.000 A 
ATOM      4  C   UNL     1       5.700   4.547  15.635  0.00  0.00    +0.000 A 
ATOM      5  N   UNL     1       4.603   4.287  16.374  0.00  0.00    +0.000 NA
ATOM      6  C   UNL     1       4.407   5.001  17.495  0.00  0.00    +0.000 A 
ATOM      7  N   UNL     1       3.281   4.747  18.297  0.00  0.00    +0.000 N 
ATOM      8  C   UNL     1       2.322   3.801  18.015  0.00  0.00    +0.000 C 
ATOM      9  O   UNL     1       2.250   3.072  17.032  0.00  0.00    +0.000 OA
ATOM     10  C   UNL     1       5.296   5.995  17.899  0.00  0.00    +0.000 A 
ATOM     11  H   UNL     1       3.224   5.264  19.163  0.00  0.00    +0.000 HD
ENDROOT
BRANCH   8  12
ATOM     12  C   UNL     1       1.262   3.673  19.083  0.00  0.00    +0.000 C 
BRANCH  12  13
ATOM     13  C   UNL     1       1.519   2.416  19.898  0.00  0.00    +0.000 C 
BRANCH  13  14
ATOM     14  N   UNL     1       2.506   2.697  20.999  0.00  0.00    +0.000 N 
ATOM     15  O   UNL     1       3.709   2.533  20.747  0.00  0.00    +0.000 OA
ATOM     16  O   UNL     1       2.049   3.136  22.060  0.00  0.00    +0.000 OA
ENDBRANCH  13  14
ENDBRANCH  12  13
ENDBRANCH   8  12
TORSDOF 3
ENDMDL
MODEL 6
REMARK VINA RESULT:      -6.2      3.380      6.333
REMARK  Name = 
REMARK  4 active torsions:
REMARK  status: ('A' for Active; 'I' for Inactive)
REMARK    1  A    between atoms: C_1  and  C_2
REMARK    2  A    between atoms: C_8  and  C_10
REMARK    3  A    between atoms: C_10  and  C_11
REMARK    4  A    between atoms: C_11  and  N_12
REMARK                            x       y       z     vdW  Elec       q    Type
REMARK                         _______ _______ _______ _____ _____    ______ ____
ROOT
ATOM      1  C   UNL     1       1.597   2.532  21.830  0.00  0.00    +0.000 C 
ATOM      2  C   UNL     1       1.966   2.950  20.439  0.00  0.00    +0.000 A 
ATOM      3  C   UNL     1       0.993   3.074  19.449  0.00  0.00    +0.000 A 
ATOM      4  C   UNL     1       1.394   3.449  18.181  0.00  0.00    +0.000 A 
ATOM      5  N   UNL     1       2.676   3.697  17.845  0.00  0.00    +0.000 NA
ATOM      6  C   UNL     1       3.616   3.587  18.798  0.00  0.00    +0.000 A 
ATOM      7  N   UNL     1       4.961   3.852  18.487  0.00  0.00    +0.000 N 
ATOM      8  C   UNL     1       5.414   4.217  17.239  0.00  0.00    +0.000 C 
ATOM      9  O   UNL     1       4.764   4.328  16.206  0.00  0.00    +0.000 OA
ATOM     10  C   UNL     1       3.299   3.220  20.105  0.00  0.00    +0.000 A 
ATOM     11  H   UNL     1       5.612   3.823  19.259  0.00  0.00    +0.000 HD
ENDROOT
BRANCH   8  12
ATOM     12  C   UNL     1       6.891   4.525  17.196  0.00  0.00    +0.000 C 
BRANCH  12  13
ATOM     13  C   UNL     1       7.104   5.876  16.532  0.00  0.00    +0.000 C 
BRANCH  13  14
ATOM     14  N   UNL     1       7.598   6.882  17.535  0.00  0.00    +0.000 N 
ATOM     15  O   UNL     1       7.621   8.073  17.190  0.00  0.00    +0.000 OA
ATOM     16  O   UNL     1       7.884   6.456  18.659  0.00  0.00    +0.000 OA
ENDBRANCH  13  14
ENDBRANCH  12  13
ENDBRANCH   8  12
TORSDOF 3
ENDMDL
MODEL 7
REMARK VINA RESULT:      -6.1      2.423      3.225
REMARK  Name = 
REMARK  4 active torsions:
REMARK  status: ('A' for Active; 'I' for Inactive)
REMARK    1  A    between atoms: C_1  and  C_2
REMARK    2  A    between atoms: C_8  and  C_10
REMARK    3  A    between atoms: C_10  and  C_11
REMARK    4  A    between atoms: C_11  and  N_12
REMARK                            x       y       z     vdW  Elec       q    Type
REMARK                         _______ _______ _______ _____ _____    ______ ____
ROOT
ATOM      1  C   UNL     1       5.869   3.515  12.696  0.00  0.00    +0.000 C 
ATOM      2  C   UNL     1       6.069   3.942  14.118  0.00  0.00    +0.000 A 
ATOM      3  C   UNL     1       7.073   4.846  14.457  0.00  0.00    +0.000 A 
ATOM      4  C   UNL     1       7.220   5.194  15.787  0.00  0.00    +0.000 A 
ATOM      5  N   UNL     1       6.448   4.703  16.777  0.00  0.00    +0.000 NA
ATOM      6  C   UNL     1       5.473   3.838  16.453  0.00  0.00    +0.000 A 
ATOM      7  N   UNL     1       4.639   3.317  17.458  0.00  0.00    +0.000 N 
ATOM      8  C   UNL     1       4.750   3.620  18.796  0.00  0.00    +0.000 C 
ATOM      9  O   UNL     1       5.587   4.332  19.339  0.00  0.00    +0.000 OA
ATOM     10  C   UNL     1       5.251   3.438  15.136  0.00  0.00    +0.000 A 
ATOM     11  H   UNL     1       3.879   2.728  17.147  0.00  0.00    +0.000 HD
ENDROOT
BRANCH   8  12
ATOM     12  C   UNL     1       3.677   2.991  19.652  0.00  0.00    +0.000 C 
BRANCH  12  13
ATOM     13  C   UNL     1       2.859   2.029  18.807  0.00  0.00    +0.000 C 
BRANCH  13  14
ATOM     14  N   UNL     1       1.562   2.668  18.390  0.00  0.00    +0.000 N 
ATOM     15  O   UNL     1       0.549   2.395  19.051  0.00  0.00    +0.000 OA
ATOM     16  O   UNL     1       1.612   3.475  17.456  0.00  0.00    +0.000 OA
ENDBRANCH  13  14
ENDBRANCH  12  13
ENDBRANCH   8  12
TORSDOF 3
ENDMDL
MODEL 8
REMARK VINA RESULT:      -6.1      3.438      4.839
REMARK  Name = 
REMARK  4 active torsions:
REMARK  status: ('A' for Active; 'I' for Inactive)
REMARK    1  A    between atoms: C_1  and  C_2
REMARK    2  A    between atoms: C_8  and  C_10
REMARK    3  A    between atoms: C_10  and  C_11
REMARK    4  A    between atoms: C_11  and  N_12
REMARK                            x       y       z     vdW  Elec       q    Type
REMARK                         _______ _______ _______ _____ _____    ______ ____
ROOT
ATOM      1  C   UNL     1       5.708   3.792  14.879  0.00  0.00    +0.000 C 
ATOM      2  C   UNL     1       5.090   4.689  15.907  0.00  0.00    +0.000 A 
ATOM      3  C   UNL     1       5.431   6.038  15.976  0.00  0.00    +0.000 A 
ATOM      4  C   UNL     1       4.840   6.814  16.955  0.00  0.00    +0.000 A 
ATOM      5  N   UNL     1       3.953   6.338  17.851  0.00  0.00    +0.000 NA
ATOM      6  C   UNL     1       3.613   5.040  17.783  0.00  0.00    +0.000 A 
ATOM      7  N   UNL     1       2.680   4.513  18.692  0.00  0.00    +0.000 N 
ATOM      8  C   UNL     1       2.072   5.239  19.691  0.00  0.00    +0.000 C 
ATOM      9  O   UNL     1       2.258   6.414  19.988  0.00  0.00    +0.000 OA
ATOM     10  C   UNL     1       4.157   4.187  16.824  0.00  0.00    +0.000 A 
ATOM     11  H   UNL     1       2.410   3.550  18.548  0.00  0.00    +0.000 HD
ENDROOT
BRANCH   8  12
ATOM     12  C   UNL     1       1.047   4.454  20.475  0.00  0.00    +0.000 C 
BRANCH  12  13
ATOM     13  C   UNL     1       1.398   2.976  20.421  0.00  0.00    +0.000 C 
BRANCH  13  14
ATOM     14  N   UNL     1       1.893   2.504  21.762  0.00  0.00    +0.000 N 
ATOM     15  O   UNL     1       1.043   2.219  22.619  0.00  0.00    +0.000 OA
ATOM     16  O   UNL     1       3.114   2.372  21.892  0.00  0.00    +0.000 OA
ENDBRANCH  13  14
ENDBRANCH  12  13
ENDBRANCH   8  12
TORSDOF 3
ENDMDL
MODEL 9
REMARK VINA RESULT:      -6.0      3.067      6.339
REMARK  Name = 
REMARK  4 active torsions:
REMARK  status: ('A' for Active; 'I' for Inactive)
REMARK    1  A    between atoms: C_1  and  C_2
REMARK    2  A    between atoms: C_8  and  C_10
REMARK    3  A    between atoms: C_10  and  C_11
REMARK    4  A    between atoms: C_11  and  N_12
REMARK                            x       y       z     vdW  Elec       q    Type
REMARK                         _______ _______ _______ _____ _____    ______ ____
ROOT
ATOM      1  C   UNL     1       2.080   2.753  21.495  0.00  0.00    +0.000 C 
ATOM      2  C   UNL     1       2.486   3.945  20.685  0.00  0.00    +0.000 A 
ATOM      3  C   UNL     1       1.677   5.078  20.626  0.00  0.00    +0.000 A 
ATOM      4  C   UNL     1       2.097   6.143  19.851  0.00  0.00    +0.000 A 
ATOM      5  N   UNL     1       3.245   6.146  19.144  0.00  0.00    +0.000 NA
ATOM      6  C   UNL     1       4.032   5.060  19.206  0.00  0.00    +0.000 A 
ATOM      7  N   UNL     1       5.243   5.033  18.493  0.00  0.00    +0.000 N 
ATOM      8  C   UNL     1       5.701   6.060  17.699  0.00  0.00    +0.000 C 
ATOM      9  O   UNL     1       5.141   7.120  17.441  0.00  0.00    +0.000 OA
ATOM     10  C   UNL     1       3.689   3.944  19.967  0.00  0.00    +0.000 A 
ATOM     11  H   UNL     1       5.827   4.221  18.634  0.00  0.00    +0.000 HD
ENDROOT
BRANCH   8  12
ATOM     12  C   UNL     1       7.071   5.811  17.113  0.00  0.00    +0.000 C 
BRANCH  12  13
ATOM     13  C   UNL     1       7.085   4.454  16.429  0.00  0.00    +0.000 C 
BRANCH  13  14
ATOM     14  N   UNL     1       6.909   4.613  14.943  0.00  0.00    +0.000 N 
ATOM     15  O   UNL     1       5.999   3.967  14.401  0.00  0.00    +0.000 OA
ATOM     16  O   UNL     1       7.643   5.429  14.377  0.00  0.00    +0.000 OA
ENDBRANCH  13  14
ENDBRANCH  12  13
ENDBRANCH   8  12
TORSDOF 3
ENDMDL
