MODEL 1
REMARK VINA RESULT:      -7.4      0.000      0.000
REMARK  Name = 
REMARK  8 active torsions:
REMARK  status: ('A' for Active; 'I' for Inactive)
REMARK    1  A    between atoms: C_1  and  O_2
REMARK    2  A    between atoms: O_2  and  C_3
REMARK    3  A    between atoms: C_7  and  C_8
REMARK    4  A    between atoms: C_9  and  C_10
REMARK    5  A    between atoms: C_10  and  N_11
REMARK    6  A    between atoms: N_11  and  C_12
REMARK    7  A    between atoms: N_11  and  C_13
REMARK    8  A    between atoms: C_13  and  C_14
REMARK                            x       y       z     vdW  Elec       q    Type
REMARK                         _______ _______ _______ _____ _____    ______ ____
ROOT
ATOM      1  N   UNL     1       5.632   4.856  16.453  0.00  0.00    +0.000 NA
ATOM      2  C   UNL     1       6.994   4.475  16.016  0.00  0.00    +0.000 C 
ENDROOT
BRANCH   1   3
ATOM      3  C   UNL     1       5.432   6.318  16.260  0.00  0.00    +0.000 C 
BRANCH   3   5
ATOM      4  C   UNL     1       3.219   7.231  17.316  0.00  0.00    +0.000 C 
ATOM      5  C   UNL     1       4.575   7.061  17.332  0.00  0.00    +0.000 C 
BRANCH   4  10
ATOM      6  C   UNL     1       0.874   9.720  19.182  0.00  0.00    +0.000 A 
ATOM      7  C   UNL     1       0.807   9.132  20.445  0.00  0.00    +0.000 A 
ATOM      8  C   UNL     1       1.497   7.950  20.716  0.00  0.00    +0.000 A 
ATOM      9  C   UNL     1       2.279   7.331  19.729  0.00  0.00    +0.000 A 
ATOM     10  C   UNL     1       2.393   7.881  18.432  0.00  0.00    +0.000 A 
ATOM     11  C   UNL     1       1.664   9.086  18.169  0.00  0.00    +0.000 A 
BRANCH   6  13
ATOM     12  C   UNL     1      -1.154  11.036  18.734  0.00  0.00    +0.000 C 
ATOM     13  O   UNL     1       0.195  10.875  19.002  0.00  0.00    +0.000 OA
ENDBRANCH   6  13
ENDBRANCH   4  10
ENDBRANCH   3   5
ENDBRANCH   1   3
BRANCH   1  14
ATOM     14  C   UNL     1       5.388   4.385  17.875  0.00  0.00    +0.000 C 
BRANCH  14  15
ATOM     15  C   UNL     1       3.949   3.882  18.117  0.00  0.00    +0.000 A 
ATOM     16  C   UNL     1       3.209   3.444  17.036  0.00  0.00    +0.000 A 
ATOM     17  O   UNL     1       2.013   3.047  17.401  0.00  0.00    +0.000 OA
ATOM     18  C   UNL     1       1.920   3.168  18.696  0.00  0.00    +0.000 A 
ATOM     19  C   UNL     1       0.795   2.836  19.451  0.00  0.00    +0.000 A 
ATOM     20  C   UNL     1       0.854   2.983  20.837  0.00  0.00    +0.000 A 
ATOM     21  C   UNL     1       2.031   3.459  21.445  0.00  0.00    +0.000 A 
ATOM     22  C   UNL     1       3.170   3.812  20.657  0.00  0.00    +0.000 A 
ATOM     23  C   UNL     1       3.090   3.666  19.244  0.00  0.00    +0.000 A 
ENDBRANCH  14  15
ENDBRANCH   1  14
TORSDOF 6
ENDMDL
MODEL 2
REMARK VINA RESULT:      -7.4      5.128      6.151
REMARK  Name = 
REMARK  8 active torsions:
REMARK  status: ('A' for Active; 'I' for Inactive)
REMARK    1  A    between atoms: C_1  and  O_2
REMARK    2  A    between atoms: O_2  and  C_3
REMARK    3  A    between atoms: C_7  and  C_8
REMARK    4  A    between atoms: C_9  and  C_10
REMARK    5  A    between atoms: C_10  and  N_11
REMARK    6  A    between atoms: N_11  and  C_12
REMARK    7  A    between atoms: N_11  and  C_13
REMARK    8  A    between atoms: C_13  and  C_14
REMARK                            x       y       z     vdW  Elec       q    Type
REMARK                         _______ _______ _______ _____ _____    ______ ____
ROOT
ATOM      1  N   UNL     1       6.795   5.802  18.353  0.00  0.00    +0.000 NA
ATOM      2  C   UNL     1       7.898   5.508  19.296  0.00  0.00    +0.000 C 
ENDROOT
BRANCH   1   3
ATOM      3  C   UNL     1       7.116   7.025  17.569  0.00  0.00    +0.000 C 
BRANCH   3   5
ATOM      4  C   UNL     1       8.260   9.362  17.846  0.00  0.00    +0.000 C 
ATOM      5  C   UNL     1       8.058   8.069  18.243  0.00  0.00    +0.000 C 
BRANCH   4  10
ATOM      6  C   UNL     1      10.578  12.422  18.507  0.00  0.00    +0.000 A 
ATOM      7  C   UNL     1      10.701  12.372  19.895  0.00  0.00    +0.000 A 
ATOM      8  C   UNL     1      10.056  11.378  20.631  0.00  0.00    +0.000 A 
ATOM      9  C   UNL     1       9.275  10.403  19.991  0.00  0.00    +0.000 A 
ATOM     10  C   UNL     1       9.118  10.394  18.587  0.00  0.00    +0.000 A 
ATOM     11  C   UNL     1       9.775  11.434  17.851  0.00  0.00    +0.000 A 
BRANCH   6  13
ATOM     12  C   UNL     1      11.615  13.446  16.526  0.00  0.00    +0.000 C 
ATOM     13  O   UNL     1      11.250  13.402  17.861  0.00  0.00    +0.000 OA
ENDBRANCH   6  13
ENDBRANCH   4  10
ENDBRANCH   3   5
ENDBRANCH   1   3
BRANCH   1  14
ATOM     14  C   UNL     1       5.476   5.879  19.098  0.00  0.00    +0.000 C 
BRANCH  14  15
ATOM     15  C   UNL     1       4.468   4.788  18.678  0.00  0.00    +0.000 A 
ATOM     16  C   UNL     1       4.798   3.948  17.631  0.00  0.00    +0.000 A 
ATOM     17  O   UNL     1       3.846   3.077  17.395  0.00  0.00    +0.000 OA
ATOM     18  C   UNL     1       2.893   3.268  18.264  0.00  0.00    +0.000 A 
ATOM     19  C   UNL     1       1.714   2.525  18.334  0.00  0.00    +0.000 A 
ATOM     20  C   UNL     1       0.798   2.820  19.343  0.00  0.00    +0.000 A 
ATOM     21  C   UNL     1       1.072   3.850  20.264  0.00  0.00    +0.000 A 
ATOM     22  C   UNL     1       2.276   4.615  20.170  0.00  0.00    +0.000 A 
ATOM     23  C   UNL     1       3.195   4.308  19.127  0.00  0.00    +0.000 A 
ENDBRANCH  14  15
ENDBRANCH   1  14
TORSDOF 6
ENDMDL
MODEL 3
REMARK VINA RESULT:      -7.3      1.168      1.778
REMARK  Name = 
REMARK  8 active torsions:
REMARK  status: ('A' for Active; 'I' for Inactive)
REMARK    1  A    between atoms: C_1  and  O_2
REMARK    2  A    between atoms: O_2  and  C_3
REMARK    3  A    between atoms: C_7  and  C_8
REMARK    4  A    between atoms: C_9  and  C_10
REMARK    5  A    between atoms: C_10  and  N_11
REMARK    6  A    between atoms: N_11  and  C_12
REMARK    7  A    between atoms: N_11  and  C_13
REMARK    8  A    between atoms: C_13  and  C_14
REMARK                            x       y       z     vdW  Elec       q    Type
REMARK                         _______ _______ _______ _____ _____    ______ ____
ROOT
ATOM      1  N   UNL     1       5.057   4.895  16.140  0.00  0.00    +0.000 NA
ATOM      2  C   UNL     1       5.951   4.739  14.970  0.00  0.00    +0.000 C 
ENDROOT
BRANCH   1   3
ATOM      3  C   UNL     1       5.594   5.946  17.047  0.00  0.00    +0.000 C 
BRANCH   3   5
ATOM      4  C   UNL     1       3.291   6.819  17.930  0.00  0.00    +0.000 C 
ATOM      5  C   UNL     1       4.589   7.026  17.550  0.00  0.00    +0.000 C 
BRANCH   4  10
ATOM      6  C   UNL     1       1.022   8.742  20.444  0.00  0.00    +0.000 A 
ATOM      7  C   UNL     1       0.644   9.845  19.678  0.00  0.00    +0.000 A 
ATOM      8  C   UNL     1       1.102   9.991  18.369  0.00  0.00    +0.000 A 
ATOM      9  C   UNL     1       1.944   9.029  17.790  0.00  0.00    +0.000 A 
ATOM     10  C   UNL     1       2.356   7.885  18.512  0.00  0.00    +0.000 A 
ATOM     11  C   UNL     1       1.890   7.763  19.861  0.00  0.00    +0.000 A 
BRANCH   6  13
ATOM     12  C   UNL     1       0.905   9.382  22.816  0.00  0.00    +0.000 C 
ATOM     13  O   UNL     1       0.522   8.660  21.698  0.00  0.00    +0.000 OA
ENDBRANCH   6  13
ENDBRANCH   4  10
ENDBRANCH   3   5
ENDBRANCH   1   3
BRANCH   1  14
ATOM     14  C   UNL     1       4.838   3.554  16.815  0.00  0.00    +0.000 C 
BRANCH  14  15
ATOM     15  C   UNL     1       3.493   3.456  17.566  0.00  0.00    +0.000 A 
ATOM     16  C   UNL     1       2.321   3.537  16.840  0.00  0.00    +0.000 A 
ATOM     17  O   UNL     1       1.267   3.435  17.615  0.00  0.00    +0.000 OA
ATOM     18  C   UNL     1       1.677   3.255  18.840  0.00  0.00    +0.000 A 
ATOM     19  C   UNL     1       0.843   3.094  19.946  0.00  0.00    +0.000 A 
ATOM     20  C   UNL     1       1.424   2.872  21.194  0.00  0.00    +0.000 A 
ATOM     21  C   UNL     1       2.826   2.813  21.318  0.00  0.00    +0.000 A 
ATOM     22  C   UNL     1       3.669   2.996  20.178  0.00  0.00    +0.000 A 
ATOM     23  C   UNL     1       3.060   3.233  18.914  0.00  0.00    +0.000 A 
ENDBRANCH  14  15
ENDBRANCH   1  14
TORSDOF 6
ENDMDL
MODEL 4
REMARK VINA RESULT:      -7.3      1.349      1.882
REMARK  Name = 
REMARK  8 active torsions:
REMARK  status: ('A' for Active; 'I' for Inactive)
REMARK    1  A    between atoms: C_1  and  O_2
REMARK    2  A    between atoms: O_2  and  C_3
REMARK    3  A    between atoms: C_7  and  C_8
REMARK    4  A    between atoms: C_9  and  C_10
REMARK    5  A    between atoms: C_10  and  N_11
REMARK    6  A    between atoms: N_11  and  C_12
REMARK    7  A    between atoms: N_11  and  C_13
REMARK    8  A    between atoms: C_13  and  C_14
REMARK                            x       y       z     vdW  Elec       q    Type
REMARK                         _______ _______ _______ _____ _____    ______ ____
ROOT
ATOM      1  N   UNL     1       6.061   5.681  17.355  0.00  0.00    +0.000 NA
ATOM      2  C   UNL     1       7.123   6.690  17.568  0.00  0.00    +0.000 C 
ENDROOT
BRANCH   1   3
ATOM      3  C   UNL     1       4.935   6.288  16.594  0.00  0.00    +0.000 C 
BRANCH   3   5
ATOM      4  C   UNL     1       2.823   7.253  17.800  0.00  0.00    +0.000 C 
ATOM      5  C   UNL     1       4.099   7.383  17.324  0.00  0.00    +0.000 C 
BRANCH   4  10
ATOM      6  C   UNL     1       1.078   9.068  20.772  0.00  0.00    +0.000 A 
ATOM      7  C   UNL     1       0.684  10.260  20.166  0.00  0.00    +0.000 A 
ATOM      8  C   UNL     1       0.965  10.501  18.821  0.00  0.00    +0.000 A 
ATOM      9  C   UNL     1       1.643   9.547  18.047  0.00  0.00    +0.000 A 
ATOM     10  C   UNL     1       2.062   8.316  18.600  0.00  0.00    +0.000 A 
ATOM     11  C   UNL     1       1.779   8.095  19.987  0.00  0.00    +0.000 A 
BRANCH   6  13
ATOM     12  C   UNL     1      -0.404   9.305  22.720  0.00  0.00    +0.000 C 
ATOM     13  O   UNL     1       0.751   8.898  22.073  0.00  0.00    +0.000 OA
ENDBRANCH   6  13
ENDBRANCH   4  10
ENDBRANCH   3   5
ENDBRANCH   1   3
BRANCH   1  14
ATOM     14  C   UNL     1       5.647   5.068  18.680  0.00  0.00    +0.000 C 
BRANCH  14  15
ATOM     15  C   UNL     1       4.429   4.127  18.568  0.00  0.00    +0.000 A 
ATOM     16  C   UNL     1       4.458   3.114  17.630  0.00  0.00    +0.000 A 
ATOM     17  O   UNL     1       3.357   2.401  17.658  0.00  0.00    +0.000 OA
ATOM     18  C   UNL     1       2.591   2.870  18.603  0.00  0.00    +0.000 A 
ATOM     19  C   UNL     1       1.336   2.362  18.940  0.00  0.00    +0.000 A 
ATOM     20  C   UNL     1       0.644   2.944  20.003  0.00  0.00    +0.000 A 
ATOM     21  C   UNL     1       1.214   4.021  20.709  0.00  0.00    +0.000 A 
ATOM     22  C   UNL     1       2.494   4.541  20.342  0.00  0.00    +0.000 A 
ATOM     23  C   UNL     1       3.181   3.944  19.248  0.00  0.00    +0.000 A 
ENDBRANCH  14  15
ENDBRANCH   1  14
TORSDOF 6
ENDMDL
MODEL 5
REMARK VINA RESULT:      -7.2      4.513      5.636
REMARK  Name = 
REMARK  8 active torsions:
REMARK  status: ('A' for Active; 'I' for Inactive)
REMARK    1  A    between atoms: C_1  and  O_2
REMARK    2  A    between atoms: O_2  and  C_3
REMARK    3  A    between atoms: C_7  and  C_8
REMARK    4  A    between atoms: C_9  and  C_10
REMARK    5  A    between atoms: C_10  and  N_11
REMARK    6  A    between atoms: N_11  and  C_12
REMARK    7  A    between atoms: N_11  and  C_13
REMARK    8  A    between atoms: C_13  and  C_14
REMARK                            x       y       z     vdW  Elec       q    Type
REMARK                         _______ _______ _______ _____ _____    ______ ____
ROOT
ATOM      1  N   UNL     1       6.790   6.065  16.283  0.00  0.00    +0.000 NA
ATOM      2  C   UNL     1       6.964   4.687  15.774  0.00  0.00    +0.000 C 
ENDROOT
BRANCH   1   3
ATOM      3  C   UNL     1       7.118   6.111  17.734  0.00  0.00    +0.000 C 
BRANCH   3   5
ATOM      4  C   UNL     1       7.864   8.619  17.689  0.00  0.00    +0.000 C 
ATOM      5  C   UNL     1       7.884   7.370  18.246  0.00  0.00    +0.000 C 
BRANCH   4  10
ATOM      6  C   UNL     1       9.006  12.315  18.142  0.00  0.00    +0.000 A 
ATOM      7  C   UNL     1       9.764  12.222  19.309  0.00  0.00    +0.000 A 
ATOM      8  C   UNL     1       9.919  10.998  19.961  0.00  0.00    +0.000 A 
ATOM      9  C   UNL     1       9.323   9.833  19.453  0.00  0.00    +0.000 A 
ATOM     10  C   UNL     1       8.550   9.860  18.270  0.00  0.00    +0.000 A 
ATOM     11  C   UNL     1       8.389  11.130  17.626  0.00  0.00    +0.000 A 
BRANCH   6  13
ATOM     12  C   UNL     1       8.801  14.766  18.174  0.00  0.00    +0.000 C 
ATOM     13  O   UNL     1       8.919  13.531  17.557  0.00  0.00    +0.000 OA
ENDBRANCH   6  13
ENDBRANCH   4  10
ENDBRANCH   3   5
ENDBRANCH   1   3
BRANCH   1  14
ATOM     14  C   UNL     1       5.400   6.575  15.951  0.00  0.00    +0.000 C 
BRANCH  14  15
ATOM     15  C   UNL     1       4.336   6.184  16.999  0.00  0.00    +0.000 A 
ATOM     16  C   UNL     1       3.781   7.177  17.782  0.00  0.00    +0.000 A 
ATOM     17  O   UNL     1       2.894   6.691  18.619  0.00  0.00    +0.000 OA
ATOM     18  C   UNL     1       2.801   5.406  18.413  0.00  0.00    +0.000 A 
ATOM     19  C   UNL     1       1.951   4.546  19.108  0.00  0.00    +0.000 A 
ATOM     20  C   UNL     1       1.931   3.197  18.753  0.00  0.00    +0.000 A 
ATOM     21  C   UNL     1       2.756   2.730  17.712  0.00  0.00    +0.000 A 
ATOM     22  C   UNL     1       3.634   3.621  17.020  0.00  0.00    +0.000 A 
ATOM     23  C   UNL     1       3.651   4.991  17.402  0.00  0.00    +0.000 A 
ENDBRANCH  14  15
ENDBRANCH   1  14
TORSDOF 6
ENDMDL
MODEL 6
REMARK VINA RESULT:      -7.1      4.913      5.755
REMARK  Name = 
REMARK  8 active torsions:
REMARK  status: ('A' for Active; 'I' for Inactive)
REMARK    1  A    between atoms: C_1  and  O_2
REMARK    2  A    between atoms: O_2  and  C_3
REMARK    3  A    between atoms: C_7  and  C_8
REMARK    4  A    between atoms: C_9  and  C_10
REMARK    5  A    between atoms: C_10  and  N_11
REMARK    6  A    between atoms: N_11  and  C_12
REMARK    7  A    between atoms: N_11  and  C_13
REMARK    8  A    between atoms: C_13  and  C_14
REMARK                            x       y       z     vdW  Elec       q    Type
REMARK                         _______ _______ _______ _____ _____    ______ ____
ROOT
ATOM      1  N   UNL     1       5.978   6.530  17.650  0.00  0.00    +0.000 NA
ATOM      2  C   UNL     1       4.955   6.806  16.616  0.00  0.00    +0.000 C 
ENDROOT
BRANCH   1   3
ATOM      3  C   UNL     1       7.290   7.086  17.222  0.00  0.00    +0.000 C 
BRANCH   3   5
ATOM      4  C   UNL     1       8.741   8.788  18.580  0.00  0.00    +0.000 C 
ATOM      5  C   UNL     1       7.676   8.492  17.774  0.00  0.00    +0.000 C 
BRANCH   4  10
ATOM      6  C   UNL     1       9.720  12.555  18.428  0.00  0.00    +0.000 A 
ATOM      7  C   UNL     1       9.876  12.848  19.782  0.00  0.00    +0.000 A 
ATOM      8  C   UNL     1       9.673  11.865  20.750  0.00  0.00    +0.000 A 
ATOM      9  C   UNL     1       9.316  10.558  20.383  0.00  0.00    +0.000 A 
ATOM     10  C   UNL     1       9.150  10.196  19.028  0.00  0.00    +0.000 A 
ATOM     11  C   UNL     1       9.346  11.225  18.050  0.00  0.00    +0.000 A 
BRANCH   6  13
ATOM     12  C   UNL     1       9.891  14.920  17.775  0.00  0.00    +0.000 C 
ATOM     13  O   UNL     1       9.954  13.555  17.548  0.00  0.00    +0.000 OA
ENDBRANCH   6  13
ENDBRANCH   4  10
ENDBRANCH   3   5
ENDBRANCH   1   3
BRANCH   1  14
ATOM     14  C   UNL     1       6.013   5.047  17.969  0.00  0.00    +0.000 C 
BRANCH  14  15
ATOM     15  C   UNL     1       4.613   4.403  18.054  0.00  0.00    +0.000 A 
ATOM     16  C   UNL     1       4.266   3.445  17.121  0.00  0.00    +0.000 A 
ATOM     17  O   UNL     1       3.052   2.992  17.325  0.00  0.00    +0.000 OA
ATOM     18  C   UNL     1       2.569   3.582  18.384  0.00  0.00    +0.000 A 
ATOM     19  C   UNL     1       1.301   3.350  18.919  0.00  0.00    +0.000 A 
ATOM     20  C   UNL     1       0.933   4.029  20.080  0.00  0.00    +0.000 A 
ATOM     21  C   UNL     1       1.834   4.925  20.688  0.00  0.00    +0.000 A 
ATOM     22  C   UNL     1       3.123   5.164  20.119  0.00  0.00    +0.000 A 
ATOM     23  C   UNL     1       3.479   4.473  18.927  0.00  0.00    +0.000 A 
ENDBRANCH  14  15
ENDBRANCH   1  14
TORSDOF 6
ENDMDL
MODEL 7
REMARK VINA RESULT:      -7.0      4.804      5.835
REMARK  Name = 
REMARK  8 active torsions:
REMARK  status: ('A' for Active; 'I' for Inactive)
REMARK    1  A    between atoms: C_1  and  O_2
REMARK    2  A    between atoms: O_2  and  C_3
REMARK    3  A    between atoms: C_7  and  C_8
REMARK    4  A    between atoms: C_9  and  C_10
REMARK    5  A    between atoms: C_10  and  N_11
REMARK    6  A    between atoms: N_11  and  C_12
REMARK    7  A    between atoms: N_11  and  C_13
REMARK    8  A    between atoms: C_13  and  C_14
REMARK                            x       y       z     vdW  Elec       q    Type
REMARK                         _______ _______ _______ _____ _____    ______ ____
ROOT
ATOM      1  N   UNL     1       6.144   6.875  16.704  0.00  0.00    +0.000 NA
ATOM      2  C   UNL     1       5.877   5.865  15.656  0.00  0.00    +0.000 C 
ENDROOT
BRANCH   1   3
ATOM      3  C   UNL     1       7.469   6.615  17.329  0.00  0.00    +0.000 C 
BRANCH   3   5
ATOM      4  C   UNL     1       8.075   9.138  17.666  0.00  0.00    +0.000 C 
ATOM      5  C   UNL     1       8.172   7.821  18.024  0.00  0.00    +0.000 C 
BRANCH   4  10
ATOM      6  C   UNL     1       9.248  12.749  18.536  0.00  0.00    +0.000 A 
ATOM      7  C   UNL     1       9.808  12.554  19.797  0.00  0.00    +0.000 A 
ATOM      8  C   UNL     1       9.820  11.288  20.383  0.00  0.00    +0.000 A 
ATOM      9  C   UNL     1       9.275  10.182  19.712  0.00  0.00    +0.000 A 
ATOM     10  C   UNL     1       8.700  10.312  18.428  0.00  0.00    +0.000 A 
ATOM     11  C   UNL     1       8.682  11.624  17.852  0.00  0.00    +0.000 A 
BRANCH   6  13
ATOM     12  C   UNL     1      10.403  14.699  17.579  0.00  0.00    +0.000 C 
ATOM     13  O   UNL     1       9.292  14.001  18.026  0.00  0.00    +0.000 OA
ENDBRANCH   6  13
ENDBRANCH   4  10
ENDBRANCH   3   5
ENDBRANCH   1   3
BRANCH   1  14
ATOM     14  C   UNL     1       4.996   6.918  17.695  0.00  0.00    +0.000 C 
BRANCH  14  15
ATOM     15  C   UNL     1       4.659   5.540  18.305  0.00  0.00    +0.000 A 
ATOM     16  C   UNL     1       5.610   4.910  19.084  0.00  0.00    +0.000 A 
ATOM     17  O   UNL     1       5.178   3.755  19.531  0.00  0.00    +0.000 OA
ATOM     18  C   UNL     1       3.954   3.588  19.113  0.00  0.00    +0.000 A 
ATOM     19  C   UNL     1       3.157   2.478  19.395  0.00  0.00    +0.000 A 
ATOM     20  C   UNL     1       1.850   2.454  18.910  0.00  0.00    +0.000 A 
ATOM     21  C   UNL     1       1.359   3.536  18.154  0.00  0.00    +0.000 A 
ATOM     22  C   UNL     1       2.192   4.659  17.858  0.00  0.00    +0.000 A 
ATOM     23  C   UNL     1       3.527   4.663  18.351  0.00  0.00    +0.000 A 
ENDBRANCH  14  15
ENDBRANCH   1  14
TORSDOF 6
ENDMDL
MODEL 8
REMARK VINA RESULT:      -7.0      1.195      1.676
REMARK  Name = 
REMARK  8 active torsions:
REMARK  status: ('A' for Active; 'I' for Inactive)
REMARK    1  A    between atoms: C_1  and  O_2
REMARK    2  A    between atoms: O_2  and  C_3
REMARK    3  A    between atoms: C_7  and  C_8
REMARK    4  A    between atoms: C_9  and  C_10
REMARK    5  A    between atoms: C_10  and  N_11
REMARK    6  A    between atoms: N_11  and  C_12
REMARK    7  A    between atoms: N_11  and  C_13
REMARK    8  A    between atoms: C_13  and  C_14
REMARK                            x       y       z     vdW  Elec       q    Type
REMARK                         _______ _______ _______ _____ _____    ______ ____
ROOT
ATOM      1  N   UNL     1       5.066   4.840  15.777  0.00  0.00    +0.000 NA
ATOM      2  C   UNL     1       5.555   4.507  14.421  0.00  0.00    +0.000 C 
ENDROOT
BRANCH   1   3
ATOM      3  C   UNL     1       5.548   6.193  16.168  0.00  0.00    +0.000 C 
BRANCH   3   5
ATOM      4  C   UNL     1       3.336   7.119  17.214  0.00  0.00    +0.000 C 
ATOM      5  C   UNL     1       4.695   6.971  17.217  0.00  0.00    +0.000 C 
BRANCH   4  10
ATOM      6  C   UNL     1       1.064   9.712  19.027  0.00  0.00    +0.000 A 
ATOM      7  C   UNL     1       0.944   9.130  20.289  0.00  0.00    +0.000 A 
ATOM      8  C   UNL     1       1.574   7.919  20.576  0.00  0.00    +0.000 A 
ATOM      9  C   UNL     1       2.349   7.265  19.606  0.00  0.00    +0.000 A 
ATOM     10  C   UNL     1       2.516   7.807  18.312  0.00  0.00    +0.000 A 
ATOM     11  C   UNL     1       1.846   9.042  18.031  0.00  0.00    +0.000 A 
BRANCH   6  13
ATOM     12  C   UNL     1       0.351  11.966  19.706  0.00  0.00    +0.000 C 
ATOM     13  O   UNL     1       0.440  10.896  18.831  0.00  0.00    +0.000 OA
ENDBRANCH   6  13
ENDBRANCH   4  10
ENDBRANCH   3   5
ENDBRANCH   1   3
BRANCH   1  14
ATOM     14  C   UNL     1       5.449   3.746  16.756  0.00  0.00    +0.000 C 
BRANCH  14  15
ATOM     15  C   UNL     1       4.613   3.761  18.054  0.00  0.00    +0.000 A 
ATOM     16  C   UNL     1       5.229   4.128  19.234  0.00  0.00    +0.000 A 
ATOM     17  O   UNL     1       4.392   4.096  20.244  0.00  0.00    +0.000 OA
ATOM     18  C   UNL     1       3.219   3.752  19.790  0.00  0.00    +0.000 A 
ATOM     19  C   UNL     1       2.069   3.619  20.569  0.00  0.00    +0.000 A 
ATOM     20  C   UNL     1       0.872   3.279  19.938  0.00  0.00    +0.000 A 
ATOM     21  C   UNL     1       0.842   3.079  18.545  0.00  0.00    +0.000 A 
ATOM     22  C   UNL     1       2.032   3.202  17.762  0.00  0.00    +0.000 A 
ATOM     23  C   UNL     1       3.247   3.538  18.423  0.00  0.00    +0.000 A 
ENDBRANCH  14  15
ENDBRANCH   1  14
TORSDOF 6
ENDMDL
MODEL 9
REMARK VINA RESULT:      -6.9      5.156      6.108
REMARK  Name = 
REMARK  8 active torsions:
REMARK  status: ('A' for Active; 'I' for Inactive)
REMARK    1  A    between atoms: C_1  and  O_2
REMARK    2  A    between atoms: O_2  and  C_3
REMARK    3  A    between atoms: C_7  and  C_8
REMARK    4  A    between atoms: C_9  and  C_10
REMARK    5  A    between atoms: C_10  and  N_11
REMARK    6  A    between atoms: N_11  and  C_12
REMARK    7  A    between atoms: N_11  and  C_13
REMARK    8  A    between atoms: C_13  and  C_14
REMARK                            x       y       z     vdW  Elec       q    Type
REMARK                         _______ _______ _______ _____ _____    ______ ____
ROOT
ATOM      1  N   UNL     1       7.598   5.842  17.698  0.00  0.00    +0.000 NA
ATOM      2  C   UNL     1       7.377   5.692  19.154  0.00  0.00    +0.000 C 
ENDROOT
BRANCH   1   3
ATOM      3  C   UNL     1       7.392   7.262  17.301  0.00  0.00    +0.000 C 
BRANCH   3   5
ATOM      4  C   UNL     1       8.420   9.631  17.720  0.00  0.00    +0.000 C 
ATOM      5  C   UNL     1       8.178   8.341  18.106  0.00  0.00    +0.000 C 
BRANCH   4  10
ATOM      6  C   UNL     1      10.005  13.023  18.795  0.00  0.00    +0.000 A 
ATOM      7  C   UNL     1      10.364  12.746  20.114  0.00  0.00    +0.000 A 
ATOM      8  C   UNL     1      10.109  11.494  20.673  0.00  0.00    +0.000 A 
ATOM      9  C   UNL     1       9.493  10.483  19.919  0.00  0.00    +0.000 A 
ATOM     10  C   UNL     1       9.113  10.698  18.576  0.00  0.00    +0.000 A 
ATOM     11  C   UNL     1       9.368  11.996  18.026  0.00  0.00    +0.000 A 
BRANCH   6  13
ATOM     12  C   UNL     1       9.425  15.265  17.967  0.00  0.00    +0.000 C 
ATOM     13  O   UNL     1      10.303  14.252  18.318  0.00  0.00    +0.000 OA
ENDBRANCH   6  13
ENDBRANCH   4  10
ENDBRANCH   3   5
ENDBRANCH   1   3
BRANCH   1  14
ATOM     14  C   UNL     1       6.733   4.858  16.933  0.00  0.00    +0.000 C 
BRANCH  14  15
ATOM     15  C   UNL     1       5.230   4.970  17.270  0.00  0.00    +0.000 A 
ATOM     16  C   UNL     1       4.631   6.214  17.223  0.00  0.00    +0.000 A 
ATOM     17  O   UNL     1       3.358   6.146  17.530  0.00  0.00    +0.000 OA
ATOM     18  C   UNL     1       3.057   4.897  17.753  0.00  0.00    +0.000 A 
ATOM     19  C   UNL     1       1.789   4.430  18.099  0.00  0.00    +0.000 A 
ATOM     20  C   UNL     1       1.608   3.057  18.271  0.00  0.00    +0.000 A 
ATOM     21  C   UNL     1       2.692   2.176  18.095  0.00  0.00    +0.000 A 
ATOM     22  C   UNL     1       3.990   2.671  17.757  0.00  0.00    +0.000 A 
ATOM     23  C   UNL     1       4.160   4.075  17.597  0.00  0.00    +0.000 A 
ENDBRANCH  14  15
ENDBRANCH   1  14
TORSDOF 6
ENDMDL
