MODEL 1
REMARK VINA RESULT:      -7.8      0.000      0.000
REMARK  Name = 
REMARK  7 active torsions:
REMARK  status: ('A' for Active; 'I' for Inactive)
REMARK    1  A    between atoms: C_2  and  C_3
REMARK    2  A    between atoms: C_4  and  C_5
REMARK    3  A    between atoms: C_4  and  C_12
REMARK    4  A    between atoms: N_19  and  S_20
REMARK    5  A    between atoms: S_20  and  N_23
REMARK    6  A    between atoms: N_23  and  C_24
REMARK    7  A    between atoms: N_23  and  C_25
REMARK                            x       y       z     vdW  Elec       q    Type
REMARK                         _______ _______ _______ _____ _____    ______ ____
ROOT
ATOM      1  C   UNL     1       2.020   8.062  19.280  0.00  0.00    +0.000 A 
ATOM      2  C   UNL     1       2.616   8.602  18.132  0.00  0.00    +0.000 A 
ATOM      3  C   UNL     1       3.442   7.820  17.309  0.00  0.00    +0.000 A 
ATOM      4  C   UNL     1       3.654   6.474  17.641  0.00  0.00    +0.000 A 
ATOM      5  N   UNL     1       4.379   5.522  16.965  0.00  0.00    +0.000 NA
ATOM      6  C   UNL     1       4.239   4.410  17.649  0.00  0.00    +0.000 A 
ATOM      7  N   UNL     1       4.709   3.215  17.257  0.00  0.00    +0.000 N 
ATOM      8  N   UNL     1       3.512   4.646  18.794  0.00  0.00    +0.000 N 
ATOM      9  C   UNL     1       3.069   5.950  18.792  0.00  0.00    +0.000 A 
ATOM     10  C   UNL     1       2.250   6.719  19.637  0.00  0.00    +0.000 A 
ATOM     11  H   UNL     1       5.387   3.180  16.502  0.00  0.00    +0.000 HD
ATOM     12  H   UNL     1       4.696   2.395  17.868  0.00  0.00    +0.000 HD
ENDROOT
BRANCH   8  13
ATOM     13  S   UNL     1       3.248   3.537  20.038  0.00  0.00    +0.000 S 
ATOM     14  O   UNL     1       4.310   2.551  19.958  0.00  0.00    +0.000 OA
ATOM     15  O   UNL     1       3.086   4.350  21.228  0.00  0.00    +0.000 OA
BRANCH  13  16
ATOM     16  N   UNL     1       1.771   2.685  19.797  0.00  0.00    +0.000 NA
ATOM     17  C   UNL     1       0.552   3.439  20.171  0.00  0.00    +0.000 C 
ATOM     18  C   UNL     1       1.655   2.150  18.414  0.00  0.00    +0.000 C 
ENDBRANCH  13  16
ENDBRANCH   8  13
BRANCH   1  20
ATOM     19  C   UNL     1       0.936   8.533  21.399  0.00  0.00    +0.000 C 
ATOM     20  C   UNL     1       1.125   8.902  20.114  0.00  0.00    +0.000 C 
BRANCH  20  21
ATOM     21  C   UNL     1       0.410  10.083  19.579  0.00  0.00    +0.000 A 
ATOM     22  C   UNL     1      -0.807   9.941  18.894  0.00  0.00    +0.000 A 
ATOM     23  C   UNL     1      -1.425  11.053  18.315  0.00  0.00    +0.000 A 
ATOM     24  C   UNL     1      -0.836  12.312  18.426  0.00  0.00    +0.000 A 
ATOM     25  C   UNL     1       0.359  12.449  19.123  0.00  0.00    +0.000 A 
ATOM     26  F   UNL     1       0.924  13.660  19.229  0.00  0.00    +0.000 F 
ATOM     27  C   UNL     1       0.988  11.351  19.698  0.00  0.00    +0.000 A 
ENDBRANCH  20  21
BRANCH  19  29
ATOM     28  C   UNL     1      -0.627   9.809  23.086  0.00  0.00    +0.000 C 
ATOM     29  C   UNL     1       0.084   9.225  22.312  0.00  0.00    +0.000 C 
ENDBRANCH  19  29
ENDBRANCH   1  20
TORSDOF 5
ENDMDL
MODEL 2
REMARK VINA RESULT:      -7.7      0.911      1.301
REMARK  Name = 
REMARK  7 active torsions:
REMARK  status: ('A' for Active; 'I' for Inactive)
REMARK    1  A    between atoms: C_2  and  C_3
REMARK    2  A    between atoms: C_4  and  C_5
REMARK    3  A    between atoms: C_4  and  C_12
REMARK    4  A    between atoms: N_19  and  S_20
REMARK    5  A    between atoms: S_20  and  N_23
REMARK    6  A    between atoms: N_23  and  C_24
REMARK    7  A    between atoms: N_23  and  C_25
REMARK                            x       y       z     vdW  Elec       q    Type
REMARK                         _______ _______ _______ _____ _____    ______ ____
ROOT
ATOM      1  C   UNL     1       2.015   8.042  19.323  0.00  0.00    +0.000 A 
ATOM      2  C   UNL     1       2.622   8.558  18.170  0.00  0.00    +0.000 A 
ATOM      3  C   UNL     1       3.436   7.754  17.358  0.00  0.00    +0.000 A 
ATOM      4  C   UNL     1       3.626   6.408  17.707  0.00  0.00    +0.000 A 
ATOM      5  N   UNL     1       4.336   5.436  17.043  0.00  0.00    +0.000 NA
ATOM      6  C   UNL     1       4.177   4.335  17.741  0.00  0.00    +0.000 A 
ATOM      7  N   UNL     1       4.628   3.128  17.364  0.00  0.00    +0.000 N 
ATOM      8  N   UNL     1       3.452   4.597  18.881  0.00  0.00    +0.000 N 
ATOM      9  C   UNL     1       3.030   5.907  18.863  0.00  0.00    +0.000 A 
ATOM     10  C   UNL     1       2.223   6.700  19.697  0.00  0.00    +0.000 A 
ATOM     11  H   UNL     1       5.306   3.073  16.611  0.00  0.00    +0.000 HD
ATOM     12  H   UNL     1       4.600   2.315  17.985  0.00  0.00    +0.000 HD
ENDROOT
BRANCH   8  13
ATOM     13  S   UNL     1       3.168   3.508  20.139  0.00  0.00    +0.000 S 
ATOM     14  O   UNL     1       4.235   2.524  20.095  0.00  0.00    +0.000 OA
ATOM     15  O   UNL     1       2.981   4.340  21.311  0.00  0.00    +0.000 OA
BRANCH  13  16
ATOM     16  N   UNL     1       1.698   2.647  19.884  0.00  0.00    +0.000 NA
ATOM     17  C   UNL     1       0.471   3.465  20.014  0.00  0.00    +0.000 C 
ATOM     18  C   UNL     1       1.703   1.905  18.595  0.00  0.00    +0.000 C 
ENDBRANCH  13  16
ENDBRANCH   8  13
BRANCH   1  20
ATOM     19  C   UNL     1       0.921   8.547  21.430  0.00  0.00    +0.000 C 
ATOM     20  C   UNL     1       1.133   8.907  20.145  0.00  0.00    +0.000 C 
BRANCH  20  21
ATOM     21  C   UNL     1       0.451  10.103  19.600  0.00  0.00    +0.000 A 
ATOM     22  C   UNL     1       1.004  11.383  19.756  0.00  0.00    +0.000 A 
ATOM     23  C   UNL     1       0.306  12.513  19.318  0.00  0.00    +0.000 A 
ATOM     24  C   UNL     1      -0.942  12.366  18.713  0.00  0.00    +0.000 A 
ATOM     25  C   UNL     1      -1.476  11.094  18.544  0.00  0.00    +0.000 A 
ATOM     26  F   UNL     1      -2.675  10.955  17.962  0.00  0.00    +0.000 F 
ATOM     27  C   UNL     1      -0.795   9.963  18.981  0.00  0.00    +0.000 A 
ENDBRANCH  20  21
BRANCH  19  29
ATOM     28  C   UNL     1      -0.638   9.867  23.086  0.00  0.00    +0.000 C 
ATOM     29  C   UNL     1       0.078   9.264  22.332  0.00  0.00    +0.000 C 
ENDBRANCH  19  29
ENDBRANCH   1  20
TORSDOF 5
ENDMDL
MODEL 3
REMARK VINA RESULT:      -7.6      1.269      1.698
REMARK  Name = 
REMARK  7 active torsions:
REMARK  status: ('A' for Active; 'I' for Inactive)
REMARK    1  A    between atoms: C_2  and  C_3
REMARK    2  A    between atoms: C_4  and  C_5
REMARK    3  A    between atoms: C_4  and  C_12
REMARK    4  A    between atoms: N_19  and  S_20
REMARK    5  A    between atoms: S_20  and  N_23
REMARK    6  A    between atoms: N_23  and  C_24
REMARK    7  A    between atoms: N_23  and  C_25
REMARK                            x       y       z     vdW  Elec       q    Type
REMARK                         _______ _______ _______ _____ _____    ______ ____
ROOT
ATOM      1  C   UNL     1       2.366   7.738  18.899  0.00  0.00    +0.000 A 
ATOM      2  C   UNL     1       3.045   8.369  17.848  0.00  0.00    +0.000 A 
ATOM      3  C   UNL     1       3.915   7.651  17.014  0.00  0.00    +0.000 A 
ATOM      4  C   UNL     1       4.089   6.276  17.235  0.00  0.00    +0.000 A 
ATOM      5  N   UNL     1       4.847   5.376  16.524  0.00  0.00    +0.000 NA
ATOM      6  C   UNL     1       4.647   4.210  17.093  0.00  0.00    +0.000 A 
ATOM      7  N   UNL     1       5.129   3.047  16.625  0.00  0.00    +0.000 N 
ATOM      8  N   UNL     1       3.847   4.355  18.203  0.00  0.00    +0.000 N 
ATOM      9  C   UNL     1       3.420   5.661  18.291  0.00  0.00    +0.000 A 
ATOM     10  C   UNL     1       2.555   6.365  19.146  0.00  0.00    +0.000 A 
ATOM     11  H   UNL     1       5.856   3.069  15.917  0.00  0.00    +0.000 HD
ATOM     12  H   UNL     1       5.064   2.175  17.156  0.00  0.00    +0.000 HD
ENDROOT
BRANCH   8  13
ATOM     13  S   UNL     1       3.485   3.142  19.320  0.00  0.00    +0.000 S 
ATOM     14  O   UNL     1       3.099   1.968  18.559  0.00  0.00    +0.000 OA
ATOM     15  O   UNL     1       4.634   3.102  20.204  0.00  0.00    +0.000 OA
BRANCH  13  16
ATOM     16  N   UNL     1       2.120   3.576  20.276  0.00  0.00    +0.000 NA
ATOM     17  C   UNL     1       0.819   3.103  19.748  0.00  0.00    +0.000 C 
ATOM     18  C   UNL     1       2.287   3.180  21.699  0.00  0.00    +0.000 C 
ENDBRANCH  13  16
ENDBRANCH   8  13
BRANCH   1  20
ATOM     19  C   UNL     1       1.203   8.076  21.002  0.00  0.00    +0.000 C 
ATOM     20  C   UNL     1       1.426   8.516  19.745  0.00  0.00    +0.000 C 
BRANCH  20  21
ATOM     21  C   UNL     1       0.702   9.708  19.249  0.00  0.00    +0.000 A 
ATOM     22  C   UNL     1       1.109  11.002  19.610  0.00  0.00    +0.000 A 
ATOM     23  C   UNL     1       0.362  12.114  19.210  0.00  0.00    +0.000 A 
ATOM     24  C   UNL     1      -0.787  11.939  18.440  0.00  0.00    +0.000 A 
ATOM     25  C   UNL     1      -1.174  10.656  18.069  0.00  0.00    +0.000 A 
ATOM     26  F   UNL     1      -2.278  10.490  17.328  0.00  0.00    +0.000 F 
ATOM     27  C   UNL     1      -0.445   9.541  18.464  0.00  0.00    +0.000 A 
ENDBRANCH  20  21
BRANCH  19  29
ATOM     28  C   UNL     1      -0.441   9.230  22.699  0.00  0.00    +0.000 C 
ATOM     29  C   UNL     1       0.307   8.703  21.921  0.00  0.00    +0.000 C 
ENDBRANCH  19  29
ENDBRANCH   1  20
TORSDOF 5
ENDMDL
MODEL 4
REMARK VINA RESULT:      -7.6      4.965      8.136
REMARK  Name = 
REMARK  7 active torsions:
REMARK  status: ('A' for Active; 'I' for Inactive)
REMARK    1  A    between atoms: C_2  and  C_3
REMARK    2  A    between atoms: C_4  and  C_5
REMARK    3  A    between atoms: C_4  and  C_12
REMARK    4  A    between atoms: N_19  and  S_20
REMARK    5  A    between atoms: S_20  and  N_23
REMARK    6  A    between atoms: N_23  and  C_24
REMARK    7  A    between atoms: N_23  and  C_25
REMARK                            x       y       z     vdW  Elec       q    Type
REMARK                         _______ _______ _______ _____ _____    ______ ____
ROOT
ATOM      1  C   UNL     1       2.175   7.400  19.401  0.00  0.00    +0.000 A 
ATOM      2  C   UNL     1       1.697   6.821  20.585  0.00  0.00    +0.000 A 
ATOM      3  C   UNL     1       0.886   7.547  21.470  0.00  0.00    +0.000 A 
ATOM      4  C   UNL     1       0.541   8.868  21.148  0.00  0.00    +0.000 A 
ATOM      5  N   UNL     1      -0.268   9.742  21.836  0.00  0.00    +0.000 NA
ATOM      6  C   UNL     1      -0.315  10.835  21.110  0.00  0.00    +0.000 A 
ATOM      7  N   UNL     1      -1.093  11.894  21.386  0.00  0.00    +0.000 N 
ATOM      8  N   UNL     1       0.512  10.714  20.017  0.00  0.00    +0.000 N 
ATOM      9  C   UNL     1       1.032   9.440  19.977  0.00  0.00    +0.000 A 
ATOM     10  C   UNL     1       1.857   8.734  19.083  0.00  0.00    +0.000 A 
ATOM     11  H   UNL     1      -1.517  11.962  22.306  0.00  0.00    +0.000 HD
ATOM     12  H   UNL     1      -1.015  12.777  20.876  0.00  0.00    +0.000 HD
ENDROOT
BRANCH   8  13
ATOM     13  S   UNL     1       0.881  11.944  18.921  0.00  0.00    +0.000 S 
ATOM     14  O   UNL     1       2.095  11.546  18.233  0.00  0.00    +0.000 OA
ATOM     15  O   UNL     1      -0.347  12.160  18.182  0.00  0.00    +0.000 OA
BRANCH  13  16
ATOM     16  N   UNL     1       1.245  13.411  19.746  0.00  0.00    +0.000 NA
ATOM     17  C   UNL     1       2.681  13.776  19.756  0.00  0.00    +0.000 C 
ATOM     18  C   UNL     1       0.417  14.545  19.258  0.00  0.00    +0.000 C 
ENDBRANCH  13  16
ENDBRANCH   8  13
BRANCH   1  20
ATOM     19  C   UNL     1       3.773   7.265  17.580  0.00  0.00    +0.000 C 
ATOM     20  C   UNL     1       3.003   6.598  18.467  0.00  0.00    +0.000 C 
BRANCH  20  21
ATOM     21  C   UNL     1       2.978   5.118  18.445  0.00  0.00    +0.000 A 
ATOM     22  C   UNL     1       1.958   4.423  17.776  0.00  0.00    +0.000 A 
ATOM     23  C   UNL     1       1.894   3.028  17.841  0.00  0.00    +0.000 A 
ATOM     24  C   UNL     1       2.855   2.322  18.565  0.00  0.00    +0.000 A 
ATOM     25  C   UNL     1       3.873   3.014  19.209  0.00  0.00    +0.000 A 
ATOM     26  F   UNL     1       4.796   2.333  19.903  0.00  0.00    +0.000 F 
ATOM     27  C   UNL     1       3.945   4.401  19.158  0.00  0.00    +0.000 A 
ENDBRANCH  20  21
BRANCH  19  29
ATOM     28  C   UNL     1       5.302   6.097  15.788  0.00  0.00    +0.000 C 
ATOM     29  C   UNL     1       4.600   6.631  16.605  0.00  0.00    +0.000 C 
ENDBRANCH  19  29
ENDBRANCH   1  20
TORSDOF 5
ENDMDL
MODEL 5
REMARK VINA RESULT:      -7.5      4.719      7.983
REMARK  Name = 
REMARK  7 active torsions:
REMARK  status: ('A' for Active; 'I' for Inactive)
REMARK    1  A    between atoms: C_2  and  C_3
REMARK    2  A    between atoms: C_4  and  C_5
REMARK    3  A    between atoms: C_4  and  C_12
REMARK    4  A    between atoms: N_19  and  S_20
REMARK    5  A    between atoms: S_20  and  N_23
REMARK    6  A    between atoms: N_23  and  C_24
REMARK    7  A    between atoms: N_23  and  C_25
REMARK                            x       y       z     vdW  Elec       q    Type
REMARK                         _______ _______ _______ _____ _____    ______ ____
ROOT
ATOM      1  C   UNL     1       2.426   6.895  19.325  0.00  0.00    +0.000 A 
ATOM      2  C   UNL     1       1.922   6.262  20.470  0.00  0.00    +0.000 A 
ATOM      3  C   UNL     1       1.108   6.954  21.381  0.00  0.00    +0.000 A 
ATOM      4  C   UNL     1       0.788   8.296  21.124  0.00  0.00    +0.000 A 
ATOM      5  N   UNL     1      -0.018   9.145  21.845  0.00  0.00    +0.000 NA
ATOM      6  C   UNL     1      -0.039  10.274  21.176  0.00  0.00    +0.000 A 
ATOM      7  N   UNL     1      -0.804  11.330  21.497  0.00  0.00    +0.000 N 
ATOM      8  N   UNL     1       0.803  10.198  20.090  0.00  0.00    +0.000 N 
ATOM      9  C   UNL     1       1.305   8.920  19.991  0.00  0.00    +0.000 A 
ATOM     10  C   UNL     1       2.133   8.249  19.073  0.00  0.00    +0.000 A 
ATOM     11  H   UNL     1      -1.241  11.356  22.413  0.00  0.00    +0.000 HD
ATOM     12  H   UNL     1      -0.705  12.237  21.035  0.00  0.00    +0.000 HD
ENDROOT
BRANCH   8  13
ATOM     13  S   UNL     1       1.207  11.478  19.066  0.00  0.00    +0.000 S 
ATOM     14  O   UNL     1       1.635  12.577  19.913  0.00  0.00    +0.000 OA
ATOM     15  O   UNL     1       2.116  10.900  18.096  0.00  0.00    +0.000 OA
BRANCH  13  16
ATOM     16  N   UNL     1      -0.176  12.034  18.204  0.00  0.00    +0.000 NA
ATOM     17  C   UNL     1      -1.269  11.042  18.080  0.00  0.00    +0.000 C 
ATOM     18  C   UNL     1      -0.690  13.320  18.745  0.00  0.00    +0.000 C 
ENDBRANCH  13  16
ENDBRANCH   8  13
BRANCH   1  20
ATOM     19  C   UNL     1       3.983   6.831  17.465  0.00  0.00    +0.000 C 
ATOM     20  C   UNL     1       3.256   6.130  18.362  0.00  0.00    +0.000 C 
BRANCH  20  21
ATOM     21  C   UNL     1       3.277   4.651  18.323  0.00  0.00    +0.000 A 
ATOM     22  C   UNL     1       2.395   3.937  17.496  0.00  0.00    +0.000 A 
ATOM     23  C   UNL     1       2.362   2.540  17.537  0.00  0.00    +0.000 A 
ATOM     24  C   UNL     1       3.216   1.850  18.397  0.00  0.00    +0.000 A 
ATOM     25  C   UNL     1       4.100   2.561  19.200  0.00  0.00    +0.000 A 
ATOM     26  F   UNL     1       4.920   1.896  20.025  0.00  0.00    +0.000 F 
ATOM     27  C   UNL     1       4.139   3.950  19.174  0.00  0.00    +0.000 A 
ENDBRANCH  20  21
BRANCH  19  29
ATOM     28  C   UNL     1       5.497   5.725  15.621  0.00  0.00    +0.000 C 
ATOM     29  C   UNL     1       4.805   6.234  16.462  0.00  0.00    +0.000 C 
ENDBRANCH  19  29
ENDBRANCH   1  20
TORSDOF 5
ENDMDL
MODEL 6
REMARK VINA RESULT:      -7.3      2.107      3.965
REMARK  Name = 
REMARK  7 active torsions:
REMARK  status: ('A' for Active; 'I' for Inactive)
REMARK    1  A    between atoms: C_2  and  C_3
REMARK    2  A    between atoms: C_4  and  C_5
REMARK    3  A    between atoms: C_4  and  C_12
REMARK    4  A    between atoms: N_19  and  S_20
REMARK    5  A    between atoms: S_20  and  N_23
REMARK    6  A    between atoms: N_23  and  C_24
REMARK    7  A    between atoms: N_23  and  C_25
REMARK                            x       y       z     vdW  Elec       q    Type
REMARK                         _______ _______ _______ _____ _____    ______ ____
ROOT
ATOM      1  C   UNL     1       2.042   6.860  19.823  0.00  0.00    +0.000 A 
ATOM      2  C   UNL     1       1.191   6.060  20.599  0.00  0.00    +0.000 A 
ATOM      3  C   UNL     1       1.464   4.699  20.802  0.00  0.00    +0.000 A 
ATOM      4  C   UNL     1       2.617   4.143  20.228  0.00  0.00    +0.000 A 
ATOM      5  N   UNL     1       3.100   2.860  20.330  0.00  0.00    +0.000 NA
ATOM      6  C   UNL     1       4.226   2.845  19.655  0.00  0.00    +0.000 A 
ATOM      7  N   UNL     1       5.064   1.797  19.602  0.00  0.00    +0.000 N 
ATOM      8  N   UNL     1       4.433   4.065  19.051  0.00  0.00    +0.000 N 
ATOM      9  C   UNL     1       3.449   4.942  19.447  0.00  0.00    +0.000 A 
ATOM     10  C   UNL     1       3.186   6.305  19.220  0.00  0.00    +0.000 A 
ATOM     11  H   UNL     1       4.734   0.892  19.920  0.00  0.00    +0.000 HD
ATOM     12  H   UNL     1       5.866   1.770  18.968  0.00  0.00    +0.000 HD
ENDROOT
BRANCH   8  13
ATOM     13  S   UNL     1       5.664   4.423  17.953  0.00  0.00    +0.000 S 
ATOM     14  O   UNL     1       6.921   4.251  18.657  0.00  0.00    +0.000 OA
ATOM     15  O   UNL     1       5.359   3.622  16.784  0.00  0.00    +0.000 OA
BRANCH  13  16
ATOM     16  N   UNL     1       5.595   6.075  17.473  0.00  0.00    +0.000 NA
ATOM     17  C   UNL     1       6.846   6.837  17.693  0.00  0.00    +0.000 C 
ATOM     18  C   UNL     1       5.125   6.229  16.071  0.00  0.00    +0.000 C 
ENDBRANCH  13  16
ENDBRANCH   8  13
BRANCH   1  20
ATOM     19  C   UNL     1       2.220   8.915  18.544  0.00  0.00    +0.000 C 
ATOM     20  C   UNL     1       1.747   8.305  19.652  0.00  0.00    +0.000 C 
BRANCH  20  21
ATOM     21  C   UNL     1       1.005   9.094  20.661  0.00  0.00    +0.000 A 
ATOM     22  C   UNL     1       1.277   8.954  22.031  0.00  0.00    +0.000 A 
ATOM     23  C   UNL     1       0.507   9.636  22.978  0.00  0.00    +0.000 A 
ATOM     24  C   UNL     1      -0.530  10.469  22.559  0.00  0.00    +0.000 A 
ATOM     25  C   UNL     1      -0.782  10.619  21.201  0.00  0.00    +0.000 A 
ATOM     26  F   UNL     1      -1.779  11.421  20.801  0.00  0.00    +0.000 F 
ATOM     27  C   UNL     1      -0.029   9.942  20.249  0.00  0.00    +0.000 A 
ENDBRANCH  20  21
BRANCH  19  29
ATOM     28  C   UNL     1       1.891  11.468  18.009  0.00  0.00    +0.000 C 
ATOM     29  C   UNL     1       2.039  10.302  18.257  0.00  0.00    +0.000 C 
ENDBRANCH  19  29
ENDBRANCH   1  20
TORSDOF 5
ENDMDL
MODEL 7
REMARK VINA RESULT:      -7.3      4.990      8.191
REMARK  Name = 
REMARK  7 active torsions:
REMARK  status: ('A' for Active; 'I' for Inactive)
REMARK    1  A    between atoms: C_2  and  C_3
REMARK    2  A    between atoms: C_4  and  C_5
REMARK    3  A    between atoms: C_4  and  C_12
REMARK    4  A    between atoms: N_19  and  S_20
REMARK    5  A    between atoms: S_20  and  N_23
REMARK    6  A    between atoms: N_23  and  C_24
REMARK    7  A    between atoms: N_23  and  C_25
REMARK                            x       y       z     vdW  Elec       q    Type
REMARK                         _______ _______ _______ _____ _____    ______ ____
ROOT
ATOM      1  C   UNL     1       2.168   7.515  19.478  0.00  0.00    +0.000 A 
ATOM      2  C   UNL     1       1.646   6.926  20.638  0.00  0.00    +0.000 A 
ATOM      3  C   UNL     1       0.783   7.638  21.485  0.00  0.00    +0.000 A 
ATOM      4  C   UNL     1       0.432   8.954  21.149  0.00  0.00    +0.000 A 
ATOM      5  N   UNL     1      -0.422   9.813  21.799  0.00  0.00    +0.000 NA
ATOM      6  C   UNL     1      -0.454  10.906  21.072  0.00  0.00    +0.000 A 
ATOM      7  N   UNL     1      -1.261  11.952  21.313  0.00  0.00    +0.000 N 
ATOM      8  N   UNL     1       0.424  10.801  20.018  0.00  0.00    +0.000 N 
ATOM      9  C   UNL     1       0.967   9.535  20.001  0.00  0.00    +0.000 A 
ATOM     10  C   UNL     1       1.844   8.844  19.146  0.00  0.00    +0.000 A 
ATOM     11  H   UNL     1      -1.728  12.012  22.212  0.00  0.00    +0.000 HD
ATOM     12  H   UNL     1      -1.174  12.837  20.807  0.00  0.00    +0.000 HD
ENDROOT
BRANCH   8  13
ATOM     13  S   UNL     1       0.824  12.038  18.942  0.00  0.00    +0.000 S 
ATOM     14  O   UNL     1       2.057  11.644  18.285  0.00  0.00    +0.000 OA
ATOM     15  O   UNL     1      -0.384  12.258  18.170  0.00  0.00    +0.000 OA
BRANCH  13  16
ATOM     16  N   UNL     1       1.164  13.499  19.786  0.00  0.00    +0.000 NA
ATOM     17  C   UNL     1       2.365  13.449  20.652  0.00  0.00    +0.000 C 
ATOM     18  C   UNL     1       1.223  14.671  18.872  0.00  0.00    +0.000 C 
ENDBRANCH  13  16
ENDBRANCH   8  13
BRANCH   1  20
ATOM     19  C   UNL     1       3.656   7.380  17.566  0.00  0.00    +0.000 C 
ATOM     20  C   UNL     1       3.052   6.728  18.583  0.00  0.00    +0.000 C 
BRANCH  20  21
ATOM     21  C   UNL     1       3.252   5.269  18.737  0.00  0.00    +0.000 A 
ATOM     22  C   UNL     1       4.407   4.759  19.350  0.00  0.00    +0.000 A 
ATOM     23  C   UNL     1       4.626   3.379  19.406  0.00  0.00    +0.000 A 
ATOM     24  C   UNL     1       3.689   2.505  18.859  0.00  0.00    +0.000 A 
ATOM     25  C   UNL     1       2.538   3.014  18.270  0.00  0.00    +0.000 A 
ATOM     26  F   UNL     1       1.637   2.172  17.745  0.00  0.00    +0.000 F 
ATOM     27  C   UNL     1       2.310   4.384  18.202  0.00  0.00    +0.000 A 
ENDBRANCH  20  21
BRANCH  19  29
ATOM     28  C   UNL     1       5.224   6.218  15.804  0.00  0.00    +0.000 C 
ATOM     29  C   UNL     1       4.510   6.752  16.610  0.00  0.00    +0.000 C 
ENDBRANCH  19  29
ENDBRANCH   1  20
TORSDOF 5
ENDMDL
MODEL 8
REMARK VINA RESULT:      -7.3      2.306      4.011
REMARK  Name = 
REMARK  7 active torsions:
REMARK  status: ('A' for Active; 'I' for Inactive)
REMARK    1  A    between atoms: C_2  and  C_3
REMARK    2  A    between atoms: C_4  and  C_5
REMARK    3  A    between atoms: C_4  and  C_12
REMARK    4  A    between atoms: N_19  and  S_20
REMARK    5  A    between atoms: S_20  and  N_23
REMARK    6  A    between atoms: N_23  and  C_24
REMARK    7  A    between atoms: N_23  and  C_25
REMARK                            x       y       z     vdW  Elec       q    Type
REMARK                         _______ _______ _______ _____ _____    ______ ____
ROOT
ATOM      1  C   UNL     1       2.033   6.847  19.764  0.00  0.00    +0.000 A 
ATOM      2  C   UNL     1       1.191   6.049  20.551  0.00  0.00    +0.000 A 
ATOM      3  C   UNL     1       1.479   4.694  20.774  0.00  0.00    +0.000 A 
ATOM      4  C   UNL     1       2.639   4.143  20.208  0.00  0.00    +0.000 A 
ATOM      5  N   UNL     1       3.136   2.867  20.329  0.00  0.00    +0.000 NA
ATOM      6  C   UNL     1       4.263   2.856  19.655  0.00  0.00    +0.000 A 
ATOM      7  N   UNL     1       5.112   1.817  19.617  0.00  0.00    +0.000 N 
ATOM      8  N   UNL     1       4.457   4.069  19.034  0.00  0.00    +0.000 N 
ATOM      9  C   UNL     1       3.462   4.941  19.417  0.00  0.00    +0.000 A 
ATOM     10  C   UNL     1       3.184   6.297  19.170  0.00  0.00    +0.000 A 
ATOM     11  H   UNL     1       4.792   0.912  19.949  0.00  0.00    +0.000 HD
ATOM     12  H   UNL     1       5.916   1.790  18.985  0.00  0.00    +0.000 HD
ENDROOT
BRANCH   8  13
ATOM     13  S   UNL     1       5.684   4.426  17.932  0.00  0.00    +0.000 S 
ATOM     14  O   UNL     1       6.943   4.275  18.639  0.00  0.00    +0.000 OA
ATOM     15  O   UNL     1       5.388   3.606  16.773  0.00  0.00    +0.000 OA
BRANCH  13  16
ATOM     16  N   UNL     1       5.598   6.070  17.430  0.00  0.00    +0.000 NA
ATOM     17  C   UNL     1       6.840   6.849  17.643  0.00  0.00    +0.000 C 
ATOM     18  C   UNL     1       5.130   6.200  16.025  0.00  0.00    +0.000 C 
ENDBRANCH  13  16
ENDBRANCH   8  13
BRANCH   1  20
ATOM     19  C   UNL     1       2.298   8.919  18.528  0.00  0.00    +0.000 C 
ATOM     20  C   UNL     1       1.721   8.286  19.573  0.00  0.00    +0.000 C 
BRANCH  20  21
ATOM     21  C   UNL     1       0.854   9.047  20.500  0.00  0.00    +0.000 A 
ATOM     22  C   UNL     1      -0.101   9.954  20.015  0.00  0.00    +0.000 A 
ATOM     23  C   UNL     1      -0.849  10.734  20.902  0.00  0.00    +0.000 A 
ATOM     24  C   UNL     1      -0.654  10.603  22.276  0.00  0.00    +0.000 A 
ATOM     25  C   UNL     1       0.279   9.688  22.751  0.00  0.00    +0.000 A 
ATOM     26  F   UNL     1       0.465   9.563  24.073  0.00  0.00    +0.000 F 
ATOM     27  C   UNL     1       1.034   8.912  21.881  0.00  0.00    +0.000 A 
ENDBRANCH  20  21
BRANCH  19  29
ATOM     28  C   UNL     1       1.967  11.471  17.989  0.00  0.00    +0.000 C 
ATOM     29  C   UNL     1       2.115  10.304  18.233  0.00  0.00    +0.000 C 
ENDBRANCH  19  29
ENDBRANCH   1  20
TORSDOF 5
ENDMDL
MODEL 9
REMARK VINA RESULT:      -7.1      1.532      1.917
REMARK  Name = 
REMARK  7 active torsions:
REMARK  status: ('A' for Active; 'I' for Inactive)
REMARK    1  A    between atoms: C_2  and  C_3
REMARK    2  A    between atoms: C_4  and  C_5
REMARK    3  A    between atoms: C_4  and  C_12
REMARK    4  A    between atoms: N_19  and  S_20
REMARK    5  A    between atoms: S_20  and  N_23
REMARK    6  A    between atoms: N_23  and  C_24
REMARK    7  A    between atoms: N_23  and  C_25
REMARK                            x       y       z     vdW  Elec       q    Type
REMARK                         _______ _______ _______ _____ _____    ______ ____
ROOT
ATOM      1  C   UNL     1       2.054   8.021  19.068  0.00  0.00    +0.000 A 
ATOM      2  C   UNL     1       2.969   8.587  18.171  0.00  0.00    +0.000 A 
ATOM      3  C   UNL     1       3.813   7.781  17.391  0.00  0.00    +0.000 A 
ATOM      4  C   UNL     1       3.718   6.386  17.507  0.00  0.00    +0.000 A 
ATOM      5  N   UNL     1       4.404   5.414  16.818  0.00  0.00    +0.000 NA
ATOM      6  C   UNL     1       3.932   4.267  17.250  0.00  0.00    +0.000 A 
ATOM      7  N   UNL     1       4.269   3.071  16.744  0.00  0.00    +0.000 N 
ATOM      8  N   UNL     1       3.022   4.479  18.261  0.00  0.00    +0.000 N 
ATOM      9  C   UNL     1       2.815   5.832  18.411  0.00  0.00    +0.000 A 
ATOM     10  C   UNL     1       1.971   6.622  19.212  0.00  0.00    +0.000 A 
ATOM     11  H   UNL     1       5.081   3.008  16.137  0.00  0.00    +0.000 HD
ATOM     12  H   UNL     1       3.984   2.191  17.182  0.00  0.00    +0.000 HD
ENDROOT
BRANCH   8  13
ATOM     13  S   UNL     1       2.308   3.281  19.210  0.00  0.00    +0.000 S 
ATOM     14  O   UNL     1       1.012   3.787  19.626  0.00  0.00    +0.000 OA
ATOM     15  O   UNL     1       2.405   2.073  18.413  0.00  0.00    +0.000 OA
BRANCH  13  16
ATOM     16  N   UNL     1       3.215   3.017  20.650  0.00  0.00    +0.000 NA
ATOM     17  C   UNL     1       2.416   2.555  21.809  0.00  0.00    +0.000 C 
ATOM     18  C   UNL     1       4.377   2.119  20.420  0.00  0.00    +0.000 C 
ENDBRANCH  13  16
ENDBRANCH   8  13
BRANCH   1  20
ATOM     19  C   UNL     1       0.942   8.578  21.152  0.00  0.00    +0.000 C 
ATOM     20  C   UNL     1       1.151   8.897  19.856  0.00  0.00    +0.000 C 
BRANCH  20  21
ATOM     21  C   UNL     1       0.450  10.059  19.267  0.00  0.00    +0.000 A 
ATOM     22  C   UNL     1       0.938  11.363  19.443  0.00  0.00    +0.000 A 
ATOM     23  C   UNL     1       0.217  12.459  18.960  0.00  0.00    +0.000 A 
ATOM     24  C   UNL     1      -0.990  12.256  18.291  0.00  0.00    +0.000 A 
ATOM     25  C   UNL     1      -1.459  10.961  18.103  0.00  0.00    +0.000 A 
ATOM     26  F   UNL     1      -2.619  10.768  17.459  0.00  0.00    +0.000 F 
ATOM     27  C   UNL     1      -0.755   9.863  18.583  0.00  0.00    +0.000 A 
ENDBRANCH  20  21
BRANCH  19  29
ATOM     28  C   UNL     1      -0.644   9.918  22.765  0.00  0.00    +0.000 C 
ATOM     29  C   UNL     1       0.081   9.309  22.025  0.00  0.00    +0.000 C 
ENDBRANCH  19  29
ENDBRANCH   1  20
TORSDOF 5
ENDMDL
