MODEL 1
REMARK VINA RESULT:      -7.6      0.000      0.000
REMARK  Name = 
REMARK  5 active torsions:
REMARK  status: ('A' for Active; 'I' for Inactive)
REMARK    1  A    between atoms: C_1  and  C_2
REMARK    2  A    between atoms: C_5  and  N_6
REMARK    3  A    between atoms: N_10  and  C_11
REMARK    4  A    between atoms: C_11  and  C_12
REMARK    5  A    between atoms: C_12  and  O_13
REMARK                            x       y       z     vdW  Elec       q    Type
REMARK                         _______ _______ _______ _____ _____    ______ ____
ROOT
ATOM      1  N   UNL     1       2.997   7.813  17.952  0.00  0.00    +0.000 N 
ATOM      2  C   UNL     1       3.482   6.520  18.189  0.00  0.00    +0.000 A 
ATOM      3  N   UNL     1       4.721   6.294  17.773  0.00  0.00    +0.000 NA
ATOM      4  C   UNL     1       5.217   5.103  18.076  0.00  0.00    +0.000 A 
ATOM      5  N   UNL     1       6.497   4.769  17.682  0.00  0.00    +0.000 N 
ATOM      6  N   UNL     1       4.578   4.179  18.777  0.00  0.00    +0.000 NA
ATOM      7  C   UNL     1       3.327   4.461  19.122  0.00  0.00    +0.000 A 
ATOM      8  N   UNL     1       2.604   3.515  19.809  0.00  0.00    +0.000 N 
ATOM      9  C   UNL     1       1.236   3.749  20.237  0.00  0.00    +0.000 C 
ATOM     10  C   UNL     1       1.175   3.129  21.630  0.00  0.00    +0.000 C 
ATOM     11  C   UNL     1       2.191   2.000  21.558  0.00  0.00    +0.000 C 
ATOM     12  C   UNL     1       3.295   2.562  20.661  0.00  0.00    +0.000 C 
ATOM     13  N   UNL     1       2.752   5.617  18.830  0.00  0.00    +0.000 NA
ATOM     14  H   UNL     1       3.734   8.361  17.529  0.00  0.00    +0.000 HD
ATOM     15  H   UNL     1       6.803   3.927  18.155  0.00  0.00    +0.000 HD
ENDROOT
BRANCH   1  20
ATOM     16  C   UNL     1      -1.062  10.976  20.492  0.00  0.00    +0.000 C 
ATOM     17  C   UNL     1      -0.037  10.123  19.813  0.00  0.00    +0.000 A 
ATOM     18  C   UNL     1       0.170  10.177  18.433  0.00  0.00    +0.000 A 
ATOM     19  C   UNL     1       1.160   9.390  17.831  0.00  0.00    +0.000 A 
ATOM     20  C   UNL     1       1.981   8.542  18.590  0.00  0.00    +0.000 A 
ATOM     21  C   UNL     1       1.718   8.460  19.961  0.00  0.00    +0.000 A 
ATOM     22  C   UNL     1       0.736   9.245  20.572  0.00  0.00    +0.000 A 
ENDBRANCH   1  20
BRANCH   5  23
ATOM     23  C   UNL     1       7.482   5.818  17.467  0.00  0.00    +0.000 C 
BRANCH  23  24
ATOM     24  C   UNL     1       7.979   6.453  18.771  0.00  0.00    +0.000 C 
BRANCH  24  25
ATOM     25  O   UNL     1       8.276   5.451  19.742  0.00  0.00    +0.000 OA
ATOM     26  H   UNL     1       9.035   4.952  19.390  0.00  0.00    +0.000 HD
ENDBRANCH  24  25
ENDBRANCH  23  24
ENDBRANCH   5  23
TORSDOF 4
ENDMDL
MODEL 2
REMARK VINA RESULT:      -7.5      1.567      1.961
REMARK  Name = 
REMARK  5 active torsions:
REMARK  status: ('A' for Active; 'I' for Inactive)
REMARK    1  A    between atoms: C_1  and  C_2
REMARK    2  A    between atoms: C_5  and  N_6
REMARK    3  A    between atoms: N_10  and  C_11
REMARK    4  A    between atoms: C_11  and  C_12
REMARK    5  A    between atoms: C_12  and  O_13
REMARK                            x       y       z     vdW  Elec       q    Type
REMARK                         _______ _______ _______ _____ _____    ______ ____
ROOT
ATOM      1  N   UNL     1       3.008   7.479  17.466  0.00  0.00    +0.000 N 
ATOM      2  C   UNL     1       3.388   6.146  17.677  0.00  0.00    +0.000 A 
ATOM      3  N   UNL     1       4.450   5.744  16.992  0.00  0.00    +0.000 NA
ATOM      4  C   UNL     1       4.869   4.515  17.256  0.00  0.00    +0.000 A 
ATOM      5  N   UNL     1       5.963   4.001  16.591  0.00  0.00    +0.000 N 
ATOM      6  N   UNL     1       4.325   3.714  18.160  0.00  0.00    +0.000 NA
ATOM      7  C   UNL     1       3.240   4.170  18.775  0.00  0.00    +0.000 A 
ATOM      8  N   UNL     1       2.610   3.358  19.688  0.00  0.00    +0.000 N 
ATOM      9  C   UNL     1       1.428   3.784  20.416  0.00  0.00    +0.000 C 
ATOM     10  C   UNL     1       1.647   3.243  21.825  0.00  0.00    +0.000 C 
ATOM     11  C   UNL     1       2.480   1.991  21.596  0.00  0.00    +0.000 C 
ATOM     12  C   UNL     1       3.380   2.364  20.417  0.00  0.00    +0.000 C 
ATOM     13  N   UNL     1       2.744   5.375  18.544  0.00  0.00    +0.000 NA
ATOM     14  H   UNL     1       3.672   7.907  16.836  0.00  0.00    +0.000 HD
ATOM     15  H   UNL     1       6.281   3.151  17.038  0.00  0.00    +0.000 HD
ENDROOT
BRANCH   1  20
ATOM     16  C   UNL     1      -0.154  10.927  20.788  0.00  0.00    +0.000 C 
ATOM     17  C   UNL     1       0.708  10.041  19.946  0.00  0.00    +0.000 A 
ATOM     18  C   UNL     1       1.201   8.824  20.422  0.00  0.00    +0.000 A 
ATOM     19  C   UNL     1       1.979   8.000  19.598  0.00  0.00    +0.000 A 
ATOM     20  C   UNL     1       2.272   8.361  18.273  0.00  0.00    +0.000 A 
ATOM     21  C   UNL     1       1.818   9.609  17.836  0.00  0.00    +0.000 A 
ATOM     22  C   UNL     1       1.037  10.435  18.649  0.00  0.00    +0.000 A 
ENDBRANCH   1  20
BRANCH   5  23
ATOM     23  C   UNL     1       6.975   4.904  16.063  0.00  0.00    +0.000 C 
BRANCH  23  24
ATOM     24  C   UNL     1       7.035   4.908  14.530  0.00  0.00    +0.000 C 
BRANCH  24  25
ATOM     25  O   UNL     1       8.157   5.659  14.068  0.00  0.00    +0.000 OA
ATOM     26  H   UNL     1       8.700   5.842  14.855  0.00  0.00    +0.000 HD
ENDBRANCH  24  25
ENDBRANCH  23  24
ENDBRANCH   5  23
TORSDOF 4
ENDMDL
MODEL 3
REMARK VINA RESULT:      -7.4      1.570      1.710
REMARK  Name = 
REMARK  5 active torsions:
REMARK  status: ('A' for Active; 'I' for Inactive)
REMARK    1  A    between atoms: C_1  and  C_2
REMARK    2  A    between atoms: C_5  and  N_6
REMARK    3  A    between atoms: N_10  and  C_11
REMARK    4  A    between atoms: C_11  and  C_12
REMARK    5  A    between atoms: C_12  and  O_13
REMARK                            x       y       z     vdW  Elec       q    Type
REMARK                         _______ _______ _______ _____ _____    ______ ____
ROOT
ATOM      1  N   UNL     1       2.931   7.504  17.521  0.00  0.00    +0.000 N 
ATOM      2  C   UNL     1       3.321   6.172  17.715  0.00  0.00    +0.000 A 
ATOM      3  N   UNL     1       4.379   5.783  17.015  0.00  0.00    +0.000 NA
ATOM      4  C   UNL     1       4.809   4.555  17.262  0.00  0.00    +0.000 A 
ATOM      5  N   UNL     1       5.899   4.055  16.581  0.00  0.00    +0.000 N 
ATOM      6  N   UNL     1       4.280   3.741  18.164  0.00  0.00    +0.000 NA
ATOM      7  C   UNL     1       3.198   4.184  18.795  0.00  0.00    +0.000 A 
ATOM      8  N   UNL     1       2.583   3.358  19.706  0.00  0.00    +0.000 N 
ATOM      9  C   UNL     1       1.406   3.770  20.450  0.00  0.00    +0.000 C 
ATOM     10  C   UNL     1       1.643   3.216  21.851  0.00  0.00    +0.000 C 
ATOM     11  C   UNL     1       2.482   1.972  21.602  0.00  0.00    +0.000 C 
ATOM     12  C   UNL     1       3.367   2.363  20.417  0.00  0.00    +0.000 C 
ATOM     13  N   UNL     1       2.692   5.388  18.580  0.00  0.00    +0.000 NA
ATOM     14  H   UNL     1       3.586   7.942  16.889  0.00  0.00    +0.000 HD
ATOM     15  H   UNL     1       6.228   3.202  17.016  0.00  0.00    +0.000 HD
ENDROOT
BRANCH   1  20
ATOM     16  C   UNL     1       0.092  11.204  20.864  0.00  0.00    +0.000 C 
ATOM     17  C   UNL     1       0.792  10.229  19.970  0.00  0.00    +0.000 A 
ATOM     18  C   UNL     1       1.085  10.530  18.639  0.00  0.00    +0.000 A 
ATOM     19  C   UNL     1       1.771   9.609  17.836  0.00  0.00    +0.000 A 
ATOM     20  C   UNL     1       2.197   8.372  18.345  0.00  0.00    +0.000 A 
ATOM     21  C   UNL     1       1.843   8.069  19.663  0.00  0.00    +0.000 A 
ATOM     22  C   UNL     1       1.163   8.982  20.473  0.00  0.00    +0.000 A 
ENDBRANCH   1  20
BRANCH   5  23
ATOM     23  C   UNL     1       6.900   4.969  16.051  0.00  0.00    +0.000 C 
BRANCH  23  24
ATOM     24  C   UNL     1       7.058   4.871  14.529  0.00  0.00    +0.000 C 
BRANCH  24  25
ATOM     25  O   UNL     1       8.149   5.671  14.079  0.00  0.00    +0.000 OA
ATOM     26  H   UNL     1       8.908   5.067  13.991  0.00  0.00    +0.000 HD
ENDBRANCH  24  25
ENDBRANCH  23  24
ENDBRANCH   5  23
TORSDOF 4
ENDMDL
MODEL 4
REMARK VINA RESULT:      -7.4      0.236      1.026
REMARK  Name = 
REMARK  5 active torsions:
REMARK  status: ('A' for Active; 'I' for Inactive)
REMARK    1  A    between atoms: C_1  and  C_2
REMARK    2  A    between atoms: C_5  and  N_6
REMARK    3  A    between atoms: N_10  and  C_11
REMARK    4  A    between atoms: C_11  and  C_12
REMARK    5  A    between atoms: C_12  and  O_13
REMARK                            x       y       z     vdW  Elec       q    Type
REMARK                         _______ _______ _______ _____ _____    ______ ____
ROOT
ATOM      1  N   UNL     1       3.157   7.627  17.852  0.00  0.00    +0.000 N 
ATOM      2  C   UNL     1       3.595   6.327  18.141  0.00  0.00    +0.000 A 
ATOM      3  N   UNL     1       4.832   6.045  17.754  0.00  0.00    +0.000 NA
ATOM      4  C   UNL     1       5.283   4.851  18.106  0.00  0.00    +0.000 A 
ATOM      5  N   UNL     1       6.557   4.461  17.746  0.00  0.00    +0.000 N 
ATOM      6  N   UNL     1       4.602   3.973  18.828  0.00  0.00    +0.000 NA
ATOM      7  C   UNL     1       3.356   4.308  19.142  0.00  0.00    +0.000 A 
ATOM      8  N   UNL     1       2.591   3.411  19.849  0.00  0.00    +0.000 N 
ATOM      9  C   UNL     1       1.225   3.704  20.246  0.00  0.00    +0.000 C 
ATOM     10  C   UNL     1       1.122   3.136  21.658  0.00  0.00    +0.000 C 
ATOM     11  C   UNL     1       2.101   1.972  21.642  0.00  0.00    +0.000 C 
ATOM     12  C   UNL     1       3.237   2.466  20.744  0.00  0.00    +0.000 C 
ATOM     13  N   UNL     1       2.825   5.471  18.801  0.00  0.00    +0.000 NA
ATOM     14  H   UNL     1       3.918   8.134  17.423  0.00  0.00    +0.000 HD
ATOM     15  H   UNL     1       6.828   3.627  18.252  0.00  0.00    +0.000 HD
ENDROOT
BRANCH   1  20
ATOM     16  C   UNL     1      -1.039  10.644  20.347  0.00  0.00    +0.000 C 
ATOM     17  C   UNL     1       0.087   9.885  19.716  0.00  0.00    +0.000 A 
ATOM     18  C   UNL     1       0.888   9.010  20.451  0.00  0.00    +0.000 A 
ATOM     19  C   UNL     1       1.914   8.289  19.825  0.00  0.00    +0.000 A 
ATOM     20  C   UNL     1       2.156   8.410  18.448  0.00  0.00    +0.000 A 
ATOM     21  C   UNL     1       1.380   9.335  17.743  0.00  0.00    +0.000 A 
ATOM     22  C   UNL     1       0.351  10.055  18.357  0.00  0.00    +0.000 A 
ENDBRANCH   1  20
BRANCH   5  23
ATOM     23  C   UNL     1       7.580   5.468  17.511  0.00  0.00    +0.000 C 
BRANCH  23  24
ATOM     24  C   UNL     1       7.940   6.265  18.771  0.00  0.00    +0.000 C 
BRANCH  24  25
ATOM     25  O   UNL     1       8.272   5.389  19.847  0.00  0.00    +0.000 OA
ATOM     26  H   UNL     1       7.426   5.134  20.257  0.00  0.00    +0.000 HD
ENDBRANCH  24  25
ENDBRANCH  23  24
ENDBRANCH   5  23
TORSDOF 4
ENDMDL
MODEL 5
REMARK VINA RESULT:      -7.4      1.393      1.595
REMARK  Name = 
REMARK  5 active torsions:
REMARK  status: ('A' for Active; 'I' for Inactive)
REMARK    1  A    between atoms: C_1  and  C_2
REMARK    2  A    between atoms: C_5  and  N_6
REMARK    3  A    between atoms: N_10  and  C_11
REMARK    4  A    between atoms: C_11  and  C_12
REMARK    5  A    between atoms: C_12  and  O_13
REMARK                            x       y       z     vdW  Elec       q    Type
REMARK                         _______ _______ _______ _____ _____    ______ ____
ROOT
ATOM      1  N   UNL     1       2.044   8.376  18.734  0.00  0.00    +0.000 N 
ATOM      2  C   UNL     1       2.606   7.103  18.565  0.00  0.00    +0.000 A 
ATOM      3  N   UNL     1       3.646   7.048  17.742  0.00  0.00    +0.000 NA
ATOM      4  C   UNL     1       4.238   5.867  17.650  0.00  0.00    +0.000 A 
ATOM      5  N   UNL     1       5.325   5.704  16.815  0.00  0.00    +0.000 N 
ATOM      6  N   UNL     1       3.884   4.791  18.337  0.00  0.00    +0.000 NA
ATOM      7  C   UNL     1       2.809   4.913  19.108  0.00  0.00    +0.000 A 
ATOM      8  N   UNL     1       2.371   3.812  19.805  0.00  0.00    +0.000 N 
ATOM      9  C   UNL     1       1.214   3.863  20.681  0.00  0.00    +0.000 C 
ATOM     10  C   UNL     1       1.625   3.018  21.883  0.00  0.00    +0.000 C 
ATOM     11  C   UNL     1       2.586   2.001  21.288  0.00  0.00    +0.000 C 
ATOM     12  C   UNL     1       3.322   2.789  20.204  0.00  0.00    +0.000 C 
ATOM     13  N   UNL     1       2.146   6.052  19.230  0.00  0.00    +0.000 NA
ATOM     14  H   UNL     1       2.590   9.042  18.206  0.00  0.00    +0.000 HD
ATOM     15  H   UNL     1       5.787   4.823  17.003  0.00  0.00    +0.000 HD
ENDROOT
BRANCH   1  20
ATOM     16  C   UNL     1      -1.003  10.740  22.985  0.00  0.00    +0.000 C 
ATOM     17  C   UNL     1      -0.246  10.100  21.862  0.00  0.00    +0.000 A 
ATOM     18  C   UNL     1      -0.398  10.519  20.539  0.00  0.00    +0.000 A 
ATOM     19  C   UNL     1       0.348   9.922  19.514  0.00  0.00    +0.000 A 
ATOM     20  C   UNL     1       1.277   8.906  19.784  0.00  0.00    +0.000 A 
ATOM     21  C   UNL     1       1.371   8.463  21.108  0.00  0.00    +0.000 A 
ATOM     22  C   UNL     1       0.635   9.054  22.137  0.00  0.00    +0.000 A 
ENDBRANCH   1  20
BRANCH   5  23
ATOM     23  C   UNL     1       6.163   6.849  16.492  0.00  0.00    +0.000 C 
BRANCH  23  24
ATOM     24  C   UNL     1       7.331   7.034  17.469  0.00  0.00    +0.000 C 
BRANCH  24  25
ATOM     25  O   UNL     1       7.896   8.338  17.343  0.00  0.00    +0.000 OA
ATOM     26  H   UNL     1       7.767   8.598  16.414  0.00  0.00    +0.000 HD
ENDBRANCH  24  25
ENDBRANCH  23  24
ENDBRANCH   5  23
TORSDOF 4
ENDMDL
MODEL 6
REMARK VINA RESULT:      -7.3      1.417      1.894
REMARK  Name = 
REMARK  5 active torsions:
REMARK  status: ('A' for Active; 'I' for Inactive)
REMARK    1  A    between atoms: C_1  and  C_2
REMARK    2  A    between atoms: C_5  and  N_6
REMARK    3  A    between atoms: N_10  and  C_11
REMARK    4  A    between atoms: C_11  and  C_12
REMARK    5  A    between atoms: C_12  and  O_13
REMARK                            x       y       z     vdW  Elec       q    Type
REMARK                         _______ _______ _______ _____ _____    ______ ____
ROOT
ATOM      1  N   UNL     1       2.083   8.449  18.692  0.00  0.00    +0.000 N 
ATOM      2  C   UNL     1       2.579   7.154  18.490  0.00  0.00    +0.000 A 
ATOM      3  N   UNL     1       3.611   7.065  17.662  0.00  0.00    +0.000 NA
ATOM      4  C   UNL     1       4.142   5.858  17.538  0.00  0.00    +0.000 A 
ATOM      5  N   UNL     1       5.217   5.659  16.696  0.00  0.00    +0.000 N 
ATOM      6  N   UNL     1       3.734   4.786  18.201  0.00  0.00    +0.000 NA
ATOM      7  C   UNL     1       2.670   4.943  18.979  0.00  0.00    +0.000 A 
ATOM      8  N   UNL     1       2.178   3.850  19.652  0.00  0.00    +0.000 N 
ATOM      9  C   UNL     1       1.027   3.939  20.534  0.00  0.00    +0.000 C 
ATOM     10  C   UNL     1       1.398   3.046  21.714  0.00  0.00    +0.000 C 
ATOM     11  C   UNL     1       2.303   1.995  21.090  0.00  0.00    +0.000 C 
ATOM     12  C   UNL     1       3.076   2.770  20.022  0.00  0.00    +0.000 C 
ATOM     13  N   UNL     1       2.067   6.112  19.131  0.00  0.00    +0.000 NA
ATOM     14  H   UNL     1       2.661   9.099  18.178  0.00  0.00    +0.000 HD
ATOM     15  H   UNL     1       5.633   4.752  16.861  0.00  0.00    +0.000 HD
ENDROOT
BRANCH   1  20
ATOM     16  C   UNL     1      -1.008  10.471  23.084  0.00  0.00    +0.000 C 
ATOM     17  C   UNL     1      -0.165   9.968  21.955  0.00  0.00    +0.000 A 
ATOM     18  C   UNL     1       0.791   8.966  22.138  0.00  0.00    +0.000 A 
ATOM     19  C   UNL     1       1.542   8.493  21.055  0.00  0.00    +0.000 A 
ATOM     20  C   UNL     1       1.348   8.993  19.758  0.00  0.00    +0.000 A 
ATOM     21  C   UNL     1       0.427  10.035  19.607  0.00  0.00    +0.000 A 
ATOM     22  C   UNL     1      -0.330  10.510  20.681  0.00  0.00    +0.000 A 
ENDBRANCH   1  20
BRANCH   5  23
ATOM     23  C   UNL     1       6.112   6.767  16.396  0.00  0.00    +0.000 C 
BRANCH  23  24
ATOM     24  C   UNL     1       7.189   6.975  17.467  0.00  0.00    +0.000 C 
BRANCH  24  25
ATOM     25  O   UNL     1       7.911   8.183  17.233  0.00  0.00    +0.000 OA
ATOM     26  H   UNL     1       8.791   7.913  16.914  0.00  0.00    +0.000 HD
ENDBRANCH  24  25
ENDBRANCH  23  24
ENDBRANCH   5  23
TORSDOF 4
ENDMDL
MODEL 7
REMARK VINA RESULT:      -7.2      1.027      1.466
REMARK  Name = 
REMARK  5 active torsions:
REMARK  status: ('A' for Active; 'I' for Inactive)
REMARK    1  A    between atoms: C_1  and  C_2
REMARK    2  A    between atoms: C_5  and  N_6
REMARK    3  A    between atoms: N_10  and  C_11
REMARK    4  A    between atoms: C_11  and  C_12
REMARK    5  A    between atoms: C_12  and  O_13
REMARK                            x       y       z     vdW  Elec       q    Type
REMARK                         _______ _______ _______ _____ _____    ______ ____
ROOT
ATOM      1  N   UNL     1       2.861   7.372  17.519  0.00  0.00    +0.000 N 
ATOM      2  C   UNL     1       3.175   6.020  17.712  0.00  0.00    +0.000 A 
ATOM      3  N   UNL     1       4.212   5.574  17.014  0.00  0.00    +0.000 NA
ATOM      4  C   UNL     1       4.570   4.323  17.261  0.00  0.00    +0.000 A 
ATOM      5  N   UNL     1       5.634   3.763  16.583  0.00  0.00    +0.000 N 
ATOM      6  N   UNL     1       3.994   3.538  18.159  0.00  0.00    +0.000 NA
ATOM      7  C   UNL     1       2.937   4.040  18.788  0.00  0.00    +0.000 A 
ATOM      8  N   UNL     1       2.273   3.249  19.695  0.00  0.00    +0.000 N 
ATOM      9  C   UNL     1       1.118   3.725  20.436  0.00  0.00    +0.000 C 
ATOM     10  C   UNL     1       1.319   3.156  21.837  0.00  0.00    +0.000 C 
ATOM     11  C   UNL     1       2.087   1.868  21.588  0.00  0.00    +0.000 C 
ATOM     12  C   UNL     1       2.997   2.210  20.407  0.00  0.00    +0.000 C 
ATOM     13  N   UNL     1       2.500   5.271  18.574  0.00  0.00    +0.000 NA
ATOM     14  H   UNL     1       3.541   7.774  16.890  0.00  0.00    +0.000 HD
ATOM     15  H   UNL     1       5.912   2.892  17.017  0.00  0.00    +0.000 HD
ENDROOT
BRANCH   1  20
ATOM     16  C   UNL     1      -0.097  10.927  20.917  0.00  0.00    +0.000 C 
ATOM     17  C   UNL     1       0.713  10.013  20.053  0.00  0.00    +0.000 A 
ATOM     18  C   UNL     1       1.224   8.805  20.533  0.00  0.00    +0.000 A 
ATOM     19  C   UNL     1       1.952   7.955  19.689  0.00  0.00    +0.000 A 
ATOM     20  C   UNL     1       2.175   8.279  18.342  0.00  0.00    +0.000 A 
ATOM     21  C   UNL     1       1.705   9.519  17.898  0.00  0.00    +0.000 A 
ATOM     22  C   UNL     1       0.973  10.372  18.730  0.00  0.00    +0.000 A 
ENDBRANCH   1  20
BRANCH   5  23
ATOM     23  C   UNL     1       6.686   4.621  16.058  0.00  0.00    +0.000 C 
BRANCH  23  24
ATOM     24  C   UNL     1       7.641   5.133  17.143  0.00  0.00    +0.000 C 
BRANCH  24  25
ATOM     25  O   UNL     1       8.332   4.049  17.763  0.00  0.00    +0.000 OA
ATOM     26  H   UNL     1       9.277   4.284  17.737  0.00  0.00    +0.000 HD
ENDBRANCH  24  25
ENDBRANCH  23  24
ENDBRANCH   5  23
TORSDOF 4
ENDMDL
MODEL 8
REMARK VINA RESULT:      -6.8      1.354      1.398
REMARK  Name = 
REMARK  5 active torsions:
REMARK  status: ('A' for Active; 'I' for Inactive)
REMARK    1  A    between atoms: C_1  and  C_2
REMARK    2  A    between atoms: C_5  and  N_6
REMARK    3  A    between atoms: N_10  and  C_11
REMARK    4  A    between atoms: C_11  and  C_12
REMARK    5  A    between atoms: C_12  and  O_13
REMARK                            x       y       z     vdW  Elec       q    Type
REMARK                         _______ _______ _______ _____ _____    ______ ____
ROOT
ATOM      1  N   UNL     1       2.307   7.920  18.020  0.00  0.00    +0.000 N 
ATOM      2  C   UNL     1       2.723   6.582  18.004  0.00  0.00    +0.000 A 
ATOM      3  N   UNL     1       3.711   6.305  17.163  0.00  0.00    +0.000 NA
ATOM      4  C   UNL     1       4.171   5.064  17.211  0.00  0.00    +0.000 A 
ATOM      5  N   UNL     1       5.194   4.674  16.371  0.00  0.00    +0.000 N 
ATOM      6  N   UNL     1       3.737   4.133  18.047  0.00  0.00    +0.000 NA
ATOM      7  C   UNL     1       2.719   4.472  18.830  0.00  0.00    +0.000 A 
ATOM      8  N   UNL     1       2.200   3.527  19.682  0.00  0.00    +0.000 N 
ATOM      9  C   UNL     1       1.097   3.818  20.581  0.00  0.00    +0.000 C 
ATOM     10  C   UNL     1       1.473   3.097  21.872  0.00  0.00    +0.000 C 
ATOM     11  C   UNL     1       2.291   1.911  21.387  0.00  0.00    +0.000 C 
ATOM     12  C   UNL     1       3.056   2.464  20.184  0.00  0.00    +0.000 C 
ATOM     13  N   UNL     1       2.186   5.683  18.819  0.00  0.00    +0.000 NA
ATOM     14  H   UNL     1       2.894   8.447  17.389  0.00  0.00    +0.000 HD
ATOM     15  H   UNL     1       5.569   3.780  16.661  0.00  0.00    +0.000 HD
ENDROOT
BRANCH   1  20
ATOM     16  C   UNL     1      -0.249  11.132  22.031  0.00  0.00    +0.000 C 
ATOM     17  C   UNL     1       0.376  10.279  20.971  0.00  0.00    +0.000 A 
ATOM     18  C   UNL     1       0.339  10.635  19.621  0.00  0.00    +0.000 A 
ATOM     19  C   UNL     1       0.961   9.833  18.656  0.00  0.00    +0.000 A 
ATOM     20  C   UNL     1       1.650   8.664  19.013  0.00  0.00    +0.000 A 
ATOM     21  C   UNL     1       1.626   8.295  20.362  0.00  0.00    +0.000 A 
ATOM     22  C   UNL     1       1.013   9.092  21.333  0.00  0.00    +0.000 A 
ENDBRANCH   1  20
BRANCH   5  23
ATOM     23  C   UNL     1       6.132   5.667  15.870  0.00  0.00    +0.000 C 
BRANCH  23  24
ATOM     24  C   UNL     1       7.542   5.104  15.648  0.00  0.00    +0.000 C 
BRANCH  24  25
ATOM     25  O   UNL     1       7.990   4.390  16.799  0.00  0.00    +0.000 OA
ATOM     26  H   UNL     1       8.022   3.452  16.538  0.00  0.00    +0.000 HD
ENDBRANCH  24  25
ENDBRANCH  23  24
ENDBRANCH   5  23
TORSDOF 4
ENDMDL
MODEL 9
REMARK VINA RESULT:      -6.8      1.121      1.513
REMARK  Name = 
REMARK  5 active torsions:
REMARK  status: ('A' for Active; 'I' for Inactive)
REMARK    1  A    between atoms: C_1  and  C_2
REMARK    2  A    between atoms: C_5  and  N_6
REMARK    3  A    between atoms: N_10  and  C_11
REMARK    4  A    between atoms: C_11  and  C_12
REMARK    5  A    between atoms: C_12  and  O_13
REMARK                            x       y       z     vdW  Elec       q    Type
REMARK                         _______ _______ _______ _____ _____    ______ ____
ROOT
ATOM      1  N   UNL     1       3.596   7.759  17.789  0.00  0.00    +0.000 N 
ATOM      2  C   UNL     1       3.884   6.387  17.772  0.00  0.00    +0.000 A 
ATOM      3  N   UNL     1       5.166   6.080  17.627  0.00  0.00    +0.000 NA
ATOM      4  C   UNL     1       5.456   4.789  17.703  0.00  0.00    +0.000 A 
ATOM      5  N   UNL     1       6.762   4.366  17.558  0.00  0.00    +0.000 N 
ATOM      6  N   UNL     1       4.572   3.833  17.944  0.00  0.00    +0.000 NA
ATOM      7  C   UNL     1       3.303   4.213  18.037  0.00  0.00    +0.000 A 
ATOM      8  N   UNL     1       2.341   3.253  18.239  0.00  0.00    +0.000 N 
ATOM      9  C   UNL     1       0.932   3.585  18.366  0.00  0.00    +0.000 C 
ATOM     10  C   UNL     1       0.436   2.663  19.475  0.00  0.00    +0.000 C 
ATOM     11  C   UNL     1       1.333   1.442  19.348  0.00  0.00    +0.000 C 
ATOM     12  C   UNL     1       2.685   2.026  18.937  0.00  0.00    +0.000 C 
ATOM     13  N   UNL     1       2.931   5.480  17.942  0.00  0.00    +0.000 NA
ATOM     14  H   UNL     1       4.464   8.271  17.726  0.00  0.00    +0.000 HD
ATOM     15  H   UNL     1       6.853   3.398  17.841  0.00  0.00    +0.000 HD
ENDROOT
BRANCH   1  20
ATOM     16  C   UNL     1      -0.958  10.431  20.038  0.00  0.00    +0.000 C 
ATOM     17  C   UNL     1       0.257   9.760  19.478  0.00  0.00    +0.000 A 
ATOM     18  C   UNL     1       0.970   8.803  20.204  0.00  0.00    +0.000 A 
ATOM     19  C   UNL     1       2.085   8.169  19.640  0.00  0.00    +0.000 A 
ATOM     20  C   UNL     1       2.507   8.459  18.334  0.00  0.00    +0.000 A 
ATOM     21  C   UNL     1       1.814   9.461  17.647  0.00  0.00    +0.000 A 
ATOM     22  C   UNL     1       0.698  10.096  18.198  0.00  0.00    +0.000 A 
ENDBRANCH   1  20
BRANCH   5  23
ATOM     23  C   UNL     1       7.853   5.270  17.887  0.00  0.00    +0.000 C 
BRANCH  23  24
ATOM     24  C   UNL     1       7.762   5.830  19.312  0.00  0.00    +0.000 C 
BRANCH  24  25
ATOM     25  O   UNL     1       8.653   5.140  20.187  0.00  0.00    +0.000 OA
ATOM     26  H   UNL     1       9.543   5.479  19.986  0.00  0.00    +0.000 HD
ENDBRANCH  24  25
ENDBRANCH  23  24
ENDBRANCH   5  23
TORSDOF 4
ENDMDL
