MODEL 1
REMARK VINA RESULT:      -7.5      0.000      0.000
REMARK  Name = 
REMARK  6 active torsions:
REMARK  status: ('A' for Active; 'I' for Inactive)
REMARK    1  A    between atoms: C_1  and  O_2
REMARK    2  A    between atoms: O_2  and  C_3
REMARK    3  A    between atoms: C_6  and  C_7
REMARK    4  A    between atoms: N_9  and  C_10
REMARK    5  A    between atoms: C_15  and  C_16
REMARK    6  A    between atoms: C_15  and  C_17
REMARK                            x       y       z     vdW  Elec       q    Type
REMARK                         _______ _______ _______ _____ _____    ______ ____
ROOT
ATOM      1  C   UNL     1       1.882   8.846  18.484  0.00  0.00    +0.000 C 
ATOM      2  O   UNL     1       1.742   9.565  17.497  0.00  0.00    +0.000 OA
ATOM      3  N   UNL     1       2.738   7.751  18.493  0.00  0.00    +0.000 N 
ATOM      4  H   UNL     1       2.760   7.121  19.293  0.00  0.00    +0.000 HD
ENDROOT
BRANCH   3   5
ATOM      5  C   UNL     1       3.563   7.454  17.423  0.00  0.00    +0.000 C 
ATOM      6  C   UNL     1       4.453   6.448  17.383  0.00  0.00    +0.000 C 
ATOM      7  C   UNL     1       4.624   5.509  18.490  0.00  0.00    +0.000 C 
ATOM      8  O   UNL     1       3.735   5.266  19.298  0.00  0.00    +0.000 OA
ATOM      9  O   UNL     1       5.846   4.944  18.580  0.00  0.00    +0.000 OA
ATOM     10  C   UNL     1       6.897   5.457  17.762  0.00  0.00    +0.000 C 
ATOM     11  C   UNL     1       7.500   6.724  18.384  0.00  0.00    +0.000 C 
ATOM     12  C   UNL     1       7.975   4.373  17.705  0.00  0.00    +0.000 C 
ATOM     13  O   UNL     1       6.489   5.702  16.415  0.00  0.00    +0.000 OA
ATOM     14  C   UNL     1       5.326   6.351  16.205  0.00  0.00    +0.000 C 
ATOM     15  O   UNL     1       5.037   6.818  15.112  0.00  0.00    +0.000 OA
ENDBRANCH   3   5
BRANCH   1  19
ATOM     16  C   UNL     1      -0.336   9.936  22.025  0.00  0.00    +0.000 A 
ATOM     17  C   UNL     1      -0.495  10.630  20.825  0.00  0.00    +0.000 A 
ATOM     18  C   UNL     1       0.221  10.244  19.687  0.00  0.00    +0.000 A 
ATOM     19  C   UNL     1       1.121   9.166  19.734  0.00  0.00    +0.000 A 
ATOM     20  C   UNL     1       1.294   8.491  20.945  0.00  0.00    +0.000 A 
ATOM     21  C   UNL     1       0.566   8.875  22.083  0.00  0.00    +0.000 A 
BRANCH  16  23
ATOM     22  C   UNL     1      -1.392  11.794  23.033  0.00  0.00    +0.000 C 
ATOM     23  O   UNL     1      -1.072  10.408  23.078  0.00  0.00    +0.000 OA
ENDBRANCH  16  23
ENDBRANCH   1  19
TORSDOF 3
ENDMDL
MODEL 2
REMARK VINA RESULT:      -7.4      0.242      1.052
REMARK  Name = 
REMARK  6 active torsions:
REMARK  status: ('A' for Active; 'I' for Inactive)
REMARK    1  A    between atoms: C_1  and  O_2
REMARK    2  A    between atoms: O_2  and  C_3
REMARK    3  A    between atoms: C_6  and  C_7
REMARK    4  A    between atoms: N_9  and  C_10
REMARK    5  A    between atoms: C_15  and  C_16
REMARK    6  A    between atoms: C_15  and  C_17
REMARK                            x       y       z     vdW  Elec       q    Type
REMARK                         _______ _______ _______ _____ _____    ______ ____
ROOT
ATOM      1  C   UNL     1       1.984   8.866  18.365  0.00  0.00    +0.000 C 
ATOM      2  O   UNL     1       1.885   9.544  17.345  0.00  0.00    +0.000 OA
ATOM      3  N   UNL     1       2.799   7.742  18.438  0.00  0.00    +0.000 N 
ATOM      4  H   UNL     1       2.785   7.150  19.265  0.00  0.00    +0.000 HD
ENDROOT
BRANCH   3   5
ATOM      5  C   UNL     1       3.628   7.368  17.395  0.00  0.00    +0.000 C 
ATOM      6  C   UNL     1       4.540   6.382  17.444  0.00  0.00    +0.000 C 
ATOM      7  C   UNL     1       4.735   5.552  18.631  0.00  0.00    +0.000 C 
ATOM      8  O   UNL     1       3.853   5.364  19.461  0.00  0.00    +0.000 OA
ATOM      9  O   UNL     1       5.969   5.025  18.767  0.00  0.00    +0.000 OA
ATOM     10  C   UNL     1       7.007   5.485  17.901  0.00  0.00    +0.000 C 
ATOM     11  C   UNL     1       7.583   6.816  18.402  0.00  0.00    +0.000 C 
ATOM     12  C   UNL     1       8.108   4.425  17.939  0.00  0.00    +0.000 C 
ATOM     13  O   UNL     1       6.590   5.597  16.539  0.00  0.00    +0.000 OA
ATOM     14  C   UNL     1       5.412   6.198  16.276  0.00  0.00    +0.000 C 
ATOM     15  O   UNL     1       5.111   6.557  15.146  0.00  0.00    +0.000 OA
ENDBRANCH   3   5
BRANCH   1  19
ATOM     16  C   UNL     1      -0.223   9.858  21.942  0.00  0.00    +0.000 A 
ATOM     17  C   UNL     1       0.603   8.735  21.885  0.00  0.00    +0.000 A 
ATOM     18  C   UNL     1       1.324   8.448  20.721  0.00  0.00    +0.000 A 
ATOM     19  C   UNL     1       1.216   9.270  19.587  0.00  0.00    +0.000 A 
ATOM     20  C   UNL     1       0.366  10.378  19.641  0.00  0.00    +0.000 A 
ATOM     21  C   UNL     1      -0.347  10.670  20.816  0.00  0.00    +0.000 A 
BRANCH  16  23
ATOM     22  C   UNL     1      -1.582  11.274  23.260  0.00  0.00    +0.000 C 
ATOM     23  O   UNL     1      -0.893  10.035  23.122  0.00  0.00    +0.000 OA
ENDBRANCH  16  23
ENDBRANCH   1  19
TORSDOF 3
ENDMDL
MODEL 3
REMARK VINA RESULT:      -7.2      3.912      8.689
REMARK  Name = 
REMARK  6 active torsions:
REMARK  status: ('A' for Active; 'I' for Inactive)
REMARK    1  A    between atoms: C_1  and  O_2
REMARK    2  A    between atoms: O_2  and  C_3
REMARK    3  A    between atoms: C_6  and  C_7
REMARK    4  A    between atoms: N_9  and  C_10
REMARK    5  A    between atoms: C_15  and  C_16
REMARK    6  A    between atoms: C_15  and  C_17
REMARK                            x       y       z     vdW  Elec       q    Type
REMARK                         _______ _______ _______ _____ _____    ______ ____
ROOT
ATOM      1  C   UNL     1       5.221   5.724  15.638  0.00  0.00    +0.000 C 
ATOM      2  O   UNL     1       5.307   6.948  15.709  0.00  0.00    +0.000 OA
ATOM      3  N   UNL     1       4.549   4.966  16.590  0.00  0.00    +0.000 N 
ATOM      4  H   UNL     1       4.577   3.950  16.552  0.00  0.00    +0.000 HD
ENDROOT
BRANCH   3   5
ATOM      5  C   UNL     1       3.848   5.550  17.631  0.00  0.00    +0.000 C 
ATOM      6  C   UNL     1       3.638   4.991  18.835  0.00  0.00    +0.000 C 
ATOM      7  C   UNL     1       4.175   3.681  19.195  0.00  0.00    +0.000 C 
ATOM      8  O   UNL     1       5.174   3.205  18.668  0.00  0.00    +0.000 OA
ATOM      9  O   UNL     1       3.475   3.012  20.135  0.00  0.00    +0.000 OA
ATOM     10  C   UNL     1       2.196   3.515  20.521  0.00  0.00    +0.000 C 
ATOM     11  C   UNL     1       1.121   3.099  19.507  0.00  0.00    +0.000 C 
ATOM     12  C   UNL     1       1.868   2.884  21.874  0.00  0.00    +0.000 C 
ATOM     13  O   UNL     1       2.186   4.931  20.713  0.00  0.00    +0.000 OA
ATOM     14  C   UNL     1       2.774   5.709  19.782  0.00  0.00    +0.000 C 
ATOM     15  O   UNL     1       2.587   6.917  19.742  0.00  0.00    +0.000 OA
ENDBRANCH   3   5
BRANCH   1  19
ATOM     16  C   UNL     1       6.905   3.546  12.311  0.00  0.00    +0.000 A 
ATOM     17  C   UNL     1       5.601   3.311  12.749  0.00  0.00    +0.000 A 
ATOM     18  C   UNL     1       5.073   4.045  13.816  0.00  0.00    +0.000 A 
ATOM     19  C   UNL     1       5.846   5.016  14.475  0.00  0.00    +0.000 A 
ATOM     20  C   UNL     1       7.160   5.227  14.049  0.00  0.00    +0.000 A 
ATOM     21  C   UNL     1       7.683   4.496  12.969  0.00  0.00    +0.000 A 
BRANCH  16  23
ATOM     22  C   UNL     1       6.645   1.519  11.124  0.00  0.00    +0.000 C 
ATOM     23  O   UNL     1       7.325   2.761  11.272  0.00  0.00    +0.000 OA
ENDBRANCH  16  23
ENDBRANCH   1  19
TORSDOF 3
ENDMDL
MODEL 4
REMARK VINA RESULT:      -7.1      1.882      2.632
REMARK  Name = 
REMARK  6 active torsions:
REMARK  status: ('A' for Active; 'I' for Inactive)
REMARK    1  A    between atoms: C_1  and  O_2
REMARK    2  A    between atoms: O_2  and  C_3
REMARK    3  A    between atoms: C_6  and  C_7
REMARK    4  A    between atoms: N_9  and  C_10
REMARK    5  A    between atoms: C_15  and  C_16
REMARK    6  A    between atoms: C_15  and  C_17
REMARK                            x       y       z     vdW  Elec       q    Type
REMARK                         _______ _______ _______ _____ _____    ______ ____
ROOT
ATOM      1  C   UNL     1       1.751   8.408  19.000  0.00  0.00    +0.000 C 
ATOM      2  O   UNL     1       1.704   8.837  17.850  0.00  0.00    +0.000 OA
ATOM      3  N   UNL     1       2.453   7.257  19.340  0.00  0.00    +0.000 N 
ATOM      4  H   UNL     1       2.393   6.877  20.282  0.00  0.00    +0.000 HD
ENDROOT
BRANCH   3   5
ATOM      5  C   UNL     1       3.227   6.572  18.421  0.00  0.00    +0.000 C 
ATOM      6  C   UNL     1       3.121   5.262  18.139  0.00  0.00    +0.000 C 
ATOM      7  C   UNL     1       2.120   4.403  18.770  0.00  0.00    +0.000 C 
ATOM      8  O   UNL     1       1.065   4.834  19.220  0.00  0.00    +0.000 OA
ATOM      9  O   UNL     1       2.451   3.098  18.849  0.00  0.00    +0.000 OA
ATOM     10  C   UNL     1       3.789   2.712  18.532  0.00  0.00    +0.000 C 
ATOM     11  C   UNL     1       4.723   2.962  19.723  0.00  0.00    +0.000 C 
ATOM     12  C   UNL     1       3.753   1.212  18.238  0.00  0.00    +0.000 C 
ATOM     13  O   UNL     1       4.291   3.350  17.355  0.00  0.00    +0.000 OA
ATOM     14  C   UNL     1       4.103   4.678  17.216  0.00  0.00    +0.000 C 
ATOM     15  O   UNL     1       4.714   5.330  16.380  0.00  0.00    +0.000 OA
ENDBRANCH   3   5
BRANCH   1  19
ATOM     16  C   UNL     1      -0.279  10.421  22.238  0.00  0.00    +0.000 A 
ATOM     17  C   UNL     1       0.559   9.330  22.471  0.00  0.00    +0.000 A 
ATOM     18  C   UNL     1       1.222   8.709  21.407  0.00  0.00    +0.000 A 
ATOM     19  C   UNL     1       1.043   9.157  20.088  0.00  0.00    +0.000 A 
ATOM     20  C   UNL     1       0.181  10.234  19.857  0.00  0.00    +0.000 A 
ATOM     21  C   UNL     1      -0.473  10.862  20.930  0.00  0.00    +0.000 A 
BRANCH  16  23
ATOM     22  C   UNL     1      -1.877  11.935  23.098  0.00  0.00    +0.000 C 
ATOM     23  O   UNL     1      -0.888  10.941  23.347  0.00  0.00    +0.000 OA
ENDBRANCH  16  23
ENDBRANCH   1  19
TORSDOF 3
ENDMDL
MODEL 5
REMARK VINA RESULT:      -7.1      3.841      8.699
REMARK  Name = 
REMARK  6 active torsions:
REMARK  status: ('A' for Active; 'I' for Inactive)
REMARK    1  A    between atoms: C_1  and  O_2
REMARK    2  A    between atoms: O_2  and  C_3
REMARK    3  A    between atoms: C_6  and  C_7
REMARK    4  A    between atoms: N_9  and  C_10
REMARK    5  A    between atoms: C_15  and  C_16
REMARK    6  A    between atoms: C_15  and  C_17
REMARK                            x       y       z     vdW  Elec       q    Type
REMARK                         _______ _______ _______ _____ _____    ______ ____
ROOT
ATOM      1  C   UNL     1       5.223   5.555  15.988  0.00  0.00    +0.000 C 
ATOM      2  O   UNL     1       5.683   6.639  16.338  0.00  0.00    +0.000 OA
ATOM      3  N   UNL     1       4.202   4.918  16.686  0.00  0.00    +0.000 N 
ATOM      4  H   UNL     1       3.909   3.979  16.426  0.00  0.00    +0.000 HD
ENDROOT
BRANCH   3   5
ATOM      5  C   UNL     1       3.570   5.510  17.765  0.00  0.00    +0.000 C 
ATOM      6  C   UNL     1       3.372   4.932  18.962  0.00  0.00    +0.000 C 
ATOM      7  C   UNL     1       3.849   3.585  19.270  0.00  0.00    +0.000 C 
ATOM      8  O   UNL     1       4.802   3.071  18.696  0.00  0.00    +0.000 OA
ATOM      9  O   UNL     1       3.147   2.930  20.218  0.00  0.00    +0.000 OA
ATOM     10  C   UNL     1       1.911   3.491  20.661  0.00  0.00    +0.000 C 
ATOM     11  C   UNL     1       0.781   3.161  19.678  0.00  0.00    +0.000 C 
ATOM     12  C   UNL     1       1.597   2.843  22.010  0.00  0.00    +0.000 C 
ATOM     13  O   UNL     1       1.985   4.900  20.889  0.00  0.00    +0.000 OA
ATOM     14  C   UNL     1       2.582   5.669  19.957  0.00  0.00    +0.000 C 
ATOM     15  O   UNL     1       2.460   6.887  19.954  0.00  0.00    +0.000 OA
ENDBRANCH   3   5
BRANCH   1  19
ATOM     16  C   UNL     1       6.893   3.792  12.418  0.00  0.00    +0.000 A 
ATOM     17  C   UNL     1       7.625   4.689  13.197  0.00  0.00    +0.000 A 
ATOM     18  C   UNL     1       7.068   5.229  14.361  0.00  0.00    +0.000 A 
ATOM     19  C   UNL     1       5.762   4.896  14.756  0.00  0.00    +0.000 A 
ATOM     20  C   UNL     1       5.024   4.017  13.957  0.00  0.00    +0.000 A 
ATOM     21  C   UNL     1       5.592   3.468  12.795  0.00  0.00    +0.000 A 
BRANCH  16  23
ATOM     22  C   UNL     1       7.391   1.945  11.030  0.00  0.00    +0.000 C 
ATOM     23  O   UNL     1       7.528   3.337  11.294  0.00  0.00    +0.000 OA
ENDBRANCH  16  23
ENDBRANCH   1  19
TORSDOF 3
ENDMDL
MODEL 6
REMARK VINA RESULT:      -7.0      1.980      2.531
REMARK  Name = 
REMARK  6 active torsions:
REMARK  status: ('A' for Active; 'I' for Inactive)
REMARK    1  A    between atoms: C_1  and  O_2
REMARK    2  A    between atoms: O_2  and  C_3
REMARK    3  A    between atoms: C_6  and  C_7
REMARK    4  A    between atoms: N_9  and  C_10
REMARK    5  A    between atoms: C_15  and  C_16
REMARK    6  A    between atoms: C_15  and  C_17
REMARK                            x       y       z     vdW  Elec       q    Type
REMARK                         _______ _______ _______ _____ _____    ______ ____
ROOT
ATOM      1  C   UNL     1       1.696   8.393  19.350  0.00  0.00    +0.000 C 
ATOM      2  O   UNL     1       1.736   8.941  18.251  0.00  0.00    +0.000 OA
ATOM      3  N   UNL     1       2.303   7.166  19.596  0.00  0.00    +0.000 N 
ATOM      4  H   UNL     1       2.170   6.696  20.488  0.00  0.00    +0.000 HD
ENDROOT
BRANCH   3   5
ATOM      5  C   UNL     1       3.076   6.526  18.643  0.00  0.00    +0.000 C 
ATOM      6  C   UNL     1       2.999   5.222  18.329  0.00  0.00    +0.000 C 
ATOM      7  C   UNL     1       2.035   4.320  18.956  0.00  0.00    +0.000 C 
ATOM      8  O   UNL     1       0.978   4.710  19.439  0.00  0.00    +0.000 OA
ATOM      9  O   UNL     1       2.403   3.022  18.994  0.00  0.00    +0.000 OA
ATOM     10  C   UNL     1       3.743   2.682  18.640  0.00  0.00    +0.000 C 
ATOM     11  C   UNL     1       4.695   2.927  19.819  0.00  0.00    +0.000 C 
ATOM     12  C   UNL     1       3.742   1.190  18.307  0.00  0.00    +0.000 C 
ATOM     13  O   UNL     1       4.203   3.364  17.471  0.00  0.00    +0.000 OA
ATOM     14  C   UNL     1       3.977   4.689  17.371  0.00  0.00    +0.000 C 
ATOM     15  O   UNL     1       4.553   5.379  16.541  0.00  0.00    +0.000 OA
ENDBRANCH   3   5
BRANCH   1  19
ATOM     16  C   UNL     1      -0.362  10.506  22.505  0.00  0.00    +0.000 A 
ATOM     17  C   UNL     1      -0.464  10.909  21.172  0.00  0.00    +0.000 A 
ATOM     18  C   UNL     1       0.196  10.194  20.167  0.00  0.00    +0.000 A 
ATOM     19  C   UNL     1       0.985   9.074  20.479  0.00  0.00    +0.000 A 
ATOM     20  C   UNL     1       1.105   8.692  21.819  0.00  0.00    +0.000 A 
ATOM     21  C   UNL     1       0.431   9.405  22.824  0.00  0.00    +0.000 A 
BRANCH  16  23
ATOM     22  C   UNL     1      -2.202  11.933  22.911  0.00  0.00    +0.000 C 
ATOM     23  O   UNL     1      -1.034  11.286  23.407  0.00  0.00    +0.000 OA
ENDBRANCH  16  23
ENDBRANCH   1  19
TORSDOF 3
ENDMDL
MODEL 7
REMARK VINA RESULT:      -6.9      1.864      8.124
REMARK  Name = 
REMARK  6 active torsions:
REMARK  status: ('A' for Active; 'I' for Inactive)
REMARK    1  A    between atoms: C_1  and  O_2
REMARK    2  A    between atoms: O_2  and  C_3
REMARK    3  A    between atoms: C_6  and  C_7
REMARK    4  A    between atoms: N_9  and  C_10
REMARK    5  A    between atoms: C_15  and  C_16
REMARK    6  A    between atoms: C_15  and  C_17
REMARK                            x       y       z     vdW  Elec       q    Type
REMARK                         _______ _______ _______ _____ _____    ______ ____
ROOT
ATOM      1  C   UNL     1       2.585   6.489  19.114  0.00  0.00    +0.000 C 
ATOM      2  O   UNL     1       2.140   5.626  19.867  0.00  0.00    +0.000 OA
ATOM      3  N   UNL     1       2.246   7.832  19.235  0.00  0.00    +0.000 N 
ATOM      4  H   UNL     1       2.557   8.506  18.539  0.00  0.00    +0.000 HD
ENDROOT
BRANCH   3   5
ATOM      5  C   UNL     1       1.460   8.300  20.274  0.00  0.00    +0.000 C 
ATOM      6  C   UNL     1       0.581   9.313  20.187  0.00  0.00    +0.000 C 
ATOM      7  C   UNL     1       0.330  10.027  18.937  0.00  0.00    +0.000 C 
ATOM      8  O   UNL     1       0.517   9.524  17.835  0.00  0.00    +0.000 OA
ATOM      9  O   UNL     1      -0.099  11.299  19.078  0.00  0.00    +0.000 OA
ATOM     10  C   UNL     1      -0.056  11.893  20.375  0.00  0.00    +0.000 C 
ATOM     11  C   UNL     1       1.358  12.395  20.696  0.00  0.00    +0.000 C 
ATOM     12  C   UNL     1      -1.008  13.089  20.339  0.00  0.00    +0.000 C 
ATOM     13  O   UNL     1      -0.528  11.022  21.405  0.00  0.00    +0.000 OA
ATOM     14  C   UNL     1      -0.086   9.748  21.420  0.00  0.00    +0.000 C 
ATOM     15  O   UNL     1      -0.237   9.027  22.397  0.00  0.00    +0.000 OA
ENDBRANCH   3   5
BRANCH   1  19
ATOM     16  C   UNL     1       5.328   5.504  15.927  0.00  0.00    +0.000 A 
ATOM     17  C   UNL     1       5.081   6.829  16.292  0.00  0.00    +0.000 A 
ATOM     18  C   UNL     1       4.204   7.119  17.342  0.00  0.00    +0.000 A 
ATOM     19  C   UNL     1       3.544   6.091  18.034  0.00  0.00    +0.000 A 
ATOM     20  C   UNL     1       3.775   4.768  17.648  0.00  0.00    +0.000 A 
ATOM     21  C   UNL     1       4.666   4.479  16.600  0.00  0.00    +0.000 A 
BRANCH  16  23
ATOM     22  C   UNL     1       6.294   4.007  14.375  0.00  0.00    +0.000 C 
ATOM     23  O   UNL     1       6.190   5.335  14.878  0.00  0.00    +0.000 OA
ENDBRANCH  16  23
ENDBRANCH   1  19
TORSDOF 3
ENDMDL
MODEL 8
REMARK VINA RESULT:      -6.9      2.827      4.455
REMARK  Name = 
REMARK  6 active torsions:
REMARK  status: ('A' for Active; 'I' for Inactive)
REMARK    1  A    between atoms: C_1  and  O_2
REMARK    2  A    between atoms: O_2  and  C_3
REMARK    3  A    between atoms: C_6  and  C_7
REMARK    4  A    between atoms: N_9  and  C_10
REMARK    5  A    between atoms: C_15  and  C_16
REMARK    6  A    between atoms: C_15  and  C_17
REMARK                            x       y       z     vdW  Elec       q    Type
REMARK                         _______ _______ _______ _____ _____    ______ ____
ROOT
ATOM      1  C   UNL     1       1.078   8.043  20.809  0.00  0.00    +0.000 C 
ATOM      2  O   UNL     1       0.183   7.815  21.620  0.00  0.00    +0.000 OA
ATOM      3  N   UNL     1       2.049   7.102  20.486  0.00  0.00    +0.000 N 
ATOM      4  H   UNL     1       2.829   7.354  19.883  0.00  0.00    +0.000 HD
ENDROOT
BRANCH   3   5
ATOM      5  C   UNL     1       2.015   5.811  20.984  0.00  0.00    +0.000 C 
ATOM      6  C   UNL     1       2.689   4.765  20.476  0.00  0.00    +0.000 C 
ATOM      7  C   UNL     1       3.584   4.892  19.328  0.00  0.00    +0.000 C 
ATOM      8  O   UNL     1       4.135   5.945  19.029  0.00  0.00    +0.000 OA
ATOM      9  O   UNL     1       3.742   3.769  18.596  0.00  0.00    +0.000 OA
ATOM     10  C   UNL     1       2.883   2.659  18.855  0.00  0.00    +0.000 C 
ATOM     11  C   UNL     1       1.526   2.849  18.165  0.00  0.00    +0.000 C 
ATOM     12  C   UNL     1       3.570   1.428  18.263  0.00  0.00    +0.000 C 
ATOM     13  O   UNL     1       2.707   2.401  20.250  0.00  0.00    +0.000 OA
ATOM     14  C   UNL     1       2.445   3.442  21.066  0.00  0.00    +0.000 C 
ATOM     15  O   UNL     1       2.034   3.277  22.207  0.00  0.00    +0.000 OA
ENDBRANCH   3   5
BRANCH   1  19
ATOM     16  C   UNL     1       1.094  11.948  18.966  0.00  0.00    +0.000 A 
ATOM     17  C   UNL     1       0.825  11.787  20.325  0.00  0.00    +0.000 A 
ATOM     18  C   UNL     1       0.847  10.512  20.902  0.00  0.00    +0.000 A 
ATOM     19  C   UNL     1       1.121   9.375  20.125  0.00  0.00    +0.000 A 
ATOM     20  C   UNL     1       1.363   9.540  18.758  0.00  0.00    +0.000 A 
ATOM     21  C   UNL     1       1.352  10.822  18.185  0.00  0.00    +0.000 A 
BRANCH  16  23
ATOM     22  C   UNL     1      -0.199  13.913  18.738  0.00  0.00    +0.000 C 
ATOM     23  O   UNL     1       1.031  13.234  18.503  0.00  0.00    +0.000 OA
ENDBRANCH  16  23
ENDBRANCH   1  19
TORSDOF 3
ENDMDL
MODEL 9
REMARK VINA RESULT:      -6.9      2.834      4.497
REMARK  Name = 
REMARK  6 active torsions:
REMARK  status: ('A' for Active; 'I' for Inactive)
REMARK    1  A    between atoms: C_1  and  O_2
REMARK    2  A    between atoms: O_2  and  C_3
REMARK    3  A    between atoms: C_6  and  C_7
REMARK    4  A    between atoms: N_9  and  C_10
REMARK    5  A    between atoms: C_15  and  C_16
REMARK    6  A    between atoms: C_15  and  C_17
REMARK                            x       y       z     vdW  Elec       q    Type
REMARK                         _______ _______ _______ _____ _____    ______ ____
ROOT
ATOM      1  C   UNL     1       0.991   8.066  20.960  0.00  0.00    +0.000 C 
ATOM      2  O   UNL     1       0.125   7.826  21.798  0.00  0.00    +0.000 OA
ATOM      3  N   UNL     1       1.929   7.119  20.563  0.00  0.00    +0.000 N 
ATOM      4  H   UNL     1       2.689   7.378  19.939  0.00  0.00    +0.000 HD
ENDROOT
BRANCH   3   5
ATOM      5  C   UNL     1       1.889   5.812  21.017  0.00  0.00    +0.000 C 
ATOM      6  C   UNL     1       2.592   4.790  20.501  0.00  0.00    +0.000 C 
ATOM      7  C   UNL     1       3.528   4.963  19.392  0.00  0.00    +0.000 C 
ATOM      8  O   UNL     1       4.080   6.030  19.149  0.00  0.00    +0.000 OA
ATOM      9  O   UNL     1       3.725   3.867  18.630  0.00  0.00    +0.000 OA
ATOM     10  C   UNL     1       2.868   2.741  18.819  0.00  0.00    +0.000 C 
ATOM     11  C   UNL     1       1.536   2.942  18.085  0.00  0.00    +0.000 C 
ATOM     12  C   UNL     1       3.589   1.536  18.214  0.00  0.00    +0.000 C 
ATOM     13  O   UNL     1       2.642   2.435  20.197  0.00  0.00    +0.000 OA
ATOM     14  C   UNL     1       2.339   3.446  21.037  0.00  0.00    +0.000 C 
ATOM     15  O   UNL     1       1.887   3.239  22.155  0.00  0.00    +0.000 OA
ENDBRANCH   3   5
BRANCH   1  19
ATOM     16  C   UNL     1       1.223  11.904  18.993  0.00  0.00    +0.000 A 
ATOM     17  C   UNL     1       1.482  10.718  18.306  0.00  0.00    +0.000 A 
ATOM     18  C   UNL     1       1.379   9.486  18.961  0.00  0.00    +0.000 A 
ATOM     19  C   UNL     1       1.033   9.421  20.321  0.00  0.00    +0.000 A 
ATOM     20  C   UNL     1       0.801  10.614  21.011  0.00  0.00    +0.000 A 
ATOM     21  C   UNL     1       0.894  11.848  20.347  0.00  0.00    +0.000 A 
BRANCH  16  23
ATOM     22  C   UNL     1       0.687  14.195  18.766  0.00  0.00    +0.000 C 
ATOM     23  O   UNL     1       1.368  13.051  18.261  0.00  0.00    +0.000 OA
ENDBRANCH  16  23
ENDBRANCH   1  19
TORSDOF 3
ENDMDL
