MODEL 1
REMARK VINA RESULT:      -7.5      0.000      0.000
REMARK  Name = 
REMARK  11 active torsions:
REMARK  status: ('A' for Active; 'I' for Inactive)
REMARK    1  A    between atoms: C_2  and  C_3
REMARK    2  A    between atoms: C_2  and  C_4
REMARK    3  A    between atoms: C_6  and  C_7
REMARK    4  A    between atoms: C_14  and  O_15
REMARK    5  A    between atoms: O_15  and  C_16
REMARK    6  A    between atoms: C_16  and  C_18
REMARK    7  A    between atoms: C_18  and  C_19
REMARK    8  A    between atoms: C_19  and  C_20
REMARK    9  A    between atoms: C_19  and  C_21
REMARK   10  A    between atoms: C_21  and  C_22
REMARK   11  A    between atoms: C_23  and  C_24
REMARK                            x       y       z     vdW  Elec       q    Type
REMARK                         _______ _______ _______ _____ _____    ______ ____
ROOT
ATOM      1  C   UNL     1       2.694   6.531  19.871  0.00  0.00    +0.000 C 
ATOM      2  C   UNL     1       3.468   6.654  18.557  0.00  0.00    +0.000 C 
ATOM      3  C   UNL     1       4.286   5.400  18.145  0.00  0.00    +0.000 C 
ATOM      4  C   UNL     1       5.542   5.277  19.035  0.00  0.00    +0.000 C 
ATOM      5  C   UNL     1       3.460   4.132  18.354  0.00  0.00    +0.000 C 
ATOM      6  C   UNL     1       2.356   4.081  19.118  0.00  0.00    +0.000 C 
ATOM      7  C   UNL     1       1.865   5.246  19.900  0.00  0.00    +0.000 C 
ATOM      8  O   UNL     1       0.868   5.092  20.604  0.00  0.00    +0.000 OA
ATOM      9  C   UNL     1       3.990   2.873  17.707  0.00  0.00    +0.000 C 
ATOM     10  C   UNL     1       4.340   3.075  16.244  0.00  0.00    +0.000 C 
ATOM     11  C   UNL     1       5.242   4.288  15.998  0.00  0.00    +0.000 C 
ATOM     12  C   UNL     1       4.638   5.564  16.618  0.00  0.00    +0.000 C 
ATOM     13  C   UNL     1       5.532   6.783  16.327  0.00  0.00    +0.000 C 
ENDROOT
BRANCH   1  15
ATOM     14  C   UNL     1       1.301   8.058  21.294  0.00  0.00    +0.000 C 
ATOM     15  C   UNL     1       1.836   7.774  20.090  0.00  0.00    +0.000 C 
ATOM     16  C   UNL     1       1.613   8.700  18.921  0.00  0.00    +0.000 C 
ENDBRANCH   1  15
BRANCH  11  17
ATOM     17  O   UNL     1       5.297   4.455  14.562  0.00  0.00    +0.000 OA
BRANCH  17  18
ATOM     18  C   UNL     1       6.541   4.487  14.012  0.00  0.00    +0.000 C 
ATOM     19  O   UNL     1       7.566   4.791  14.606  0.00  0.00    +0.000 OA
BRANCH  18  20
ATOM     20  C   UNL     1       6.515   3.955  12.600  0.00  0.00    +0.000 C 
BRANCH  20  21
ATOM     21  C   UNL     1       5.375   2.969  12.305  0.00  0.00    +0.000 C 
ATOM     22  C   UNL     1       4.318   3.619  11.409  0.00  0.00    +0.000 C 
BRANCH  21  23
ATOM     23  C   UNL     1       5.974   1.699  11.665  0.00  0.00    +0.000 C 
ATOM     24  C   UNL     1       7.292   1.931  10.940  0.00  0.00    +0.000 C 
ENDBRANCH  21  23
ENDBRANCH  20  21
ENDBRANCH  18  20
ENDBRANCH  17  18
ENDBRANCH  11  17
TORSDOF 6
ENDMDL
MODEL 2
REMARK VINA RESULT:      -7.2      0.455      1.123
REMARK  Name = 
REMARK  11 active torsions:
REMARK  status: ('A' for Active; 'I' for Inactive)
REMARK    1  A    between atoms: C_2  and  C_3
REMARK    2  A    between atoms: C_2  and  C_4
REMARK    3  A    between atoms: C_6  and  C_7
REMARK    4  A    between atoms: C_14  and  O_15
REMARK    5  A    between atoms: O_15  and  C_16
REMARK    6  A    between atoms: C_16  and  C_18
REMARK    7  A    between atoms: C_18  and  C_19
REMARK    8  A    between atoms: C_19  and  C_20
REMARK    9  A    between atoms: C_19  and  C_21
REMARK   10  A    between atoms: C_21  and  C_22
REMARK   11  A    between atoms: C_23  and  C_24
REMARK                            x       y       z     vdW  Elec       q    Type
REMARK                         _______ _______ _______ _____ _____    ______ ____
ROOT
ATOM      1  C   UNL     1       2.602   6.544  19.983  0.00  0.00    +0.000 C 
ATOM      2  C   UNL     1       3.411   6.758  18.703  0.00  0.00    +0.000 C 
ATOM      3  C   UNL     1       4.243   5.537  18.227  0.00  0.00    +0.000 C 
ATOM      4  C   UNL     1       5.475   5.354  19.141  0.00  0.00    +0.000 C 
ATOM      5  C   UNL     1       3.416   4.256  18.325  0.00  0.00    +0.000 C 
ATOM      6  C   UNL     1       2.292   4.152  19.054  0.00  0.00    +0.000 C 
ATOM      7  C   UNL     1       1.776   5.260  19.901  0.00  0.00    +0.000 C 
ATOM      8  O   UNL     1       0.760   5.056  20.564  0.00  0.00    +0.000 OA
ATOM      9  C   UNL     1       3.967   3.046  17.608  0.00  0.00    +0.000 C 
ATOM     10  C   UNL     1       4.356   3.349  16.173  0.00  0.00    +0.000 C 
ATOM     11  C   UNL     1       5.261   4.577  16.035  0.00  0.00    +0.000 C 
ATOM     12  C   UNL     1       4.636   5.806  16.726  0.00  0.00    +0.000 C 
ATOM     13  C   UNL     1       5.534   7.044  16.545  0.00  0.00    +0.000 C 
ENDROOT
BRANCH   1  15
ATOM     14  C   UNL     1       1.307   8.059  21.509  0.00  0.00    +0.000 C 
ATOM     15  C   UNL     1       1.735   7.768  20.264  0.00  0.00    +0.000 C 
ATOM     16  C   UNL     1       1.379   8.669  19.109  0.00  0.00    +0.000 C 
ENDBRANCH   1  15
BRANCH  11  17
ATOM     17  O   UNL     1       5.354   4.843  14.616  0.00  0.00    +0.000 OA
BRANCH  17  18
ATOM     18  C   UNL     1       6.552   4.563  14.035  0.00  0.00    +0.000 C 
ATOM     19  O   UNL     1       7.559   5.251  14.129  0.00  0.00    +0.000 OA
BRANCH  18  20
ATOM     20  C   UNL     1       6.520   3.208  13.373  0.00  0.00    +0.000 C 
BRANCH  20  21
ATOM     21  C   UNL     1       5.978   3.206  11.936  0.00  0.00    +0.000 C 
ATOM     22  C   UNL     1       6.172   1.833  11.289  0.00  0.00    +0.000 C 
BRANCH  21  23
ATOM     23  C   UNL     1       4.493   3.626  11.968  0.00  0.00    +0.000 C 
ATOM     24  C   UNL     1       3.705   3.216  10.732  0.00  0.00    +0.000 C 
ENDBRANCH  21  23
ENDBRANCH  20  21
ENDBRANCH  18  20
ENDBRANCH  17  18
ENDBRANCH  11  17
TORSDOF 6
ENDMDL
MODEL 3
REMARK VINA RESULT:      -7.2      2.940      7.971
REMARK  Name = 
REMARK  11 active torsions:
REMARK  status: ('A' for Active; 'I' for Inactive)
REMARK    1  A    between atoms: C_2  and  C_3
REMARK    2  A    between atoms: C_2  and  C_4
REMARK    3  A    between atoms: C_6  and  C_7
REMARK    4  A    between atoms: C_14  and  O_15
REMARK    5  A    between atoms: O_15  and  C_16
REMARK    6  A    between atoms: C_16  and  C_18
REMARK    7  A    between atoms: C_18  and  C_19
REMARK    8  A    between atoms: C_19  and  C_20
REMARK    9  A    between atoms: C_19  and  C_21
REMARK   10  A    between atoms: C_21  and  C_22
REMARK   11  A    between atoms: C_23  and  C_24
REMARK                            x       y       z     vdW  Elec       q    Type
REMARK                         _______ _______ _______ _____ _____    ______ ____
ROOT
ATOM      1  C   UNL     1       4.822   5.491  17.416  0.00  0.00    +0.000 C 
ATOM      2  C   UNL     1       4.077   6.820  17.552  0.00  0.00    +0.000 C 
ATOM      3  C   UNL     1       2.761   6.767  18.374  0.00  0.00    +0.000 C 
ATOM      4  C   UNL     1       1.656   6.073  17.547  0.00  0.00    +0.000 C 
ATOM      5  C   UNL     1       2.957   5.942  19.644  0.00  0.00    +0.000 C 
ATOM      6  C   UNL     1       3.984   5.095  19.829  0.00  0.00    +0.000 C 
ATOM      7  C   UNL     1       4.999   4.820  18.779  0.00  0.00    +0.000 C 
ATOM      8  O   UNL     1       5.880   3.997  19.026  0.00  0.00    +0.000 OA
ATOM      9  C   UNL     1       1.877   6.060  20.694  0.00  0.00    +0.000 C 
ATOM     10  C   UNL     1       1.535   7.504  21.015  0.00  0.00    +0.000 C 
ATOM     11  C   UNL     1       1.243   8.349  19.771  0.00  0.00    +0.000 C 
ATOM     12  C   UNL     1       2.395   8.251  18.751  0.00  0.00    +0.000 C 
ATOM     13  C   UNL     1       2.109   9.138  17.525  0.00  0.00    +0.000 C 
ENDROOT
BRANCH   1  15
ATOM     14  C   UNL     1       6.468   5.040  15.576  0.00  0.00    +0.000 C 
ATOM     15  C   UNL     1       6.154   5.709  16.704  0.00  0.00    +0.000 C 
ATOM     16  C   UNL     1       7.115   6.715  17.283  0.00  0.00    +0.000 C 
ENDBRANCH   1  15
BRANCH  11  17
ATOM     17  O   UNL     1       1.151   9.716  20.234  0.00  0.00    +0.000 OA
BRANCH  17  18
ATOM     18  C   UNL     1      -0.106  10.193  20.440  0.00  0.00    +0.000 C 
ATOM     19  O   UNL     1      -0.738  10.091  21.482  0.00  0.00    +0.000 OA
BRANCH  18  20
ATOM     20  C   UNL     1      -0.571  11.000  19.252  0.00  0.00    +0.000 C 
BRANCH  20  21
ATOM     21  C   UNL     1      -1.876  10.506  18.609  0.00  0.00    +0.000 C 
ATOM     22  C   UNL     1      -2.876  11.656  18.468  0.00  0.00    +0.000 C 
BRANCH  21  23
ATOM     23  C   UNL     1      -1.542   9.859  17.249  0.00  0.00    +0.000 C 
ATOM     24  C   UNL     1      -2.676   9.924  16.236  0.00  0.00    +0.000 C 
ENDBRANCH  21  23
ENDBRANCH  20  21
ENDBRANCH  18  20
ENDBRANCH  17  18
ENDBRANCH  11  17
TORSDOF 6
ENDMDL
MODEL 4
REMARK VINA RESULT:      -6.9      2.893      8.735
REMARK  Name = 
REMARK  11 active torsions:
REMARK  status: ('A' for Active; 'I' for Inactive)
REMARK    1  A    between atoms: C_2  and  C_3
REMARK    2  A    between atoms: C_2  and  C_4
REMARK    3  A    between atoms: C_6  and  C_7
REMARK    4  A    between atoms: C_14  and  O_15
REMARK    5  A    between atoms: O_15  and  C_16
REMARK    6  A    between atoms: C_16  and  C_18
REMARK    7  A    between atoms: C_18  and  C_19
REMARK    8  A    between atoms: C_19  and  C_20
REMARK    9  A    between atoms: C_19  and  C_21
REMARK   10  A    between atoms: C_21  and  C_22
REMARK   11  A    between atoms: C_23  and  C_24
REMARK                            x       y       z     vdW  Elec       q    Type
REMARK                         _______ _______ _______ _____ _____    ______ ____
ROOT
ATOM      1  C   UNL     1       4.591   4.555  17.714  0.00  0.00    +0.000 C 
ATOM      2  C   UNL     1       4.045   5.983  17.777  0.00  0.00    +0.000 C 
ATOM      3  C   UNL     1       2.701   6.150  18.536  0.00  0.00    +0.000 C 
ATOM      4  C   UNL     1       1.542   5.595  17.680  0.00  0.00    +0.000 C 
ATOM      5  C   UNL     1       2.721   5.352  19.839  0.00  0.00    +0.000 C 
ATOM      6  C   UNL     1       3.604   4.372  20.096  0.00  0.00    +0.000 C 
ATOM      7  C   UNL     1       4.611   3.916  19.103  0.00  0.00    +0.000 C 
ATOM      8  O   UNL     1       5.351   2.983  19.416  0.00  0.00    +0.000 OA
ATOM      9  C   UNL     1       1.627   5.663  20.833  0.00  0.00    +0.000 C 
ATOM     10  C   UNL     1       1.486   7.152  21.094  0.00  0.00    +0.000 C 
ATOM     11  C   UNL     1       1.374   7.985  19.814  0.00  0.00    +0.000 C 
ATOM     12  C   UNL     1       2.541   7.685  18.852  0.00  0.00    +0.000 C 
ATOM     13  C   UNL     1       2.440   8.559  17.589  0.00  0.00    +0.000 C 
ENDROOT
BRANCH   1  15
ATOM     14  C   UNL     1       7.045   5.080  17.679  0.00  0.00    +0.000 C 
ATOM     15  C   UNL     1       5.970   4.553  17.059  0.00  0.00    +0.000 C 
ATOM     16  C   UNL     1       6.111   3.923  15.698  0.00  0.00    +0.000 C 
ENDBRANCH   1  15
BRANCH  11  17
ATOM     17  O   UNL     1       1.464   9.367  20.232  0.00  0.00    +0.000 OA
BRANCH  17  18
ATOM     18  C   UNL     1       0.316  10.092  20.148  0.00  0.00    +0.000 C 
ATOM     19  O   UNL     1      -0.518   9.991  19.259  0.00  0.00    +0.000 OA
BRANCH  18  20
ATOM     20  C   UNL     1       0.130  10.942  21.381  0.00  0.00    +0.000 C 
BRANCH  20  21
ATOM     21  C   UNL     1      -0.779  10.328  22.455  0.00  0.00    +0.000 C 
ATOM     22  C   UNL     1       0.038   9.480  23.433  0.00  0.00    +0.000 C 
BRANCH  21  23
ATOM     23  C   UNL     1      -1.538  11.465  23.171  0.00  0.00    +0.000 C 
ATOM     24  C   UNL     1      -1.063  12.861  22.795  0.00  0.00    +0.000 C 
ENDBRANCH  21  23
ENDBRANCH  20  21
ENDBRANCH  18  20
ENDBRANCH  17  18
ENDBRANCH  11  17
TORSDOF 6
ENDMDL
MODEL 5
REMARK VINA RESULT:      -6.8      3.012      9.017
REMARK  Name = 
REMARK  11 active torsions:
REMARK  status: ('A' for Active; 'I' for Inactive)
REMARK    1  A    between atoms: C_2  and  C_3
REMARK    2  A    between atoms: C_2  and  C_4
REMARK    3  A    between atoms: C_6  and  C_7
REMARK    4  A    between atoms: C_14  and  O_15
REMARK    5  A    between atoms: O_15  and  C_16
REMARK    6  A    between atoms: C_16  and  C_18
REMARK    7  A    between atoms: C_18  and  C_19
REMARK    8  A    between atoms: C_19  and  C_20
REMARK    9  A    between atoms: C_19  and  C_21
REMARK   10  A    between atoms: C_21  and  C_22
REMARK   11  A    between atoms: C_23  and  C_24
REMARK                            x       y       z     vdW  Elec       q    Type
REMARK                         _______ _______ _______ _____ _____    ______ ____
ROOT
ATOM      1  C   UNL     1       4.753   5.477  17.460  0.00  0.00    +0.000 C 
ATOM      2  C   UNL     1       4.027   6.818  17.582  0.00  0.00    +0.000 C 
ATOM      3  C   UNL     1       2.703   6.788  18.393  0.00  0.00    +0.000 C 
ATOM      4  C   UNL     1       1.595   6.104  17.563  0.00  0.00    +0.000 C 
ATOM      5  C   UNL     1       2.878   5.970  19.671  0.00  0.00    +0.000 C 
ATOM      6  C   UNL     1       3.892   5.109  19.869  0.00  0.00    +0.000 C 
ATOM      7  C   UNL     1       4.911   4.813  18.828  0.00  0.00    +0.000 C 
ATOM      8  O   UNL     1       5.778   3.980  19.089  0.00  0.00    +0.000 OA
ATOM      9  C   UNL     1       1.792   6.110  20.711  0.00  0.00    +0.000 C 
ATOM     10  C   UNL     1       1.467   7.561  21.019  0.00  0.00    +0.000 C 
ATOM     11  C   UNL     1       1.197   8.401  19.768  0.00  0.00    +0.000 C 
ATOM     12  C   UNL     1       2.355   8.281  18.757  0.00  0.00    +0.000 C 
ATOM     13  C   UNL     1       2.092   9.163  17.523  0.00  0.00    +0.000 C 
ENDROOT
BRANCH   1  15
ATOM     14  C   UNL     1       6.431   4.948  15.670  0.00  0.00    +0.000 C 
ATOM     15  C   UNL     1       6.094   5.672  16.757  0.00  0.00    +0.000 C 
ATOM     16  C   UNL     1       7.036   6.717  17.297  0.00  0.00    +0.000 C 
ENDBRANCH   1  15
BRANCH  11  17
ATOM     17  O   UNL     1       1.121   9.773  20.221  0.00  0.00    +0.000 OA
BRANCH  17  18
ATOM     18  C   UNL     1      -0.104  10.358  20.147  0.00  0.00    +0.000 C 
ATOM     19  O   UNL     1      -1.020   9.989  19.424  0.00  0.00    +0.000 OA
BRANCH  18  20
ATOM     20  C   UNL     1      -0.241  11.445  21.185  0.00  0.00    +0.000 C 
BRANCH  20  21
ATOM     21  C   UNL     1      -1.147  11.089  22.373  0.00  0.00    +0.000 C 
ATOM     22  C   UNL     1      -0.506   9.994  23.230  0.00  0.00    +0.000 C 
BRANCH  21  23
ATOM     23  C   UNL     1      -1.424  12.371  23.186  0.00  0.00    +0.000 C 
ATOM     24  C   UNL     1      -2.656  13.140  22.732  0.00  0.00    +0.000 C 
ENDBRANCH  21  23
ENDBRANCH  20  21
ENDBRANCH  18  20
ENDBRANCH  17  18
ENDBRANCH  11  17
TORSDOF 6
ENDMDL
MODEL 6
REMARK VINA RESULT:      -6.8      1.601      7.499
REMARK  Name = 
REMARK  11 active torsions:
REMARK  status: ('A' for Active; 'I' for Inactive)
REMARK    1  A    between atoms: C_2  and  C_3
REMARK    2  A    between atoms: C_2  and  C_4
REMARK    3  A    between atoms: C_6  and  C_7
REMARK    4  A    between atoms: C_14  and  O_15
REMARK    5  A    between atoms: O_15  and  C_16
REMARK    6  A    between atoms: C_16  and  C_18
REMARK    7  A    between atoms: C_18  and  C_19
REMARK    8  A    between atoms: C_19  and  C_20
REMARK    9  A    between atoms: C_19  and  C_21
REMARK   10  A    between atoms: C_21  and  C_22
REMARK   11  A    between atoms: C_23  and  C_24
REMARK                            x       y       z     vdW  Elec       q    Type
REMARK                         _______ _______ _______ _____ _____    ______ ____
ROOT
ATOM      1  C   UNL     1       6.316   3.761  13.796  0.00  0.00    +0.000 C 
ATOM      2  C   UNL     1       5.096   3.880  14.711  0.00  0.00    +0.000 C 
ATOM      3  C   UNL     1       5.371   4.486  16.114  0.00  0.00    +0.000 C 
ATOM      4  C   UNL     1       6.106   3.454  16.996  0.00  0.00    +0.000 C 
ATOM      5  C   UNL     1       6.280   5.708  15.999  0.00  0.00    +0.000 C 
ATOM      6  C   UNL     1       7.020   5.984  14.911  0.00  0.00    +0.000 C 
ATOM      7  C   UNL     1       7.083   5.082  13.731  0.00  0.00    +0.000 C 
ATOM      8  O   UNL     1       7.821   5.399  12.800  0.00  0.00    +0.000 OA
ATOM      9  C   UNL     1       6.380   6.588  17.223  0.00  0.00    +0.000 C 
ATOM     10  C   UNL     1       5.018   6.958  17.784  0.00  0.00    +0.000 C 
ATOM     11  C   UNL     1       4.102   5.750  17.999  0.00  0.00    +0.000 C 
ATOM     12  C   UNL     1       3.977   4.912  16.711  0.00  0.00    +0.000 C 
ATOM     13  C   UNL     1       3.020   3.725  16.928  0.00  0.00    +0.000 C 
ENDROOT
BRANCH   1  15
ATOM     14  C   UNL     1       4.662   3.552  11.921  0.00  0.00    +0.000 C 
ATOM     15  C   UNL     1       5.886   3.277  12.414  0.00  0.00    +0.000 C 
ATOM     16  C   UNL     1       6.878   2.493  11.593  0.00  0.00    +0.000 C 
ENDBRANCH   1  15
BRANCH  11  17
ATOM     17  O   UNL     1       2.801   6.294  18.324  0.00  0.00    +0.000 OA
BRANCH  17  18
ATOM     18  C   UNL     1       2.476   6.313  19.645  0.00  0.00    +0.000 C 
ATOM     19  O   UNL     1       1.846   7.199  20.203  0.00  0.00    +0.000 OA
BRANCH  18  20
ATOM     20  C   UNL     1       2.872   5.018  20.311  0.00  0.00    +0.000 C 
BRANCH  20  21
ATOM     21  C   UNL     1       1.703   4.210  20.894  0.00  0.00    +0.000 C 
ATOM     22  C   UNL     1       0.747   3.769  19.783  0.00  0.00    +0.000 C 
BRANCH  21  23
ATOM     23  C   UNL     1       2.274   3.009  21.677  0.00  0.00    +0.000 C 
ATOM     24  C   UNL     1       3.434   2.310  20.983  0.00  0.00    +0.000 C 
ENDBRANCH  21  23
ENDBRANCH  20  21
ENDBRANCH  18  20
ENDBRANCH  17  18
ENDBRANCH  11  17
TORSDOF 6
ENDMDL
MODEL 7
REMARK VINA RESULT:      -6.8      2.877      8.157
REMARK  Name = 
REMARK  11 active torsions:
REMARK  status: ('A' for Active; 'I' for Inactive)
REMARK    1  A    between atoms: C_2  and  C_3
REMARK    2  A    between atoms: C_2  and  C_4
REMARK    3  A    between atoms: C_6  and  C_7
REMARK    4  A    between atoms: C_14  and  O_15
REMARK    5  A    between atoms: O_15  and  C_16
REMARK    6  A    between atoms: C_16  and  C_18
REMARK    7  A    between atoms: C_18  and  C_19
REMARK    8  A    between atoms: C_19  and  C_20
REMARK    9  A    between atoms: C_19  and  C_21
REMARK   10  A    between atoms: C_21  and  C_22
REMARK   11  A    between atoms: C_23  and  C_24
REMARK                            x       y       z     vdW  Elec       q    Type
REMARK                         _______ _______ _______ _____ _____    ______ ____
ROOT
ATOM      1  C   UNL     1       4.509   4.835  17.609  0.00  0.00    +0.000 C 
ATOM      2  C   UNL     1       3.944   6.257  17.652  0.00  0.00    +0.000 C 
ATOM      3  C   UNL     1       2.631   6.429  18.461  0.00  0.00    +0.000 C 
ATOM      4  C   UNL     1       1.446   5.833  17.670  0.00  0.00    +0.000 C 
ATOM      5  C   UNL     1       2.715   5.671  19.785  0.00  0.00    +0.000 C 
ATOM      6  C   UNL     1       3.623   4.711  20.034  0.00  0.00    +0.000 C 
ATOM      7  C   UNL     1       4.595   4.238  19.014  0.00  0.00    +0.000 C 
ATOM      8  O   UNL     1       5.360   3.325  19.324  0.00  0.00    +0.000 OA
ATOM      9  C   UNL     1       1.658   5.997  20.813  0.00  0.00    +0.000 C 
ATOM     10  C   UNL     1       1.507   7.491  21.036  0.00  0.00    +0.000 C 
ATOM     11  C   UNL     1       1.331   8.284  19.737  0.00  0.00    +0.000 C 
ATOM     12  C   UNL     1       2.462   7.970  18.738  0.00  0.00    +0.000 C 
ATOM     13  C   UNL     1       2.296   8.804  17.454  0.00  0.00    +0.000 C 
ENDROOT
BRANCH   1  15
ATOM     14  C   UNL     1       6.874   5.618  17.309  0.00  0.00    +0.000 C 
ATOM     15  C   UNL     1       5.860   4.831  16.898  0.00  0.00    +0.000 C 
ATOM     16  C   UNL     1       6.044   3.902  15.726  0.00  0.00    +0.000 C 
ENDBRANCH   1  15
BRANCH  11  17
ATOM     17  O   UNL     1       1.418   9.679  20.110  0.00  0.00    +0.000 OA
BRANCH  17  18
ATOM     18  C   UNL     1       0.396  10.158  20.869  0.00  0.00    +0.000 C 
ATOM     19  O   UNL     1       0.501  10.566  22.018  0.00  0.00    +0.000 OA
BRANCH  18  20
ATOM     20  C   UNL     1      -0.872  10.259  20.056  0.00  0.00    +0.000 C 
BRANCH  20  21
ATOM     21  C   UNL     1      -0.696  10.888  18.667  0.00  0.00    +0.000 C 
ATOM     22  C   UNL     1      -1.328  10.003  17.590  0.00  0.00    +0.000 C 
BRANCH  21  23
ATOM     23  C   UNL     1      -1.309  12.305  18.684  0.00  0.00    +0.000 C 
ATOM     24  C   UNL     1      -2.260  12.556  19.846  0.00  0.00    +0.000 C 
ENDBRANCH  21  23
ENDBRANCH  20  21
ENDBRANCH  18  20
ENDBRANCH  17  18
ENDBRANCH  11  17
TORSDOF 6
ENDMDL
MODEL 8
REMARK VINA RESULT:      -6.7      2.854      8.159
REMARK  Name = 
REMARK  11 active torsions:
REMARK  status: ('A' for Active; 'I' for Inactive)
REMARK    1  A    between atoms: C_2  and  C_3
REMARK    2  A    between atoms: C_2  and  C_4
REMARK    3  A    between atoms: C_6  and  C_7
REMARK    4  A    between atoms: C_14  and  O_15
REMARK    5  A    between atoms: O_15  and  C_16
REMARK    6  A    between atoms: C_16  and  C_18
REMARK    7  A    between atoms: C_18  and  C_19
REMARK    8  A    between atoms: C_19  and  C_20
REMARK    9  A    between atoms: C_19  and  C_21
REMARK   10  A    between atoms: C_21  and  C_22
REMARK   11  A    between atoms: C_23  and  C_24
REMARK                            x       y       z     vdW  Elec       q    Type
REMARK                         _______ _______ _______ _____ _____    ______ ____
ROOT
ATOM      1  C   UNL     1       5.053   5.362  17.298  0.00  0.00    +0.000 C 
ATOM      2  C   UNL     1       4.204   6.613  17.530  0.00  0.00    +0.000 C 
ATOM      3  C   UNL     1       2.925   6.402  18.384  0.00  0.00    +0.000 C 
ATOM      4  C   UNL     1       1.855   5.661  17.552  0.00  0.00    +0.000 C 
ATOM      5  C   UNL     1       3.232   5.530  19.600  0.00  0.00    +0.000 C 
ATOM      6  C   UNL     1       4.333   4.766  19.707  0.00  0.00    +0.000 C 
ATOM      7  C   UNL     1       5.332   4.636  18.614  0.00  0.00    +0.000 C 
ATOM      8  O   UNL     1       6.287   3.881  18.790  0.00  0.00    +0.000 OA
ATOM      9  C   UNL     1       2.182   5.498  20.685  0.00  0.00    +0.000 C 
ATOM     10  C   UNL     1       1.729   6.887  21.097  0.00  0.00    +0.000 C 
ATOM     11  C   UNL     1       1.326   7.770  19.912  0.00  0.00    +0.000 C 
ATOM     12  C   UNL     1       2.447   7.827  18.855  0.00  0.00    +0.000 C 
ATOM     13  C   UNL     1       2.047   8.751  17.690  0.00  0.00    +0.000 C 
ENDROOT
BRANCH   1  15
ATOM     14  C   UNL     1       6.689   5.126  15.409  0.00  0.00    +0.000 C 
ATOM     15  C   UNL     1       6.338   5.732  16.561  0.00  0.00    +0.000 C 
ATOM     16  C   UNL     1       7.206   6.816  17.145  0.00  0.00    +0.000 C 
ENDBRANCH   1  15
BRANCH  11  17
ATOM     17  O   UNL     1       1.134   9.097  20.454  0.00  0.00    +0.000 OA
BRANCH  17  18
ATOM     18  C   UNL     1      -0.088   9.350  20.993  0.00  0.00    +0.000 C 
ATOM     19  O   UNL     1      -0.615   8.698  21.884  0.00  0.00    +0.000 OA
BRANCH  18  20
ATOM     20  C   UNL     1      -0.656  10.638  20.448  0.00  0.00    +0.000 C 
BRANCH  20  21
ATOM     21  C   UNL     1      -0.467  10.836  18.938  0.00  0.00    +0.000 C 
ATOM     22  C   UNL     1      -1.703  10.356  18.173  0.00  0.00    +0.000 C 
BRANCH  21  23
ATOM     23  C   UNL     1      -0.162  12.325  18.668  0.00  0.00    +0.000 C 
ATOM     24  C   UNL     1      -1.046  13.290  19.446  0.00  0.00    +0.000 C 
ENDBRANCH  21  23
ENDBRANCH  20  21
ENDBRANCH  18  20
ENDBRANCH  17  18
ENDBRANCH  11  17
TORSDOF 6
ENDMDL
MODEL 9
REMARK VINA RESULT:      -6.7      4.705      7.993
REMARK  Name = 
REMARK  11 active torsions:
REMARK  status: ('A' for Active; 'I' for Inactive)
REMARK    1  A    between atoms: C_2  and  C_3
REMARK    2  A    between atoms: C_2  and  C_4
REMARK    3  A    between atoms: C_6  and  C_7
REMARK    4  A    between atoms: C_14  and  O_15
REMARK    5  A    between atoms: O_15  and  C_16
REMARK    6  A    between atoms: C_16  and  C_18
REMARK    7  A    between atoms: C_18  and  C_19
REMARK    8  A    between atoms: C_19  and  C_20
REMARK    9  A    between atoms: C_19  and  C_21
REMARK   10  A    between atoms: C_21  and  C_22
REMARK   11  A    between atoms: C_23  and  C_24
REMARK                            x       y       z     vdW  Elec       q    Type
REMARK                         _______ _______ _______ _____ _____    ______ ____
ROOT
ATOM      1  C   UNL     1      -1.833  12.637  21.376  0.00  0.00    +0.000 C 
ATOM      2  C   UNL     1      -1.198  11.755  20.298  0.00  0.00    +0.000 C 
ATOM      3  C   UNL     1       0.077  10.984  20.733  0.00  0.00    +0.000 C 
ATOM      4  C   UNL     1       1.270  11.960  20.835  0.00  0.00    +0.000 C 
ATOM      5  C   UNL     1      -0.118  10.367  22.117  0.00  0.00    +0.000 C 
ATOM      6  C   UNL     1      -1.086  10.745  22.969  0.00  0.00    +0.000 C 
ATOM      7  C   UNL     1      -2.025  11.859  22.677  0.00  0.00    +0.000 C 
ATOM      8  O   UNL     1      -2.852  12.159  23.538  0.00  0.00    +0.000 OA
ATOM      9  C   UNL     1       0.898   9.331  22.539  0.00  0.00    +0.000 C 
ATOM     10  C   UNL     1       1.115   8.266  21.479  0.00  0.00    +0.000 C 
ATOM     11  C   UNL     1       1.402   8.842  20.089  0.00  0.00    +0.000 C 
ATOM     12  C   UNL     1       0.311   9.847  19.669  0.00  0.00    +0.000 C 
ATOM     13  C   UNL     1       0.589  10.387  18.253  0.00  0.00    +0.000 C 
ENDROOT
BRANCH   1  15
ATOM     14  C   UNL     1      -4.021  12.490  20.155  0.00  0.00    +0.000 C 
ATOM     15  C   UNL     1      -3.142  13.230  20.860  0.00  0.00    +0.000 C 
ATOM     16  C   UNL     1      -3.444  14.672  21.178  0.00  0.00    +0.000 C 
ENDBRANCH   1  15
BRANCH  11  17
ATOM     17  O   UNL     1       1.368   7.717  19.180  0.00  0.00    +0.000 OA
BRANCH  17  18
ATOM     18  C   UNL     1       2.564   7.339  18.654  0.00  0.00    +0.000 C 
ATOM     19  O   UNL     1       3.231   8.000  17.871  0.00  0.00    +0.000 OA
BRANCH  18  20
ATOM     20  C   UNL     1       3.038   6.049  19.279  0.00  0.00    +0.000 C 
BRANCH  20  21
ATOM     21  C   UNL     1       1.920   5.061  19.641  0.00  0.00    +0.000 C 
ATOM     22  C   UNL     1       1.864   3.916  18.627  0.00  0.00    +0.000 C 
BRANCH  21  23
ATOM     23  C   UNL     1       2.157   4.550  21.077  0.00  0.00    +0.000 C 
ATOM     24  C   UNL     1       1.615   3.152  21.337  0.00  0.00    +0.000 C 
ENDBRANCH  21  23
ENDBRANCH  20  21
ENDBRANCH  18  20
ENDBRANCH  17  18
ENDBRANCH  11  17
TORSDOF 6
ENDMDL
