MODEL 1
REMARK VINA RESULT:      -7.7      0.000      0.000
REMARK  Name = 
REMARK  8 active torsions:
REMARK  status: ('A' for Active; 'I' for Inactive)
REMARK    1  A    between atoms: C_2  and  O_3
REMARK    2  A    between atoms: C_2  and  C_4
REMARK    3  A    between atoms: C_9  and  N_10
REMARK    4  A    between atoms: N_10  and  C_11
REMARK    5  A    between atoms: C_11  and  C_12
REMARK    6  A    between atoms: C_12  and  O_13
REMARK    7  A    between atoms: C_12  and  C_14
REMARK    8  A    between atoms: C_14  and  N_15
REMARK                            x       y       z     vdW  Elec       q    Type
REMARK                         _______ _______ _______ _____ _____    ______ ____
ROOT
ATOM      1  C   UNL     1       2.185   3.636  20.670  0.00  0.00    +0.000 C 
ENDROOT
BRANCH   1   2
ATOM      2  O   UNL     1       1.462   2.823  21.610  0.00  0.00    +0.000 OA
ATOM      3  H   UNL     1       2.029   2.697  22.391  0.00  0.00    +0.000 HD
ENDBRANCH   1   2
BRANCH   1   4
ATOM      4  C   UNL     1       1.484   5.009  20.597  0.00  0.00    +0.000 C 
BRANCH   4   5
ATOM      5  N   UNL     1       2.411   6.151  20.704  0.00  0.00    +0.000 N 
ATOM      6  H   UNL     1       3.372   5.798  20.581  0.00  0.00    +0.000 HD
BRANCH   5  12
ATOM      7  C   UNL     1       1.530   8.338  20.087  0.00  0.00    +0.000 A 
ATOM      8  C   UNL     1       1.372   9.340  19.124  0.00  0.00    +0.000 A 
ATOM      9  C   UNL     1       1.918   9.171  17.859  0.00  0.00    +0.000 A 
ATOM     10  C   UNL     1       2.595   7.996  17.600  0.00  0.00    +0.000 A 
ATOM     11  N   UNL     1       2.740   6.994  18.502  0.00  0.00    +0.000 NA
ATOM     12  C   UNL     1       2.222   7.166  19.736  0.00  0.00    +0.000 A 
BRANCH   7  14
ATOM     13  O   UNL     1      -0.325   8.425  21.563  0.00  0.00    +0.000 OA
ATOM     14  C   UNL     1       0.880   8.543  21.404  0.00  0.00    +0.000 C 
BRANCH  14  15
ATOM     15  O   UNL     1       1.729   8.788  22.426  0.00  0.00    +0.000 OA
ATOM     16  H   UNL     1       2.426   9.442  22.178  0.00  0.00    +0.000 HD
ENDBRANCH  14  15
ENDBRANCH   7  14
ENDBRANCH   5  12
ENDBRANCH   4   5
ENDBRANCH   1   4
BRANCH   1  17
ATOM     17  C   UNL     1       2.204   3.018  19.241  0.00  0.00    +0.000 C 
BRANCH  17  18
ATOM     18  N   UNL     1       3.510   2.968  18.556  0.00  0.00    +0.000 NA
ATOM     19  C   UNL     1       4.639   3.326  19.445  0.00  0.00    +0.000 C 
ATOM     20  C   UNL     1       5.436   4.594  19.090  0.00  0.00    +0.000 C 
ATOM     21  C   UNL     1       5.807   4.568  17.635  0.00  0.00    +0.000 A 
ATOM     22  C   UNL     1       7.053   4.989  17.164  0.00  0.00    +0.000 A 
ATOM     23  C   UNL     1       7.327   4.935  15.798  0.00  0.00    +0.000 A 
ATOM     24  C   UNL     1       6.356   4.478  14.906  0.00  0.00    +0.000 A 
ATOM     25  C   UNL     1       5.101   4.076  15.374  0.00  0.00    +0.000 A 
ATOM     26  C   UNL     1       4.825   4.110  16.744  0.00  0.00    +0.000 A 
ATOM     27  C   UNL     1       3.464   3.768  17.310  0.00  0.00    +0.000 C 
ENDBRANCH  17  18
ENDBRANCH   1  17
TORSDOF 8
ENDMDL
MODEL 2
REMARK VINA RESULT:      -7.5      3.004      5.859
REMARK  Name = 
REMARK  8 active torsions:
REMARK  status: ('A' for Active; 'I' for Inactive)
REMARK    1  A    between atoms: C_2  and  O_3
REMARK    2  A    between atoms: C_2  and  C_4
REMARK    3  A    between atoms: C_9  and  N_10
REMARK    4  A    between atoms: N_10  and  C_11
REMARK    5  A    between atoms: C_11  and  C_12
REMARK    6  A    between atoms: C_12  and  O_13
REMARK    7  A    between atoms: C_12  and  C_14
REMARK    8  A    between atoms: C_14  and  N_15
REMARK                            x       y       z     vdW  Elec       q    Type
REMARK                         _______ _______ _______ _____ _____    ______ ____
ROOT
ATOM      1  C   UNL     1       3.539   2.221  18.502  0.00  0.00    +0.000 C 
ENDROOT
BRANCH   1   2
ATOM      2  O   UNL     1       3.851   0.819  18.563  0.00  0.00    +0.000 OA
ATOM      3  H   UNL     1       4.053   0.601  19.490  0.00  0.00    +0.000 HD
ENDBRANCH   1   2
BRANCH   1   4
ATOM      4  C   UNL     1       4.834   3.007  18.795  0.00  0.00    +0.000 C 
BRANCH   4   5
ATOM      5  N   UNL     1       5.400   3.674  17.607  0.00  0.00    +0.000 N 
ATOM      6  H   UNL     1       4.622   4.079  17.065  0.00  0.00    +0.000 HD
BRANCH   5  12
ATOM      7  C   UNL     1       6.489   5.749  16.937  0.00  0.00    +0.000 A 
ATOM      8  C   UNL     1       7.361   6.800  17.241  0.00  0.00    +0.000 A 
ATOM      9  C   UNL     1       7.995   6.833  18.476  0.00  0.00    +0.000 A 
ATOM     10  C   UNL     1       7.740   5.803  19.359  0.00  0.00    +0.000 A 
ATOM     11  N   UNL     1       6.922   4.756  19.083  0.00  0.00    +0.000 NA
ATOM     12  C   UNL     1       6.296   4.734  17.889  0.00  0.00    +0.000 A 
BRANCH   7  14
ATOM     13  O   UNL     1       5.937   4.753  14.856  0.00  0.00    +0.000 OA
ATOM     14  C   UNL     1       5.882   5.732  15.584  0.00  0.00    +0.000 C 
BRANCH  14  15
ATOM     15  O   UNL     1       5.195   6.847  15.254  0.00  0.00    +0.000 OA
ATOM     16  H   UNL     1       4.445   6.652  14.641  0.00  0.00    +0.000 HD
ENDBRANCH  14  15
ENDBRANCH   7  14
ENDBRANCH   5  12
ENDBRANCH   4   5
ENDBRANCH   1   4
BRANCH   1  17
ATOM     17  C   UNL     1       2.465   2.638  19.550  0.00  0.00    +0.000 C 
BRANCH  17  18
ATOM     18  N   UNL     1       1.792   3.933  19.333  0.00  0.00    +0.000 NA
ATOM     19  C   UNL     1       1.919   4.420  17.940  0.00  0.00    +0.000 C 
ATOM     20  C   UNL     1       2.697   5.730  17.723  0.00  0.00    +0.000 C 
ATOM     21  C   UNL     1       2.203   6.777  18.680  0.00  0.00    +0.000 A 
ATOM     22  C   UNL     1       2.028   8.114  18.314  0.00  0.00    +0.000 A 
ATOM     23  C   UNL     1       1.565   9.031  19.256  0.00  0.00    +0.000 A 
ATOM     24  C   UNL     1       1.292   8.618  20.561  0.00  0.00    +0.000 A 
ATOM     25  C   UNL     1       1.486   7.284  20.934  0.00  0.00    +0.000 A 
ATOM     26  C   UNL     1       1.934   6.355  19.991  0.00  0.00    +0.000 A 
ATOM     27  C   UNL     1       2.242   4.917  20.344  0.00  0.00    +0.000 C 
ENDBRANCH  17  18
ENDBRANCH   1  17
TORSDOF 8
ENDMDL
MODEL 3
REMARK VINA RESULT:      -7.4      2.756      6.203
REMARK  Name = 
REMARK  8 active torsions:
REMARK  status: ('A' for Active; 'I' for Inactive)
REMARK    1  A    between atoms: C_2  and  O_3
REMARK    2  A    between atoms: C_2  and  C_4
REMARK    3  A    between atoms: C_9  and  N_10
REMARK    4  A    between atoms: N_10  and  C_11
REMARK    5  A    between atoms: C_11  and  C_12
REMARK    6  A    between atoms: C_12  and  O_13
REMARK    7  A    between atoms: C_12  and  C_14
REMARK    8  A    between atoms: C_14  and  N_15
REMARK                            x       y       z     vdW  Elec       q    Type
REMARK                         _______ _______ _______ _____ _____    ______ ____
ROOT
ATOM      1  C   UNL     1       3.132   3.523  19.654  0.00  0.00    +0.000 C 
ENDROOT
BRANCH   1   2
ATOM      2  O   UNL     1       2.660   2.593  20.644  0.00  0.00    +0.000 OA
ATOM      3  H   UNL     1       3.329   1.892  20.735  0.00  0.00    +0.000 HD
ENDBRANCH   1   2
BRANCH   1   4
ATOM      4  C   UNL     1       4.558   3.096  19.246  0.00  0.00    +0.000 C 
BRANCH   4   5
ATOM      5  N   UNL     1       5.019   3.711  17.988  0.00  0.00    +0.000 N 
ATOM      6  H   UNL     1       4.215   4.179  17.544  0.00  0.00    +0.000 HD
BRANCH   5  12
ATOM      7  C   UNL     1       6.281   5.595  17.092  0.00  0.00    +0.000 A 
ATOM      8  C   UNL     1       7.267   6.572  17.268  0.00  0.00    +0.000 A 
ATOM      9  C   UNL     1       7.955   6.646  18.472  0.00  0.00    +0.000 A 
ATOM     10  C   UNL     1       7.638   5.730  19.454  0.00  0.00    +0.000 A 
ATOM     11  N   UNL     1       6.708   4.753  19.304  0.00  0.00    +0.000 NA
ATOM     12  C   UNL     1       6.029   4.692  18.139  0.00  0.00    +0.000 A 
BRANCH   7  14
ATOM     13  O   UNL     1       5.479   4.471  15.163  0.00  0.00    +0.000 OA
ATOM     14  C   UNL     1       5.615   5.522  15.769  0.00  0.00    +0.000 C 
BRANCH  14  15
ATOM     15  O   UNL     1       5.100   6.690  15.327  0.00  0.00    +0.000 OA
ATOM     16  H   UNL     1       5.464   6.944  14.444  0.00  0.00    +0.000 HD
ENDBRANCH  14  15
ENDBRANCH   7  14
ENDBRANCH   5  12
ENDBRANCH   4   5
ENDBRANCH   1   4
BRANCH   1  17
ATOM     17  C   UNL     1       3.192   4.983  20.193  0.00  0.00    +0.000 C 
BRANCH  17  18
ATOM     18  N   UNL     1       2.233   5.944  19.616  0.00  0.00    +0.000 NA
ATOM     19  C   UNL     1       2.543   6.292  18.210  0.00  0.00    +0.000 C 
ATOM     20  C   UNL     1       2.914   7.757  17.916  0.00  0.00    +0.000 C 
ATOM     21  C   UNL     1       1.906   8.671  18.549  0.00  0.00    +0.000 A 
ATOM     22  C   UNL     1       1.428   9.823  17.919  0.00  0.00    +0.000 A 
ATOM     23  C   UNL     1       0.491  10.626  18.568  0.00  0.00    +0.000 A 
ATOM     24  C   UNL     1       0.045  10.288  19.846  0.00  0.00    +0.000 A 
ATOM     25  C   UNL     1       0.538   9.147  20.486  0.00  0.00    +0.000 A 
ATOM     26  C   UNL     1       1.464   8.328  19.836  0.00  0.00    +0.000 A 
ATOM     27  C   UNL     1       2.099   7.126  20.499  0.00  0.00    +0.000 C 
ENDBRANCH  17  18
ENDBRANCH   1  17
TORSDOF 8
ENDMDL
MODEL 4
REMARK VINA RESULT:      -7.3      0.691      1.465
REMARK  Name = 
REMARK  8 active torsions:
REMARK  status: ('A' for Active; 'I' for Inactive)
REMARK    1  A    between atoms: C_2  and  O_3
REMARK    2  A    between atoms: C_2  and  C_4
REMARK    3  A    between atoms: C_9  and  N_10
REMARK    4  A    between atoms: N_10  and  C_11
REMARK    5  A    between atoms: C_11  and  C_12
REMARK    6  A    between atoms: C_12  and  O_13
REMARK    7  A    between atoms: C_12  and  C_14
REMARK    8  A    between atoms: C_14  and  N_15
REMARK                            x       y       z     vdW  Elec       q    Type
REMARK                         _______ _______ _______ _____ _____    ______ ____
ROOT
ATOM      1  C   UNL     1       1.856   3.902  21.219  0.00  0.00    +0.000 C 
ENDROOT
BRANCH   1   2
ATOM      2  O   UNL     1       0.796   2.933  21.148  0.00  0.00    +0.000 OA
ATOM      3  H   UNL     1       0.067   3.248  21.712  0.00  0.00    +0.000 HD
ENDBRANCH   1   2
BRANCH   1   4
ATOM      4  C   UNL     1       1.365   5.190  20.525  0.00  0.00    +0.000 C 
BRANCH   4   5
ATOM      5  N   UNL     1       2.278   6.336  20.695  0.00  0.00    +0.000 N 
ATOM      6  H   UNL     1       3.242   6.004  20.547  0.00  0.00    +0.000 HD
BRANCH   5  12
ATOM      7  C   UNL     1       1.442   8.579  20.237  0.00  0.00    +0.000 A 
ATOM      8  C   UNL     1       1.265   9.633  19.334  0.00  0.00    +0.000 A 
ATOM      9  C   UNL     1       1.732   9.510  18.032  0.00  0.00    +0.000 A 
ATOM     10  C   UNL     1       2.350   8.328  17.678  0.00  0.00    +0.000 A 
ATOM     11  N   UNL     1       2.511   7.277  18.521  0.00  0.00    +0.000 NA
ATOM     12  C   UNL     1       2.070   7.404  19.790  0.00  0.00    +0.000 A 
BRANCH   7  14
ATOM     13  O   UNL     1      -0.307   8.549  21.841  0.00  0.00    +0.000 OA
ATOM     14  C   UNL     1       0.875   8.739  21.598  0.00  0.00    +0.000 C 
BRANCH  14  15
ATOM     15  O   UNL     1       1.779   9.029  22.560  0.00  0.00    +0.000 OA
ATOM     16  H   UNL     1       1.660   8.462  23.360  0.00  0.00    +0.000 HD
ENDBRANCH  14  15
ENDBRANCH   7  14
ENDBRANCH   5  12
ENDBRANCH   4   5
ENDBRANCH   1   4
BRANCH   1  17
ATOM     17  C   UNL     1       3.150   3.420  20.500  0.00  0.00    +0.000 C 
BRANCH  17  18
ATOM     18  N   UNL     1       3.526   4.129  19.262  0.00  0.00    +0.000 NA
ATOM     19  C   UNL     1       2.962   3.500  18.046  0.00  0.00    +0.000 C 
ATOM     20  C   UNL     1       3.961   2.918  17.029  0.00  0.00    +0.000 C 
ATOM     21  C   UNL     1       5.032   3.929  16.737  0.00  0.00    +0.000 A 
ATOM     22  C   UNL     1       5.545   4.138  15.455  0.00  0.00    +0.000 A 
ATOM     23  C   UNL     1       6.539   5.096  15.258  0.00  0.00    +0.000 A 
ATOM     24  C   UNL     1       7.029   5.830  16.339  0.00  0.00    +0.000 A 
ATOM     25  C   UNL     1       6.530   5.607  17.626  0.00  0.00    +0.000 A 
ATOM     26  C   UNL     1       5.522   4.661  17.829  0.00  0.00    +0.000 A 
ATOM     27  C   UNL     1       4.994   4.312  19.203  0.00  0.00    +0.000 C 
ENDBRANCH  17  18
ENDBRANCH   1  17
TORSDOF 8
ENDMDL
MODEL 5
REMARK VINA RESULT:      -6.9      5.621      7.058
REMARK  Name = 
REMARK  8 active torsions:
REMARK  status: ('A' for Active; 'I' for Inactive)
REMARK    1  A    between atoms: C_2  and  O_3
REMARK    2  A    between atoms: C_2  and  C_4
REMARK    3  A    between atoms: C_9  and  N_10
REMARK    4  A    between atoms: N_10  and  C_11
REMARK    5  A    between atoms: C_11  and  C_12
REMARK    6  A    between atoms: C_12  and  O_13
REMARK    7  A    between atoms: C_12  and  C_14
REMARK    8  A    between atoms: C_14  and  N_15
REMARK                            x       y       z     vdW  Elec       q    Type
REMARK                         _______ _______ _______ _____ _____    ______ ____
ROOT
ATOM      1  C   UNL     1       8.100   7.673  17.765  0.00  0.00    +0.000 C 
ENDROOT
BRANCH   1   2
ATOM      2  O   UNL     1       8.253   7.027  19.041  0.00  0.00    +0.000 OA
ATOM      3  H   UNL     1       8.643   7.673  19.656  0.00  0.00    +0.000 HD
ENDBRANCH   1   2
BRANCH   1   4
ATOM      4  C   UNL     1       8.141   9.198  18.000  0.00  0.00    +0.000 C 
BRANCH   4   5
ATOM      5  N   UNL     1       8.948   9.592  19.170  0.00  0.00    +0.000 N 
ATOM      6  H   UNL     1       9.635   8.846  19.353  0.00  0.00    +0.000 HD
BRANCH   5  12
ATOM      7  C   UNL     1       9.748  11.708  20.077  0.00  0.00    +0.000 A 
ATOM      8  C   UNL     1      10.496  12.879  19.912  0.00  0.00    +0.000 A 
ATOM      9  C   UNL     1      11.170  13.102  18.719  0.00  0.00    +0.000 A 
ATOM     10  C   UNL     1      11.062  12.147  17.728  0.00  0.00    +0.000 A 
ATOM     11  N   UNL     1      10.323  11.015  17.848  0.00  0.00    +0.000 NA
ATOM     12  C   UNL     1       9.680  10.793  19.013  0.00  0.00    +0.000 A 
BRANCH   7  14
ATOM     13  O   UNL     1       8.338  12.447  21.837  0.00  0.00    +0.000 OA
ATOM     14  C   UNL     1       9.001  11.545  21.348  0.00  0.00    +0.000 C 
BRANCH  14  15
ATOM     15  O   UNL     1       9.043  10.303  21.877  0.00  0.00    +0.000 OA
ATOM     16  H   UNL     1       8.654  10.274  22.785  0.00  0.00    +0.000 HD
ENDBRANCH  14  15
ENDBRANCH   7  14
ENDBRANCH   5  12
ENDBRANCH   4   5
ENDBRANCH   1   4
BRANCH   1  17
ATOM     17  C   UNL     1       6.749   7.319  17.077  0.00  0.00    +0.000 C 
BRANCH  17  18
ATOM     18  N   UNL     1       5.954   6.239  17.693  0.00  0.00    +0.000 NA
ATOM     19  C   UNL     1       6.322   4.895  17.191  0.00  0.00    +0.000 C 
ATOM     20  C   UNL     1       5.245   4.116  16.416  0.00  0.00    +0.000 C 
ATOM     21  C   UNL     1       3.956   4.133  17.186  0.00  0.00    +0.000 A 
ATOM     22  C   UNL     1       3.118   3.020  17.283  0.00  0.00    +0.000 A 
ATOM     23  C   UNL     1       1.935   3.109  18.017  0.00  0.00    +0.000 A 
ATOM     24  C   UNL     1       1.585   4.309  18.637  0.00  0.00    +0.000 A 
ATOM     25  C   UNL     1       2.412   5.431  18.522  0.00  0.00    +0.000 A 
ATOM     26  C   UNL     1       3.607   5.344  17.803  0.00  0.00    +0.000 A 
ATOM     27  C   UNL     1       4.508   6.537  17.571  0.00  0.00    +0.000 C 
ENDBRANCH  17  18
ENDBRANCH   1  17
TORSDOF 8
ENDMDL
MODEL 6
REMARK VINA RESULT:      -6.9      1.611      2.219
REMARK  Name = 
REMARK  8 active torsions:
REMARK  status: ('A' for Active; 'I' for Inactive)
REMARK    1  A    between atoms: C_2  and  O_3
REMARK    2  A    between atoms: C_2  and  C_4
REMARK    3  A    between atoms: C_9  and  N_10
REMARK    4  A    between atoms: N_10  and  C_11
REMARK    5  A    between atoms: C_11  and  C_12
REMARK    6  A    between atoms: C_12  and  O_13
REMARK    7  A    between atoms: C_12  and  C_14
REMARK    8  A    between atoms: C_14  and  N_15
REMARK                            x       y       z     vdW  Elec       q    Type
REMARK                         _______ _______ _______ _____ _____    ______ ____
ROOT
ATOM      1  C   UNL     1       1.880   3.693  20.430  0.00  0.00    +0.000 C 
ENDROOT
BRANCH   1   2
ATOM      2  O   UNL     1       1.006   3.023  21.356  0.00  0.00    +0.000 OA
ATOM      3  H   UNL     1       1.494   2.271  21.734  0.00  0.00    +0.000 HD
ENDBRANCH   1   2
BRANCH   1   4
ATOM      4  C   UNL     1       1.286   5.089  20.146  0.00  0.00    +0.000 C 
BRANCH   4   5
ATOM      5  N   UNL     1       2.239   6.191  20.373  0.00  0.00    +0.000 N 
ATOM      6  H   UNL     1       2.882   6.232  19.568  0.00  0.00    +0.000 HD
BRANCH   5  12
ATOM      7  C   UNL     1       1.740   8.378  19.419  0.00  0.00    +0.000 A 
ATOM      8  C   UNL     1       1.132   9.632  19.544  0.00  0.00    +0.000 A 
ATOM      9  C   UNL     1       0.438   9.948  20.704  0.00  0.00    +0.000 A 
ATOM     10  C   UNL     1       0.387   8.998  21.704  0.00  0.00    +0.000 A 
ATOM     11  N   UNL     1       0.989   7.784  21.625  0.00  0.00    +0.000 NA
ATOM     12  C   UNL     1       1.650   7.473  20.491  0.00  0.00    +0.000 A 
BRANCH   7  14
ATOM     13  O   UNL     1       3.289   7.171  18.087  0.00  0.00    +0.000 OA
ATOM     14  C   UNL     1       2.516   8.112  18.183  0.00  0.00    +0.000 C 
BRANCH  14  15
ATOM     15  O   UNL     1       2.240   8.936  17.150  0.00  0.00    +0.000 OA
ATOM     16  H   UNL     1       2.831   8.770  16.376  0.00  0.00    +0.000 HD
ENDBRANCH  14  15
ENDBRANCH   7  14
ENDBRANCH   5  12
ENDBRANCH   4   5
ENDBRANCH   1   4
BRANCH   1  17
ATOM     17  C   UNL     1       2.010   2.930  19.079  0.00  0.00    +0.000 C 
BRANCH  17  18
ATOM     18  N   UNL     1       3.353   2.883  18.470  0.00  0.00    +0.000 NA
ATOM     19  C   UNL     1       4.434   3.178  19.438  0.00  0.00    +0.000 C 
ATOM     20  C   UNL     1       5.274   4.443  19.187  0.00  0.00    +0.000 C 
ATOM     21  C   UNL     1       5.729   4.473  17.757  0.00  0.00    +0.000 A 
ATOM     22  C   UNL     1       7.007   4.889  17.378  0.00  0.00    +0.000 A 
ATOM     23  C   UNL     1       7.361   4.890  16.029  0.00  0.00    +0.000 A 
ATOM     24  C   UNL     1       6.436   4.492  15.062  0.00  0.00    +0.000 A 
ATOM     25  C   UNL     1       5.149   4.096  15.438  0.00  0.00    +0.000 A 
ATOM     26  C   UNL     1       4.793   4.076  16.790  0.00  0.00    +0.000 A 
ATOM     27  C   UNL     1       3.396   3.737  17.260  0.00  0.00    +0.000 C 
ENDBRANCH  17  18
ENDBRANCH   1  17
TORSDOF 8
ENDMDL
MODEL 7
REMARK VINA RESULT:      -6.8      1.776      2.635
REMARK  Name = 
REMARK  8 active torsions:
REMARK  status: ('A' for Active; 'I' for Inactive)
REMARK    1  A    between atoms: C_2  and  O_3
REMARK    2  A    between atoms: C_2  and  C_4
REMARK    3  A    between atoms: C_9  and  N_10
REMARK    4  A    between atoms: N_10  and  C_11
REMARK    5  A    between atoms: C_11  and  C_12
REMARK    6  A    between atoms: C_12  and  O_13
REMARK    7  A    between atoms: C_12  and  C_14
REMARK    8  A    between atoms: C_14  and  N_15
REMARK                            x       y       z     vdW  Elec       q    Type
REMARK                         _______ _______ _______ _____ _____    ______ ____
ROOT
ATOM      1  C   UNL     1       1.936   3.749  21.307  0.00  0.00    +0.000 C 
ENDROOT
BRANCH   1   2
ATOM      2  O   UNL     1       0.826   2.837  21.384  0.00  0.00    +0.000 OA
ATOM      3  H   UNL     1       0.424   2.784  20.498  0.00  0.00    +0.000 HD
ENDBRANCH   1   2
BRANCH   1   4
ATOM      4  C   UNL     1       1.439   5.040  20.622  0.00  0.00    +0.000 C 
BRANCH   4   5
ATOM      5  N   UNL     1       2.392   6.161  20.717  0.00  0.00    +0.000 N 
ATOM      6  H   UNL     1       3.147   6.001  20.034  0.00  0.00    +0.000 HD
BRANCH   5  12
ATOM      7  C   UNL     1       1.986   7.974  19.139  0.00  0.00    +0.000 A 
ATOM      8  C   UNL     1       1.418   9.224  18.867  0.00  0.00    +0.000 A 
ATOM      9  C   UNL     1       0.712   9.890  19.859  0.00  0.00    +0.000 A 
ATOM     10  C   UNL     1       0.608   9.285  21.094  0.00  0.00    +0.000 A 
ATOM     11  N   UNL     1       1.170   8.088  21.399  0.00  0.00    +0.000 NA
ATOM     12  C   UNL     1       1.844   7.435  20.429  0.00  0.00    +0.000 A 
BRANCH   7  14
ATOM     13  O   UNL     1       3.830   7.800  17.657  0.00  0.00    +0.000 OA
ATOM     14  C   UNL     1       2.778   7.331  18.063  0.00  0.00    +0.000 C 
BRANCH  14  15
ATOM     15  O   UNL     1       2.292   6.148  17.628  0.00  0.00    +0.000 OA
ATOM     16  H   UNL     1       3.010   5.489  17.472  0.00  0.00    +0.000 HD
ENDBRANCH  14  15
ENDBRANCH   7  14
ENDBRANCH   5  12
ENDBRANCH   4   5
ENDBRANCH   1   4
BRANCH   1  17
ATOM     17  C   UNL     1       3.120   3.176  20.475  0.00  0.00    +0.000 C 
BRANCH  17  18
ATOM     18  N   UNL     1       3.483   3.907  19.246  0.00  0.00    +0.000 NA
ATOM     19  C   UNL     1       2.991   3.245  18.016  0.00  0.00    +0.000 C 
ATOM     20  C   UNL     1       4.051   2.726  17.027  0.00  0.00    +0.000 C 
ATOM     21  C   UNL     1       5.064   3.801  16.761  0.00  0.00    +0.000 A 
ATOM     22  C   UNL     1       5.597   4.042  15.493  0.00  0.00    +0.000 A 
ATOM     23  C   UNL     1       6.535   5.059  15.320  0.00  0.00    +0.000 A 
ATOM     24  C   UNL     1       6.950   5.822  16.413  0.00  0.00    +0.000 A 
ATOM     25  C   UNL     1       6.432   5.569  17.687  0.00  0.00    +0.000 A 
ATOM     26  C   UNL     1       5.479   4.562  17.865  0.00  0.00    +0.000 A 
ATOM     27  C   UNL     1       4.939   4.181  19.225  0.00  0.00    +0.000 C 
ENDBRANCH  17  18
ENDBRANCH   1  17
TORSDOF 8
ENDMDL
MODEL 8
REMARK VINA RESULT:      -6.8      2.905      4.779
REMARK  Name = 
REMARK  8 active torsions:
REMARK  status: ('A' for Active; 'I' for Inactive)
REMARK    1  A    between atoms: C_2  and  O_3
REMARK    2  A    between atoms: C_2  and  C_4
REMARK    3  A    between atoms: C_9  and  N_10
REMARK    4  A    between atoms: N_10  and  C_11
REMARK    5  A    between atoms: C_11  and  C_12
REMARK    6  A    between atoms: C_12  and  O_13
REMARK    7  A    between atoms: C_12  and  C_14
REMARK    8  A    between atoms: C_14  and  N_15
REMARK                            x       y       z     vdW  Elec       q    Type
REMARK                         _______ _______ _______ _____ _____    ______ ____
ROOT
ATOM      1  C   UNL     1       6.654   5.248  18.729  0.00  0.00    +0.000 C 
ENDROOT
BRANCH   1   2
ATOM      2  O   UNL     1       6.896   4.012  18.035  0.00  0.00    +0.000 OA
ATOM      3  H   UNL     1       6.164   3.406  18.245  0.00  0.00    +0.000 HD
ENDBRANCH   1   2
BRANCH   1   4
ATOM      4  C   UNL     1       5.231   5.186  19.322  0.00  0.00    +0.000 C 
BRANCH   4   5
ATOM      5  N   UNL     1       4.890   3.872  19.899  0.00  0.00    +0.000 N 
ATOM      6  H   UNL     1       4.717   3.998  20.907  0.00  0.00    +0.000 HD
BRANCH   5  12
ATOM      7  C   UNL     1       2.511   3.364  20.049  0.00  0.00    +0.000 A 
ATOM      8  C   UNL     1       1.370   2.779  19.488  0.00  0.00    +0.000 A 
ATOM      9  C   UNL     1       1.459   2.139  18.260  0.00  0.00    +0.000 A 
ATOM     10  C   UNL     1       2.691   2.099  17.640  0.00  0.00    +0.000 A 
ATOM     11  N   UNL     1       3.821   2.632  18.171  0.00  0.00    +0.000 NA
ATOM     12  C   UNL     1       3.730   3.266  19.358  0.00  0.00    +0.000 A 
BRANCH   7  14
ATOM     13  O   UNL     1       2.330   3.324  22.415  0.00  0.00    +0.000 OA
ATOM     14  C   UNL     1       2.375   3.985  21.389  0.00  0.00    +0.000 C 
BRANCH  14  15
ATOM     15  O   UNL     1       2.389   5.336  21.394  0.00  0.00    +0.000 OA
ATOM     16  H   UNL     1       3.249   5.698  21.070  0.00  0.00    +0.000 HD
ENDBRANCH  14  15
ENDBRANCH   7  14
ENDBRANCH   5  12
ENDBRANCH   4   5
ENDBRANCH   1   4
BRANCH   1  17
ATOM     17  C   UNL     1       6.740   6.485  17.787  0.00  0.00    +0.000 C 
BRANCH  17  18
ATOM     18  N   UNL     1       6.342   6.278  16.381  0.00  0.00    +0.000 NA
ATOM     19  C   UNL     1       4.971   5.736  16.246  0.00  0.00    +0.000 C 
ATOM     20  C   UNL     1       4.829   4.335  15.624  0.00  0.00    +0.000 C 
ATOM     21  C   UNL     1       5.628   4.261  14.356  0.00  0.00    +0.000 A 
ATOM     22  C   UNL     1       5.170   3.607  13.210  0.00  0.00    +0.000 A 
ATOM     23  C   UNL     1       5.967   3.579  12.066  0.00  0.00    +0.000 A 
ATOM     24  C   UNL     1       7.222   4.189  12.073  0.00  0.00    +0.000 A 
ATOM     25  C   UNL     1       7.691   4.827  13.225  0.00  0.00    +0.000 A 
ATOM     26  C   UNL     1       6.890   4.873  14.370  0.00  0.00    +0.000 A 
ATOM     27  C   UNL     1       7.366   5.474  15.674  0.00  0.00    +0.000 C 
ENDBRANCH  17  18
ENDBRANCH   1  17
TORSDOF 8
ENDMDL
MODEL 9
REMARK VINA RESULT:      -6.8      4.532      7.581
REMARK  Name = 
REMARK  8 active torsions:
REMARK  status: ('A' for Active; 'I' for Inactive)
REMARK    1  A    between atoms: C_2  and  O_3
REMARK    2  A    between atoms: C_2  and  C_4
REMARK    3  A    between atoms: C_9  and  N_10
REMARK    4  A    between atoms: N_10  and  C_11
REMARK    5  A    between atoms: C_11  and  C_12
REMARK    6  A    between atoms: C_12  and  O_13
REMARK    7  A    between atoms: C_12  and  C_14
REMARK    8  A    between atoms: C_14  and  N_15
REMARK                            x       y       z     vdW  Elec       q    Type
REMARK                         _______ _______ _______ _____ _____    ______ ____
ROOT
ATOM      1  C   UNL     1       7.482   5.961  17.734  0.00  0.00    +0.000 C 
ENDROOT
BRANCH   1   2
ATOM      2  O   UNL     1       7.281   7.302  17.257  0.00  0.00    +0.000 OA
ATOM      3  H   UNL     1       7.579   7.913  17.954  0.00  0.00    +0.000 HD
ENDBRANCH   1   2
BRANCH   1   4
ATOM      4  C   UNL     1       7.196   4.996  16.563  0.00  0.00    +0.000 C 
BRANCH   4   5
ATOM      5  N   UNL     1       7.191   5.656  15.244  0.00  0.00    +0.000 N 
ATOM      6  H   UNL     1       8.154   5.950  15.028  0.00  0.00    +0.000 HD
BRANCH   5  12
ATOM      7  C   UNL     1       7.398   4.946  12.922  0.00  0.00    +0.000 A 
ATOM      8  C   UNL     1       6.976   4.114  11.878  0.00  0.00    +0.000 A 
ATOM      9  C   UNL     1       5.964   3.191  12.101  0.00  0.00    +0.000 A 
ATOM     10  C   UNL     1       5.401   3.141  13.360  0.00  0.00    +0.000 A 
ATOM     11  N   UNL     1       5.768   3.952  14.384  0.00  0.00    +0.000 NA
ATOM     12  C   UNL     1       6.762   4.839  14.170  0.00  0.00    +0.000 A 
BRANCH   7  14
ATOM     13  O   UNL     1       9.467   6.051  13.274  0.00  0.00    +0.000 OA
ATOM     14  C   UNL     1       8.443   5.953  12.617  0.00  0.00    +0.000 C 
BRANCH  14  15
ATOM     15  O   UNL     1       8.213   6.694  11.511  0.00  0.00    +0.000 OA
ATOM     16  H   UNL     1       8.177   7.660  11.714  0.00  0.00    +0.000 HD
ENDBRANCH  14  15
ENDBRANCH   7  14
ENDBRANCH   5  12
ENDBRANCH   4   5
ENDBRANCH   1   4
BRANCH   1  17
ATOM     17  C   UNL     1       6.529   5.600  18.911  0.00  0.00    +0.000 C 
BRANCH  17  18
ATOM     18  N   UNL     1       5.178   5.128  18.552  0.00  0.00    +0.000 NA
ATOM     19  C   UNL     1       4.129   6.143  18.801  0.00  0.00    +0.000 C 
ATOM     20  C   UNL     1       3.062   5.804  19.857  0.00  0.00    +0.000 C 
ATOM     21  C   UNL     1       2.515   4.430  19.601  0.00  0.00    +0.000 A 
ATOM     22  C   UNL     1       1.160   4.118  19.737  0.00  0.00    +0.000 A 
ATOM     23  C   UNL     1       0.722   2.819  19.481  0.00  0.00    +0.000 A 
ATOM     24  C   UNL     1       1.637   1.833  19.107  0.00  0.00    +0.000 A 
ATOM     25  C   UNL     1       2.996   2.139  18.990  0.00  0.00    +0.000 A 
ATOM     26  C   UNL     1       3.440   3.443  19.228  0.00  0.00    +0.000 A 
ATOM     27  C   UNL     1       4.903   3.825  19.200  0.00  0.00    +0.000 C 
ENDBRANCH  17  18
ENDBRANCH   1  17
TORSDOF 8
ENDMDL
