MODEL 1
REMARK VINA RESULT:      -7.3      0.000      0.000
REMARK  Name = 
REMARK  11 active torsions:
REMARK  status: ('A' for Active; 'I' for Inactive)
REMARK    1  A    between atoms: C_1  and  O_2
REMARK    2  A    between atoms: O_2  and  C_3
REMARK    3  A    between atoms: C_5  and  N_6
REMARK    4  A    between atoms: N_6  and  C_7
REMARK    5  A    between atoms: C_7  and  C_8
REMARK    6  A    between atoms: C_8  and  C_9
REMARK    7  A    between atoms: C_9  and  C_10
REMARK    8  A    between atoms: C_10  and  C_11
REMARK    9  A    between atoms: C_11  and  N_12
REMARK   10  A    between atoms: N_12  and  C_13
REMARK   11  A    between atoms: C_13  and  C_14
REMARK                            x       y       z     vdW  Elec       q    Type
REMARK                         _______ _______ _______ _____ _____    ______ ____
ROOT
ATOM      1  N   UNL     1       3.996   3.119  18.355  0.00  0.00    +0.000 N 
ATOM      2  H   UNL     1       4.603   2.755  19.098  0.00  0.00    +0.000 HD
ENDROOT
BRANCH   1   5
ATOM      3  C   UNL     1       5.381   4.338  15.098  0.00  0.00    +0.000 A 
ATOM      4  C   UNL     1       4.622   3.629  16.025  0.00  0.00    +0.000 A 
ATOM      5  C   UNL     1       4.849   3.759  17.406  0.00  0.00    +0.000 A 
ATOM      6  C   UNL     1       5.846   4.637  17.879  0.00  0.00    +0.000 A 
ATOM      7  N   UNL     1       6.077   4.752  19.210  0.00  0.00    +0.000 NA
ATOM      8  C   UNL     1       7.040   5.603  19.623  0.00  0.00    +0.000 A 
ATOM      9  C   UNL     1       7.810   6.368  18.770  0.00  0.00    +0.000 A 
ATOM     10  C   UNL     1       7.586   6.246  17.405  0.00  0.00    +0.000 A 
ATOM     11  C   UNL     1       6.601   5.366  16.934  0.00  0.00    +0.000 A 
ATOM     12  C   UNL     1       6.363   5.211  15.558  0.00  0.00    +0.000 A 
BRANCH   3  14
ATOM     13  C   UNL     1       6.311   3.660  13.020  0.00  0.00    +0.000 C 
ATOM     14  O   UNL     1       5.244   4.271  13.739  0.00  0.00    +0.000 OA
ENDBRANCH   3  14
ENDBRANCH   1   5
BRANCH   1  15
ATOM     15  C   UNL     1       3.050   2.145  17.828  0.00  0.00    +0.000 C 
BRANCH  15  16
ATOM     16  C   UNL     1       1.667   2.362  18.441  0.00  0.00    +0.000 C 
BRANCH  16  17
ATOM     17  C   UNL     1       1.746   2.771  19.916  0.00  0.00    +0.000 C 
BRANCH  17  18
ATOM     18  C   UNL     1       1.234   4.191  20.165  0.00  0.00    +0.000 C 
BRANCH  18  19
ATOM     19  C   UNL     1       2.184   4.982  21.062  0.00  0.00    +0.000 C 
BRANCH  19  20
ATOM     20  N   UNL     1       3.107   5.732  20.216  0.00  0.00    +0.000 NA
ATOM     21  H   UNL     1       3.925   5.163  19.998  0.00  0.00    +0.000 HD
BRANCH  20  22
ATOM     22  C   UNL     1       2.471   6.139  18.966  0.00  0.00    +0.000 C 
BRANCH  22  23
ATOM     23  C   UNL     1       2.023   7.577  19.033  0.00  0.00    +0.000 A 
ATOM     24  C   UNL     1       1.491   8.109  20.218  0.00  0.00    +0.000 A 
ATOM     25  C   UNL     1       1.084   9.442  20.274  0.00  0.00    +0.000 A 
ATOM     26  C   UNL     1       1.203  10.261  19.152  0.00  0.00    +0.000 A 
ATOM     27  C   UNL     1       1.730   9.745  17.969  0.00  0.00    +0.000 A 
ATOM     28  C   UNL     1       2.139   8.413  17.909  0.00  0.00    +0.000 A 
ENDBRANCH  22  23
ENDBRANCH  20  22
ENDBRANCH  19  20
ENDBRANCH  18  19
ENDBRANCH  17  18
ENDBRANCH  16  17
ENDBRANCH  15  16
ENDBRANCH   1  15
TORSDOF 10
ENDMDL
MODEL 2
REMARK VINA RESULT:      -6.9      1.744      3.149
REMARK  Name = 
REMARK  11 active torsions:
REMARK  status: ('A' for Active; 'I' for Inactive)
REMARK    1  A    between atoms: C_1  and  O_2
REMARK    2  A    between atoms: O_2  and  C_3
REMARK    3  A    between atoms: C_5  and  N_6
REMARK    4  A    between atoms: N_6  and  C_7
REMARK    5  A    between atoms: C_7  and  C_8
REMARK    6  A    between atoms: C_8  and  C_9
REMARK    7  A    between atoms: C_9  and  C_10
REMARK    8  A    between atoms: C_10  and  C_11
REMARK    9  A    between atoms: C_11  and  N_12
REMARK   10  A    between atoms: N_12  and  C_13
REMARK   11  A    between atoms: C_13  and  C_14
REMARK                            x       y       z     vdW  Elec       q    Type
REMARK                         _______ _______ _______ _____ _____    ______ ____
ROOT
ATOM      1  N   UNL     1       3.414   3.485  17.578  0.00  0.00    +0.000 N 
ATOM      2  H   UNL     1       2.700   4.117  17.957  0.00  0.00    +0.000 HD
ENDROOT
BRANCH   1   5
ATOM      3  C   UNL     1       6.466   5.195  18.907  0.00  0.00    +0.000 A 
ATOM      4  C   UNL     1       5.208   4.604  18.847  0.00  0.00    +0.000 A 
ATOM      5  C   UNL     1       4.652   4.192  17.623  0.00  0.00    +0.000 A 
ATOM      6  C   UNL     1       5.381   4.355  16.427  0.00  0.00    +0.000 A 
ATOM      7  N   UNL     1       4.840   3.974  15.243  0.00  0.00    +0.000 NA
ATOM      8  C   UNL     1       5.570   4.146  14.120  0.00  0.00    +0.000 A 
ATOM      9  C   UNL     1       6.838   4.691  14.100  0.00  0.00    +0.000 A 
ATOM     10  C   UNL     1       7.392   5.093  15.308  0.00  0.00    +0.000 A 
ATOM     11  C   UNL     1       6.664   4.941  16.497  0.00  0.00    +0.000 A 
ATOM     12  C   UNL     1       7.194   5.354  17.731  0.00  0.00    +0.000 A 
BRANCH   3  14
ATOM     13  C   UNL     1       8.444   5.247  20.222  0.00  0.00    +0.000 C 
ATOM     14  O   UNL     1       7.086   5.636  20.045  0.00  0.00    +0.000 OA
ENDBRANCH   3  14
ENDBRANCH   1   5
BRANCH   1  15
ATOM     15  C   UNL     1       3.402   2.153  18.166  0.00  0.00    +0.000 C 
BRANCH  15  16
ATOM     16  C   UNL     1       2.299   2.045  19.218  0.00  0.00    +0.000 C 
BRANCH  16  17
ATOM     17  C   UNL     1       1.195   3.087  19.007  0.00  0.00    +0.000 C 
BRANCH  17  18
ATOM     18  C   UNL     1       0.891   3.892  20.273  0.00  0.00    +0.000 C 
BRANCH  18  19
ATOM     19  C   UNL     1       2.141   4.092  21.126  0.00  0.00    +0.000 C 
BRANCH  19  20
ATOM     20  N   UNL     1       2.602   5.466  20.962  0.00  0.00    +0.000 NA
ATOM     21  H   UNL     1       3.151   5.553  20.107  0.00  0.00    +0.000 HD
BRANCH  20  22
ATOM     22  C   UNL     1       1.480   6.399  20.897  0.00  0.00    +0.000 C 
BRANCH  22  23
ATOM     23  C   UNL     1       1.717   7.455  19.847  0.00  0.00    +0.000 A 
ATOM     24  C   UNL     1       2.414   7.151  18.667  0.00  0.00    +0.000 A 
ATOM     25  C   UNL     1       2.626   8.132  17.698  0.00  0.00    +0.000 A 
ATOM     26  C   UNL     1       2.145   9.427  17.893  0.00  0.00    +0.000 A 
ATOM     27  C   UNL     1       1.452   9.742  19.060  0.00  0.00    +0.000 A 
ATOM     28  C   UNL     1       1.237   8.764  20.031  0.00  0.00    +0.000 A 
ENDBRANCH  22  23
ENDBRANCH  20  22
ENDBRANCH  19  20
ENDBRANCH  18  19
ENDBRANCH  17  18
ENDBRANCH  16  17
ENDBRANCH  15  16
ENDBRANCH   1  15
TORSDOF 10
ENDMDL
MODEL 3
REMARK VINA RESULT:      -6.8      3.648      6.750
REMARK  Name = 
REMARK  11 active torsions:
REMARK  status: ('A' for Active; 'I' for Inactive)
REMARK    1  A    between atoms: C_1  and  O_2
REMARK    2  A    between atoms: O_2  and  C_3
REMARK    3  A    between atoms: C_5  and  N_6
REMARK    4  A    between atoms: N_6  and  C_7
REMARK    5  A    between atoms: C_7  and  C_8
REMARK    6  A    between atoms: C_8  and  C_9
REMARK    7  A    between atoms: C_9  and  C_10
REMARK    8  A    between atoms: C_10  and  C_11
REMARK    9  A    between atoms: C_11  and  N_12
REMARK   10  A    between atoms: N_12  and  C_13
REMARK   11  A    between atoms: C_13  and  C_14
REMARK                            x       y       z     vdW  Elec       q    Type
REMARK                         _______ _______ _______ _____ _____    ______ ____
ROOT
ATOM      1  N   UNL     1       4.077   4.342  16.629  0.00  0.00    +0.000 N 
ATOM      2  H   UNL     1       3.524   3.650  16.111  0.00  0.00    +0.000 HD
ENDROOT
BRANCH   1   5
ATOM      3  C   UNL     1       2.833   3.645  20.090  0.00  0.00    +0.000 A 
ATOM      4  C   UNL     1       3.357   3.455  18.815  0.00  0.00    +0.000 A 
ATOM      5  C   UNL     1       3.437   4.514  17.893  0.00  0.00    +0.000 A 
ATOM      6  C   UNL     1       3.003   5.804  18.261  0.00  0.00    +0.000 A 
ATOM      7  N   UNL     1       3.065   6.823  17.368  0.00  0.00    +0.000 NA
ATOM      8  C   UNL     1       2.640   8.044  17.758  0.00  0.00    +0.000 A 
ATOM      9  C   UNL     1       2.142   8.322  19.016  0.00  0.00    +0.000 A 
ATOM     10  C   UNL     1       2.066   7.280  19.930  0.00  0.00    +0.000 A 
ATOM     11  C   UNL     1       2.489   5.994  19.562  0.00  0.00    +0.000 A 
ATOM     12  C   UNL     1       2.408   4.918  20.462  0.00  0.00    +0.000 A 
BRANCH   3  14
ATOM     13  C   UNL     1       1.460   2.631  21.741  0.00  0.00    +0.000 C 
ATOM     14  O   UNL     1       2.704   2.679  21.050  0.00  0.00    +0.000 OA
ENDBRANCH   3  14
ENDBRANCH   1   5
BRANCH   1  15
ATOM     15  C   UNL     1       5.506   4.065  16.655  0.00  0.00    +0.000 C 
BRANCH  15  16
ATOM     16  C   UNL     1       6.274   5.275  17.186  0.00  0.00    +0.000 C 
BRANCH  16  17
ATOM     17  C   UNL     1       7.410   4.869  18.131  0.00  0.00    +0.000 C 
BRANCH  17  18
ATOM     18  C   UNL     1       7.978   6.053  18.917  0.00  0.00    +0.000 C 
BRANCH  18  19
ATOM     19  C   UNL     1       7.843   7.360  18.140  0.00  0.00    +0.000 C 
BRANCH  19  20
ATOM     20  N   UNL     1       8.657   8.378  18.795  0.00  0.00    +0.000 NA
ATOM     21  H   UNL     1       9.641   8.109  18.774  0.00  0.00    +0.000 HD
BRANCH  20  22
ATOM     22  C   UNL     1       8.510   9.677  18.143  0.00  0.00    +0.000 C 
BRANCH  22  23
ATOM     23  C   UNL     1       9.474  10.682  18.722  0.00  0.00    +0.000 A 
ATOM     24  C   UNL     1       9.622  10.817  20.111  0.00  0.00    +0.000 A 
ATOM     25  C   UNL     1      10.519  11.745  20.639  0.00  0.00    +0.000 A 
ATOM     26  C   UNL     1      11.279  12.550  19.790  0.00  0.00    +0.000 A 
ATOM     27  C   UNL     1      11.140  12.427  18.409  0.00  0.00    +0.000 A 
ATOM     28  C   UNL     1      10.246  11.498  17.877  0.00  0.00    +0.000 A 
ENDBRANCH  22  23
ENDBRANCH  20  22
ENDBRANCH  19  20
ENDBRANCH  18  19
ENDBRANCH  17  18
ENDBRANCH  16  17
ENDBRANCH  15  16
ENDBRANCH   1  15
TORSDOF 10
ENDMDL
MODEL 4
REMARK VINA RESULT:      -6.8      0.813      1.505
REMARK  Name = 
REMARK  11 active torsions:
REMARK  status: ('A' for Active; 'I' for Inactive)
REMARK    1  A    between atoms: C_1  and  O_2
REMARK    2  A    between atoms: O_2  and  C_3
REMARK    3  A    between atoms: C_5  and  N_6
REMARK    4  A    between atoms: N_6  and  C_7
REMARK    5  A    between atoms: C_7  and  C_8
REMARK    6  A    between atoms: C_8  and  C_9
REMARK    7  A    between atoms: C_9  and  C_10
REMARK    8  A    between atoms: C_10  and  C_11
REMARK    9  A    between atoms: C_11  and  N_12
REMARK   10  A    between atoms: N_12  and  C_13
REMARK   11  A    between atoms: C_13  and  C_14
REMARK                            x       y       z     vdW  Elec       q    Type
REMARK                         _______ _______ _______ _____ _____    ______ ____
ROOT
ATOM      1  N   UNL     1       4.644   2.958  18.574  0.00  0.00    +0.000 N 
ATOM      2  H   UNL     1       5.341   2.826  19.314  0.00  0.00    +0.000 HD
ENDROOT
BRANCH   1   5
ATOM      3  C   UNL     1       5.442   4.384  15.206  0.00  0.00    +0.000 A 
ATOM      4  C   UNL     1       4.909   3.567  16.199  0.00  0.00    +0.000 A 
ATOM      5  C   UNL     1       5.276   3.721  17.547  0.00  0.00    +0.000 A 
ATOM      6  C   UNL     1       6.185   4.733  17.920  0.00  0.00    +0.000 A 
ATOM      7  N   UNL     1       6.552   4.873  19.217  0.00  0.00    +0.000 NA
ATOM      8  C   UNL     1       7.424   5.855  19.534  0.00  0.00    +0.000 A 
ATOM      9  C   UNL     1       7.969   6.729  18.615  0.00  0.00    +0.000 A 
ATOM     10  C   UNL     1       7.604   6.583  17.283  0.00  0.00    +0.000 A 
ATOM     11  C   UNL     1       6.709   5.570  16.910  0.00  0.00    +0.000 A 
ATOM     12  C   UNL     1       6.335   5.389  15.568  0.00  0.00    +0.000 A 
BRANCH   3  14
ATOM     13  C   UNL     1       6.182   3.787  13.029  0.00  0.00    +0.000 C 
ATOM     14  O   UNL     1       5.156   4.305  13.871  0.00  0.00    +0.000 OA
ENDBRANCH   3  14
ENDBRANCH   1   5
BRANCH   1  15
ATOM     15  C   UNL     1       3.978   1.731  18.158  0.00  0.00    +0.000 C 
BRANCH  15  16
ATOM     16  C   UNL     1       2.680   1.539  18.941  0.00  0.00    +0.000 C 
BRANCH  16  17
ATOM     17  C   UNL     1       1.618   2.577  18.563  0.00  0.00    +0.000 C 
BRANCH  17  18
ATOM     18  C   UNL     1       0.639   2.865  19.704  0.00  0.00    +0.000 C 
BRANCH  18  19
ATOM     19  C   UNL     1       0.677   4.334  20.120  0.00  0.00    +0.000 C 
BRANCH  19  20
ATOM     20  N   UNL     1       1.948   4.596  20.787  0.00  0.00    +0.000 NA
ATOM     21  H   UNL     1       2.725   4.332  20.181  0.00  0.00    +0.000 HD
BRANCH  20  22
ATOM     22  C   UNL     1       2.084   6.009  21.135  0.00  0.00    +0.000 C 
BRANCH  22  23
ATOM     23  C   UNL     1       2.300   6.849  19.901  0.00  0.00    +0.000 A 
ATOM     24  C   UNL     1       3.173   6.425  18.888  0.00  0.00    +0.000 A 
ATOM     25  C   UNL     1       3.364   7.205  17.748  0.00  0.00    +0.000 A 
ATOM     26  C   UNL     1       2.685   8.415  17.602  0.00  0.00    +0.000 A 
ATOM     27  C   UNL     1       1.815   8.847  18.602  0.00  0.00    +0.000 A 
ATOM     28  C   UNL     1       1.621   8.070  19.743  0.00  0.00    +0.000 A 
ENDBRANCH  22  23
ENDBRANCH  20  22
ENDBRANCH  19  20
ENDBRANCH  18  19
ENDBRANCH  17  18
ENDBRANCH  16  17
ENDBRANCH  15  16
ENDBRANCH   1  15
TORSDOF 10
ENDMDL
MODEL 5
REMARK VINA RESULT:      -6.8      0.880      1.036
REMARK  Name = 
REMARK  11 active torsions:
REMARK  status: ('A' for Active; 'I' for Inactive)
REMARK    1  A    between atoms: C_1  and  O_2
REMARK    2  A    between atoms: O_2  and  C_3
REMARK    3  A    between atoms: C_5  and  N_6
REMARK    4  A    between atoms: N_6  and  C_7
REMARK    5  A    between atoms: C_7  and  C_8
REMARK    6  A    between atoms: C_8  and  C_9
REMARK    7  A    between atoms: C_9  and  C_10
REMARK    8  A    between atoms: C_10  and  C_11
REMARK    9  A    between atoms: C_11  and  N_12
REMARK   10  A    between atoms: N_12  and  C_13
REMARK   11  A    between atoms: C_13  and  C_14
REMARK                            x       y       z     vdW  Elec       q    Type
REMARK                         _______ _______ _______ _____ _____    ______ ____
ROOT
ATOM      1  N   UNL     1       3.425   3.448  17.366  0.00  0.00    +0.000 N 
ATOM      2  H   UNL     1       3.408   3.869  18.301  0.00  0.00    +0.000 HD
ENDROOT
BRANCH   1   5
ATOM      3  C   UNL     1       6.027   4.155  14.769  0.00  0.00    +0.000 A 
ATOM      4  C   UNL     1       4.875   3.673  15.383  0.00  0.00    +0.000 A 
ATOM      5  C   UNL     1       4.656   3.844  16.761  0.00  0.00    +0.000 A 
ATOM      6  C   UNL     1       5.602   4.535  17.546  0.00  0.00    +0.000 A 
ATOM      7  N   UNL     1       5.401   4.688  18.878  0.00  0.00    +0.000 NA
ATOM      8  C   UNL     1       6.330   5.356  19.595  0.00  0.00    +0.000 A 
ATOM      9  C   UNL     1       7.479   5.896  19.054  0.00  0.00    +0.000 A 
ATOM     10  C   UNL     1       7.696   5.733  17.693  0.00  0.00    +0.000 A 
ATOM     11  C   UNL     1       6.761   5.037  16.913  0.00  0.00    +0.000 A 
ATOM     12  C   UNL     1       6.962   4.844  15.536  0.00  0.00    +0.000 A 
BRANCH   3  14
ATOM     13  C   UNL     1       5.417   3.287  12.644  0.00  0.00    +0.000 C 
ATOM     14  O   UNL     1       6.334   4.030  13.441  0.00  0.00    +0.000 OA
ENDBRANCH   3  14
ENDBRANCH   1   5
BRANCH   1  15
ATOM     15  C   UNL     1       3.118   2.025  17.347  0.00  0.00    +0.000 C 
BRANCH  15  16
ATOM     16  C   UNL     1       3.256   1.432  18.748  0.00  0.00    +0.000 C 
BRANCH  16  17
ATOM     17  C   UNL     1       3.007   2.474  19.844  0.00  0.00    +0.000 C 
BRANCH  17  18
ATOM     18  C   UNL     1       1.535   2.563  20.253  0.00  0.00    +0.000 C 
BRANCH  18  19
ATOM     19  C   UNL     1       1.039   4.007  20.258  0.00  0.00    +0.000 C 
BRANCH  19  20
ATOM     20  N   UNL     1       1.986   4.827  19.510  0.00  0.00    +0.000 NA
ATOM     21  H   UNL     1       1.544   5.193  18.667  0.00  0.00    +0.000 HD
BRANCH  20  22
ATOM     22  C   UNL     1       2.468   5.949  20.312  0.00  0.00    +0.000 C 
BRANCH  22  23
ATOM     23  C   UNL     1       2.140   7.264  19.651  0.00  0.00    +0.000 A 
ATOM     24  C   UNL     1       1.374   8.232  20.318  0.00  0.00    +0.000 A 
ATOM     25  C   UNL     1       1.080   9.448  19.702  0.00  0.00    +0.000 A 
ATOM     26  C   UNL     1       1.546   9.715  18.415  0.00  0.00    +0.000 A 
ATOM     27  C   UNL     1       2.308   8.762  17.742  0.00  0.00    +0.000 A 
ATOM     28  C   UNL     1       2.606   7.545  18.354  0.00  0.00    +0.000 A 
ENDBRANCH  22  23
ENDBRANCH  20  22
ENDBRANCH  19  20
ENDBRANCH  18  19
ENDBRANCH  17  18
ENDBRANCH  16  17
ENDBRANCH  15  16
ENDBRANCH   1  15
TORSDOF 10
ENDMDL
MODEL 6
REMARK VINA RESULT:      -6.7      2.909      7.610
REMARK  Name = 
REMARK  11 active torsions:
REMARK  status: ('A' for Active; 'I' for Inactive)
REMARK    1  A    between atoms: C_1  and  O_2
REMARK    2  A    between atoms: O_2  and  C_3
REMARK    3  A    between atoms: C_5  and  N_6
REMARK    4  A    between atoms: N_6  and  C_7
REMARK    5  A    between atoms: C_7  and  C_8
REMARK    6  A    between atoms: C_8  and  C_9
REMARK    7  A    between atoms: C_9  and  C_10
REMARK    8  A    between atoms: C_10  and  C_11
REMARK    9  A    between atoms: C_11  and  N_12
REMARK   10  A    between atoms: N_12  and  C_13
REMARK   11  A    between atoms: C_13  and  C_14
REMARK                            x       y       z     vdW  Elec       q    Type
REMARK                         _______ _______ _______ _____ _____    ______ ____
ROOT
ATOM      1  N   UNL     1       2.141   8.409  19.312  0.00  0.00    +0.000 N 
ATOM      2  H   UNL     1       2.992   8.877  19.645  0.00  0.00    +0.000 HD
ENDROOT
BRANCH   1   5
ATOM      3  C   UNL     1      -0.679  10.726  18.482  0.00  0.00    +0.000 A 
ATOM      4  C   UNL     1       0.432   9.900  18.343  0.00  0.00    +0.000 A 
ATOM      5  C   UNL     1       1.074   9.344  19.464  0.00  0.00    +0.000 A 
ATOM      6  C   UNL     1       0.581   9.602  20.760  0.00  0.00    +0.000 A 
ATOM      7  N   UNL     1       1.208   9.080  21.842  0.00  0.00    +0.000 NA
ATOM      8  C   UNL     1       0.705   9.350  23.066  0.00  0.00    +0.000 A 
ATOM      9  C   UNL     1      -0.414  10.129  23.286  0.00  0.00    +0.000 A 
ATOM     10  C   UNL     1      -1.053  10.675  22.181  0.00  0.00    +0.000 A 
ATOM     11  C   UNL     1      -0.558  10.427  20.892  0.00  0.00    +0.000 A 
ATOM     12  C   UNL     1      -1.175  10.979  19.758  0.00  0.00    +0.000 A 
BRANCH   3  14
ATOM     13  C   UNL     1      -2.760  11.516  17.654  0.00  0.00    +0.000 C 
ATOM     14  O   UNL     1      -1.363  11.320  17.457  0.00  0.00    +0.000 OA
ENDBRANCH   3  14
ENDBRANCH   1   5
BRANCH   1  15
ATOM     15  C   UNL     1       2.279   7.783  18.004  0.00  0.00    +0.000 C 
BRANCH  15  16
ATOM     16  C   UNL     1       2.435   6.270  18.152  0.00  0.00    +0.000 C 
BRANCH  16  17
ATOM     17  C   UNL     1       3.900   5.855  18.322  0.00  0.00    +0.000 C 
BRANCH  17  18
ATOM     18  C   UNL     1       4.585   5.542  16.989  0.00  0.00    +0.000 C 
BRANCH  18  19
ATOM     19  C   UNL     1       4.350   4.096  16.561  0.00  0.00    +0.000 C 
BRANCH  19  20
ATOM     20  N   UNL     1       4.790   3.214  17.638  0.00  0.00    +0.000 NA
ATOM     21  H   UNL     1       4.910   3.745  18.500  0.00  0.00    +0.000 HD
BRANCH  20  22
ATOM     22  C   UNL     1       3.826   2.143  17.875  0.00  0.00    +0.000 C 
BRANCH  22  23
ATOM     23  C   UNL     1       2.912   2.486  19.025  0.00  0.00    +0.000 A 
ATOM     24  C   UNL     1       1.553   2.760  18.804  0.00  0.00    +0.000 A 
ATOM     25  C   UNL     1       0.713   3.071  19.873  0.00  0.00    +0.000 A 
ATOM     26  C   UNL     1       1.215   3.113  21.174  0.00  0.00    +0.000 A 
ATOM     27  C   UNL     1       2.563   2.844  21.406  0.00  0.00    +0.000 A 
ATOM     28  C   UNL     1       3.406   2.531  20.340  0.00  0.00    +0.000 A 
ENDBRANCH  22  23
ENDBRANCH  20  22
ENDBRANCH  19  20
ENDBRANCH  18  19
ENDBRANCH  17  18
ENDBRANCH  16  17
ENDBRANCH  15  16
ENDBRANCH   1  15
TORSDOF 10
ENDMDL
MODEL 7
REMARK VINA RESULT:      -6.7      0.932      1.343
REMARK  Name = 
REMARK  11 active torsions:
REMARK  status: ('A' for Active; 'I' for Inactive)
REMARK    1  A    between atoms: C_1  and  O_2
REMARK    2  A    between atoms: O_2  and  C_3
REMARK    3  A    between atoms: C_5  and  N_6
REMARK    4  A    between atoms: N_6  and  C_7
REMARK    5  A    between atoms: C_7  and  C_8
REMARK    6  A    between atoms: C_8  and  C_9
REMARK    7  A    between atoms: C_9  and  C_10
REMARK    8  A    between atoms: C_10  and  C_11
REMARK    9  A    between atoms: C_11  and  N_12
REMARK   10  A    between atoms: N_12  and  C_13
REMARK   11  A    between atoms: C_13  and  C_14
REMARK                            x       y       z     vdW  Elec       q    Type
REMARK                         _______ _______ _______ _____ _____    ______ ____
ROOT
ATOM      1  N   UNL     1       4.610   2.609  17.124  0.00  0.00    +0.000 N 
ATOM      2  H   UNL     1       4.674   1.707  16.639  0.00  0.00    +0.000 HD
ENDROOT
BRANCH   1   5
ATOM      3  C   UNL     1       6.501   4.396  14.434  0.00  0.00    +0.000 A 
ATOM      4  C   UNL     1       5.691   3.468  15.081  0.00  0.00    +0.000 A 
ATOM      5  C   UNL     1       5.527   3.489  16.478  0.00  0.00    +0.000 A 
ATOM      6  C   UNL     1       6.172   4.478  17.249  0.00  0.00    +0.000 A 
ATOM      7  N   UNL     1       6.028   4.492  18.597  0.00  0.00    +0.000 NA
ATOM      8  C   UNL     1       6.661   5.455  19.300  0.00  0.00    +0.000 A 
ATOM      9  C   UNL     1       7.451   6.433  18.730  0.00  0.00    +0.000 A 
ATOM     10  C   UNL     1       7.611   6.417  17.351  0.00  0.00    +0.000 A 
ATOM     11  C   UNL     1       6.978   5.428  16.584  0.00  0.00    +0.000 A 
ATOM     12  C   UNL     1       7.135   5.379  15.189  0.00  0.00    +0.000 A 
BRANCH   3  14
ATOM     13  C   UNL     1       6.259   3.349  12.316  0.00  0.00    +0.000 C 
ATOM     14  O   UNL     1       6.731   4.450  13.086  0.00  0.00    +0.000 OA
ENDBRANCH   3  14
ENDBRANCH   1   5
BRANCH   1  15
ATOM     15  C   UNL     1       3.248   3.097  17.296  0.00  0.00    +0.000 C 
BRANCH  15  16
ATOM     16  C   UNL     1       2.800   2.926  18.747  0.00  0.00    +0.000 C 
BRANCH  16  17
ATOM     17  C   UNL     1       1.277   3.019  18.896  0.00  0.00    +0.000 C 
BRANCH  17  18
ATOM     18  C   UNL     1       0.837   3.234  20.346  0.00  0.00    +0.000 C 
BRANCH  18  19
ATOM     19  C   UNL     1       1.764   4.201  21.077  0.00  0.00    +0.000 C 
BRANCH  19  20
ATOM     20  N   UNL     1       1.395   5.566  20.714  0.00  0.00    +0.000 NA
ATOM     21  H   UNL     1       1.162   6.101  21.550  0.00  0.00    +0.000 HD
BRANCH  20  22
ATOM     22  C   UNL     1       2.483   6.241  20.011  0.00  0.00    +0.000 C 
BRANCH  22  23
ATOM     23  C   UNL     1       2.058   7.614  19.554  0.00  0.00    +0.000 A 
ATOM     24  C   UNL     1       2.354   8.062  18.257  0.00  0.00    +0.000 A 
ATOM     25  C   UNL     1       1.953   9.332  17.840  0.00  0.00    +0.000 A 
ATOM     26  C   UNL     1       1.252  10.168  18.709  0.00  0.00    +0.000 A 
ATOM     27  C   UNL     1       0.953   9.735  19.999  0.00  0.00    +0.000 A 
ATOM     28  C   UNL     1       1.350   8.466  20.420  0.00  0.00    +0.000 A 
ENDBRANCH  22  23
ENDBRANCH  20  22
ENDBRANCH  19  20
ENDBRANCH  18  19
ENDBRANCH  17  18
ENDBRANCH  16  17
ENDBRANCH  15  16
ENDBRANCH   1  15
TORSDOF 10
ENDMDL
MODEL 8
REMARK VINA RESULT:      -6.5      3.858      7.058
REMARK  Name = 
REMARK  11 active torsions:
REMARK  status: ('A' for Active; 'I' for Inactive)
REMARK    1  A    between atoms: C_1  and  O_2
REMARK    2  A    between atoms: O_2  and  C_3
REMARK    3  A    between atoms: C_5  and  N_6
REMARK    4  A    between atoms: N_6  and  C_7
REMARK    5  A    between atoms: C_7  and  C_8
REMARK    6  A    between atoms: C_8  and  C_9
REMARK    7  A    between atoms: C_9  and  C_10
REMARK    8  A    between atoms: C_10  and  C_11
REMARK    9  A    between atoms: C_11  and  N_12
REMARK   10  A    between atoms: N_12  and  C_13
REMARK   11  A    between atoms: C_13  and  C_14
REMARK                            x       y       z     vdW  Elec       q    Type
REMARK                         _______ _______ _______ _____ _____    ______ ____
ROOT
ATOM      1  N   UNL     1       4.102   5.284  17.142  0.00  0.00    +0.000 N 
ATOM      2  H   UNL     1       3.541   4.635  16.581  0.00  0.00    +0.000 HD
ENDROOT
BRANCH   1   5
ATOM      3  C   UNL     1       2.134   7.234  19.658  0.00  0.00    +0.000 A 
ATOM      4  C   UNL     1       2.978   6.929  18.595  0.00  0.00    +0.000 A 
ATOM      5  C   UNL     1       3.329   5.600  18.299  0.00  0.00    +0.000 A 
ATOM      6  C   UNL     1       2.804   4.543  19.071  0.00  0.00    +0.000 A 
ATOM      7  N   UNL     1       3.153   3.262  18.796  0.00  0.00    +0.000 NA
ATOM      8  C   UNL     1       2.630   2.277  19.559  0.00  0.00    +0.000 A 
ATOM      9  C   UNL     1       1.757   2.494  20.606  0.00  0.00    +0.000 A 
ATOM     10  C   UNL     1       1.405   3.805  20.898  0.00  0.00    +0.000 A 
ATOM     11  C   UNL     1       1.934   4.858  20.137  0.00  0.00    +0.000 A 
ATOM     12  C   UNL     1       1.607   6.195  20.421  0.00  0.00    +0.000 A 
BRANCH   3  14
ATOM     13  C   UNL     1       1.462   9.408  18.978  0.00  0.00    +0.000 C 
ATOM     14  O   UNL     1       1.744   8.492  20.031  0.00  0.00    +0.000 OA
ENDBRANCH   3  14
ENDBRANCH   1   5
BRANCH   1  15
ATOM     15  C   UNL     1       5.470   4.840  17.375  0.00  0.00    +0.000 C 
BRANCH  15  16
ATOM     16  C   UNL     1       6.087   5.607  18.544  0.00  0.00    +0.000 C 
BRANCH  16  17
ATOM     17  C   UNL     1       7.615   5.677  18.447  0.00  0.00    +0.000 C 
BRANCH  17  18
ATOM     18  C   UNL     1       8.153   7.100  18.610  0.00  0.00    +0.000 C 
BRANCH  18  19
ATOM     19  C   UNL     1       7.725   7.999  17.453  0.00  0.00    +0.000 C 
BRANCH  19  20
ATOM     20  N   UNL     1       7.733   9.385  17.911  0.00  0.00    +0.000 NA
ATOM     21  H   UNL     1       6.915   9.568  18.492  0.00  0.00    +0.000 HD
BRANCH  20  22
ATOM     22  C   UNL     1       8.936   9.680  18.686  0.00  0.00    +0.000 C 
BRANCH  22  23
ATOM     23  C   UNL     1       9.549  10.988  18.252  0.00  0.00    +0.000 A 
ATOM     24  C   UNL     1       8.738  12.075  17.890  0.00  0.00    +0.000 A 
ATOM     25  C   UNL     1       9.312  13.283  17.494  0.00  0.00    +0.000 A 
ATOM     26  C   UNL     1      10.700  13.423  17.455  0.00  0.00    +0.000 A 
ATOM     27  C   UNL     1      11.515  12.351  17.812  0.00  0.00    +0.000 A 
ATOM     28  C   UNL     1      10.946  11.142  18.209  0.00  0.00    +0.000 A 
ENDBRANCH  22  23
ENDBRANCH  20  22
ENDBRANCH  19  20
ENDBRANCH  18  19
ENDBRANCH  17  18
ENDBRANCH  16  17
ENDBRANCH  15  16
ENDBRANCH   1  15
TORSDOF 10
ENDMDL
MODEL 9
REMARK VINA RESULT:      -6.5      4.140      7.523
REMARK  Name = 
REMARK  11 active torsions:
REMARK  status: ('A' for Active; 'I' for Inactive)
REMARK    1  A    between atoms: C_1  and  O_2
REMARK    2  A    between atoms: O_2  and  C_3
REMARK    3  A    between atoms: C_5  and  N_6
REMARK    4  A    between atoms: N_6  and  C_7
REMARK    5  A    between atoms: C_7  and  C_8
REMARK    6  A    between atoms: C_8  and  C_9
REMARK    7  A    between atoms: C_9  and  C_10
REMARK    8  A    between atoms: C_10  and  C_11
REMARK    9  A    between atoms: C_11  and  N_12
REMARK   10  A    between atoms: N_12  and  C_13
REMARK   11  A    between atoms: C_13  and  C_14
REMARK                            x       y       z     vdW  Elec       q    Type
REMARK                         _______ _______ _______ _____ _____    ______ ____
ROOT
ATOM      1  N   UNL     1       4.551   5.266  17.622  0.00  0.00    +0.000 N 
ATOM      2  H   UNL     1       5.388   4.894  18.084  0.00  0.00    +0.000 HD
ENDROOT
BRANCH   1   5
ATOM      3  C   UNL     1       2.135   6.732  20.076  0.00  0.00    +0.000 A 
ATOM      4  C   UNL     1       3.193   6.611  19.180  0.00  0.00    +0.000 A 
ATOM      5  C   UNL     1       3.540   5.367  18.624  0.00  0.00    +0.000 A 
ATOM      6  C   UNL     1       2.799   4.214  18.956  0.00  0.00    +0.000 A 
ATOM      7  N   UNL     1       3.142   3.011  18.433  0.00  0.00    +0.000 NA
ATOM      8  C   UNL     1       2.407   1.931  18.774  0.00  0.00    +0.000 A 
ATOM      9  C   UNL     1       1.322   1.974  19.627  0.00  0.00    +0.000 A 
ATOM     10  C   UNL     1       0.973   3.202  20.173  0.00  0.00    +0.000 A 
ATOM     11  C   UNL     1       1.716   4.347  19.852  0.00  0.00    +0.000 A 
ATOM     12  C   UNL     1       1.395   5.599  20.403  0.00  0.00    +0.000 A 
BRANCH   3  14
ATOM     13  C   UNL     1       1.415   8.980  19.811  0.00  0.00    +0.000 C 
ATOM     14  O   UNL     1       1.728   7.893  20.676  0.00  0.00    +0.000 OA
ENDBRANCH   3  14
ENDBRANCH   1   5
BRANCH   1  15
ATOM     15  C   UNL     1       4.793   6.456  16.817  0.00  0.00    +0.000 C 
BRANCH  15  16
ATOM     16  C   UNL     1       6.289   6.762  16.756  0.00  0.00    +0.000 C 
BRANCH  16  17
ATOM     17  C   UNL     1       7.052   6.151  17.937  0.00  0.00    +0.000 C 
BRANCH  17  18
ATOM     18  C   UNL     1       8.090   7.106  18.529  0.00  0.00    +0.000 C 
BRANCH  18  19
ATOM     19  C   UNL     1       8.019   8.486  17.880  0.00  0.00    +0.000 C 
BRANCH  19  20
ATOM     20  N   UNL     1       8.801   9.420  18.684  0.00  0.00    +0.000 NA
ATOM     21  H   UNL     1       9.773   9.118  18.727  0.00  0.00    +0.000 HD
BRANCH  20  22
ATOM     22  C   UNL     1       8.752  10.770  18.127  0.00  0.00    +0.000 C 
BRANCH  22  23
ATOM     23  C   UNL     1       9.908  11.600  18.625  0.00  0.00    +0.000 A 
ATOM     24  C   UNL     1      11.067  11.756  17.849  0.00  0.00    +0.000 A 
ATOM     25  C   UNL     1      12.130  12.529  18.314  0.00  0.00    +0.000 A 
ATOM     26  C   UNL     1      12.052  13.158  19.557  0.00  0.00    +0.000 A 
ATOM     27  C   UNL     1      10.907  13.010  20.337  0.00  0.00    +0.000 A 
ATOM     28  C   UNL     1       9.841  12.239  19.876  0.00  0.00    +0.000 A 
ENDBRANCH  22  23
ENDBRANCH  20  22
ENDBRANCH  19  20
ENDBRANCH  18  19
ENDBRANCH  17  18
ENDBRANCH  16  17
ENDBRANCH  15  16
ENDBRANCH   1  15
TORSDOF 10
ENDMDL
