MODEL 1
REMARK VINA RESULT:      -8.0      0.000      0.000
REMARK  Name = 
REMARK  9 active torsions:
REMARK  status: ('A' for Active; 'I' for Inactive)
REMARK    1  A    between atoms: C_1  and  C_2
REMARK    2  A    between atoms: C_7  and  C_8
REMARK    3  A    between atoms: C_8  and  C_9
REMARK    4  A    between atoms: C_9  and  C_10
REMARK    5  A    between atoms: C_10  and  N_11
REMARK    6  A    between atoms: N_14  and  C_15
REMARK    7  A    between atoms: N_17  and  C_18
REMARK    8  A    between atoms: C_18  and  C_19
REMARK    9  A    between atoms: C_18  and  C_20
REMARK                            x       y       z     vdW  Elec       q    Type
REMARK                         _______ _______ _______ _____ _____    ______ ____
ROOT
ATOM      1  N   UNL     1       8.789   8.551  18.859  0.00  0.00    +0.000 N 
ATOM      2  C   UNL     1       8.164   7.437  18.364  0.00  0.00    +0.000 C 
ATOM      3  N   UNL     1       8.189   6.471  19.326  0.00  0.00    +0.000 N 
ATOM      4  N   UNL     1       7.624   7.372  17.194  0.00  0.00    +0.000 NA
ATOM      5  H   UNL     1       9.048   8.499  19.833  0.00  0.00    +0.000 HD
ATOM      6  H   UNL     1       9.083   6.368  19.787  0.00  0.00    +0.000 HD
ATOM      7  H   UNL     1       7.897   5.567  18.949  0.00  0.00    +0.000 HD
ENDROOT
BRANCH   4   8
ATOM      8  C   UNL     1       7.102   6.177  16.787  0.00  0.00    +0.000 C 
ATOM      9  O   UNL     1       7.610   5.072  16.972  0.00  0.00    +0.000 OA
ATOM     10  N   UNL     1       5.914   6.326  16.134  0.00  0.00    +0.000 N 
ATOM     11  H   UNL     1       5.546   7.263  16.098  0.00  0.00    +0.000 HD
BRANCH  10  12
ATOM     12  C   UNL     1       5.141   5.187  15.678  0.00  0.00    +0.000 C 
ATOM     13  C   UNL     1       6.044   4.117  15.047  0.00  0.00    +0.000 C 
BRANCH  12  14
ATOM     14  C   UNL     1       4.290   4.612  16.796  0.00  0.00    +0.000 A 
ATOM     15  C   UNL     1       3.512   5.467  17.595  0.00  0.00    +0.000 A 
ATOM     16  C   UNL     1       2.727   4.960  18.633  0.00  0.00    +0.000 A 
ATOM     17  C   UNL     1       2.707   3.591  18.886  0.00  0.00    +0.000 A 
ATOM     18  C   UNL     1       3.464   2.728  18.095  0.00  0.00    +0.000 A 
ATOM     19  C   UNL     1       4.248   3.233  17.056  0.00  0.00    +0.000 A 
ENDBRANCH  12  14
ENDBRANCH  10  12
ENDBRANCH   4   8
BRANCH   1  20
ATOM     20  C   UNL     1       8.571   9.893  18.362  0.00  0.00    +0.000 C 
BRANCH  20  21
ATOM     21  C   UNL     1       9.884  10.663  18.173  0.00  0.00    +0.000 C 
BRANCH  21  22
ATOM     22  C   UNL     1      10.054  11.812  19.171  0.00  0.00    +0.000 C 
BRANCH  22  29
ATOM     23  C   UNL     1       8.287  14.450  19.884  0.00  0.00    +0.000 C 
ATOM     24  C   UNL     1       9.293  14.288  18.801  0.00  0.00    +0.000 A 
ATOM     25  N   UNL     1       9.555  15.384  17.994  0.00  0.00    +0.000 NA
ATOM     26  C   UNL     1      10.485  15.098  17.120  0.00  0.00    +0.000 A 
ATOM     27  N   UNL     1      10.951  15.990  16.232  0.00  0.00    +0.000 N 
ATOM     28  S   UNL     1      11.065  13.486  17.169  0.00  0.00    +0.000 S 
ATOM     29  C   UNL     1      10.033  13.154  18.501  0.00  0.00    +0.000 A 
ATOM     30  H   UNL     1      10.378  16.817  16.108  0.00  0.00    +0.000 HD
ATOM     31  H   UNL     1      11.386  15.644  15.387  0.00  0.00    +0.000 HD
ENDBRANCH  22  29
ENDBRANCH  21  22
ENDBRANCH  20  21
ENDBRANCH   1  20
TORSDOF 7
ENDMDL
MODEL 2
REMARK VINA RESULT:      -7.9      1.740      2.406
REMARK  Name = 
REMARK  9 active torsions:
REMARK  status: ('A' for Active; 'I' for Inactive)
REMARK    1  A    between atoms: C_1  and  C_2
REMARK    2  A    between atoms: C_7  and  C_8
REMARK    3  A    between atoms: C_8  and  C_9
REMARK    4  A    between atoms: C_9  and  C_10
REMARK    5  A    between atoms: C_10  and  N_11
REMARK    6  A    between atoms: N_14  and  C_15
REMARK    7  A    between atoms: N_17  and  C_18
REMARK    8  A    between atoms: C_18  and  C_19
REMARK    9  A    between atoms: C_18  and  C_20
REMARK                            x       y       z     vdW  Elec       q    Type
REMARK                         _______ _______ _______ _____ _____    ______ ____
ROOT
ATOM      1  N   UNL     1       8.209   8.225  17.505  0.00  0.00    +0.000 N 
ATOM      2  C   UNL     1       7.285   7.284  17.139  0.00  0.00    +0.000 C 
ATOM      3  N   UNL     1       7.874   6.057  17.212  0.00  0.00    +0.000 N 
ATOM      4  N   UNL     1       6.063   7.556  16.824  0.00  0.00    +0.000 NA
ATOM      5  H   UNL     1       9.083   7.856  17.849  0.00  0.00    +0.000 HD
ATOM      6  H   UNL     1       8.800   6.016  16.809  0.00  0.00    +0.000 HD
ATOM      7  H   UNL     1       7.287   5.339  16.780  0.00  0.00    +0.000 HD
ENDROOT
BRANCH   4   8
ATOM      8  C   UNL     1       5.261   6.535  16.399  0.00  0.00    +0.000 C 
ATOM      9  O   UNL     1       5.167   6.131  15.240  0.00  0.00    +0.000 OA
ATOM     10  N   UNL     1       4.546   5.978  17.418  0.00  0.00    +0.000 N 
ATOM     11  H   UNL     1       4.748   6.331  18.340  0.00  0.00    +0.000 HD
BRANCH  10  12
ATOM     12  C   UNL     1       3.685   4.830  17.214  0.00  0.00    +0.000 C 
ATOM     13  C   UNL     1       4.505   3.563  16.924  0.00  0.00    +0.000 C 
BRANCH  12  14
ATOM     14  C   UNL     1       2.742   4.628  18.387  0.00  0.00    +0.000 A 
ATOM     15  C   UNL     1       2.747   5.544  19.454  0.00  0.00    +0.000 A 
ATOM     16  C   UNL     1       1.892   5.374  20.545  0.00  0.00    +0.000 A 
ATOM     17  C   UNL     1       1.022   4.289  20.587  0.00  0.00    +0.000 A 
ATOM     18  C   UNL     1       0.997   3.379  19.533  0.00  0.00    +0.000 A 
ATOM     19  C   UNL     1       1.849   3.547  18.439  0.00  0.00    +0.000 A 
ENDBRANCH  12  14
ENDBRANCH  10  12
ENDBRANCH   4   8
BRANCH   1  20
ATOM     20  C   UNL     1       7.874   9.544  18.000  0.00  0.00    +0.000 C 
BRANCH  20  21
ATOM     21  C   UNL     1       9.028  10.182  18.784  0.00  0.00    +0.000 C 
BRANCH  21  22
ATOM     22  C   UNL     1       9.839  11.180  17.952  0.00  0.00    +0.000 C 
BRANCH  22  29
ATOM     23  C   UNL     1      12.323  11.945  19.910  0.00  0.00    +0.000 C 
ATOM     24  C   UNL     1      11.166  12.796  19.526  0.00  0.00    +0.000 A 
ATOM     25  N   UNL     1      11.122  14.089  20.021  0.00  0.00    +0.000 NA
ATOM     26  C   UNL     1      10.072  14.720  19.564  0.00  0.00    +0.000 A 
ATOM     27  N   UNL     1       9.801  16.000  19.866  0.00  0.00    +0.000 N 
ATOM     28  S   UNL     1       9.040  13.792  18.559  0.00  0.00    +0.000 S 
ATOM     29  C   UNL     1      10.107  12.454  18.697  0.00  0.00    +0.000 A 
ATOM     30  H   UNL     1      10.313  16.376  20.656  0.00  0.00    +0.000 HD
ATOM     31  H   UNL     1       8.845  16.320  19.788  0.00  0.00    +0.000 HD
ENDBRANCH  22  29
ENDBRANCH  21  22
ENDBRANCH  20  21
ENDBRANCH   1  20
TORSDOF 7
ENDMDL
MODEL 3
REMARK VINA RESULT:      -7.8      7.936      9.702
REMARK  Name = 
REMARK  9 active torsions:
REMARK  status: ('A' for Active; 'I' for Inactive)
REMARK    1  A    between atoms: C_1  and  C_2
REMARK    2  A    between atoms: C_7  and  C_8
REMARK    3  A    between atoms: C_8  and  C_9
REMARK    4  A    between atoms: C_9  and  C_10
REMARK    5  A    between atoms: C_10  and  N_11
REMARK    6  A    between atoms: N_14  and  C_15
REMARK    7  A    between atoms: N_17  and  C_18
REMARK    8  A    between atoms: C_18  and  C_19
REMARK    9  A    between atoms: C_18  and  C_20
REMARK                            x       y       z     vdW  Elec       q    Type
REMARK                         _______ _______ _______ _____ _____    ______ ____
ROOT
ATOM      1  N   UNL     1      -0.190  10.719  20.007  0.00  0.00    +0.000 N 
ATOM      2  C   UNL     1       0.487   9.934  19.113  0.00  0.00    +0.000 C 
ATOM      3  N   UNL     1      -0.079  10.102  17.884  0.00  0.00    +0.000 N 
ATOM      4  N   UNL     1       1.506   9.204  19.420  0.00  0.00    +0.000 NA
ATOM      5  H   UNL     1      -0.881  11.333  19.602  0.00  0.00    +0.000 HD
ATOM      6  H   UNL     1      -1.089  10.084  17.886  0.00  0.00    +0.000 HD
ATOM      7  H   UNL     1       0.270   9.409  17.219  0.00  0.00    +0.000 HD
ENDROOT
BRANCH   4   8
ATOM      8  C   UNL     1       2.044   8.403  18.452  0.00  0.00    +0.000 C 
ATOM      9  O   UNL     1       2.326   8.753  17.307  0.00  0.00    +0.000 OA
ATOM     10  N   UNL     1       2.252   7.129  18.891  0.00  0.00    +0.000 N 
ATOM     11  H   UNL     1       2.057   6.961  19.865  0.00  0.00    +0.000 HD
BRANCH  10  12
ATOM     12  C   UNL     1       2.884   6.124  18.058  0.00  0.00    +0.000 C 
ATOM     13  C   UNL     1       4.415   6.185  18.176  0.00  0.00    +0.000 C 
BRANCH  12  14
ATOM     14  C   UNL     1       2.355   4.735  18.367  0.00  0.00    +0.000 A 
ATOM     15  C   UNL     1       2.756   3.641  17.580  0.00  0.00    +0.000 A 
ATOM     16  C   UNL     1       2.277   2.356  17.844  0.00  0.00    +0.000 A 
ATOM     17  C   UNL     1       1.390   2.145  18.897  0.00  0.00    +0.000 A 
ATOM     18  C   UNL     1       0.991   3.217  19.692  0.00  0.00    +0.000 A 
ATOM     19  C   UNL     1       1.471   4.502  19.433  0.00  0.00    +0.000 A 
ENDBRANCH  12  14
ENDBRANCH  10  12
ENDBRANCH   4   8
BRANCH   1  20
ATOM     20  C   UNL     1       0.361  11.178  21.265  0.00  0.00    +0.000 C 
BRANCH  20  21
ATOM     21  C   UNL     1      -0.660  11.106  22.408  0.00  0.00    +0.000 C 
BRANCH  21  22
ATOM     22  C   UNL     1      -1.287  12.462  22.740  0.00  0.00    +0.000 C 
BRANCH  22  29
ATOM     23  C   UNL     1      -4.028  12.401  24.492  0.00  0.00    +0.000 C 
ATOM     24  C   UNL     1      -3.887  12.542  23.019  0.00  0.00    +0.000 A 
ATOM     25  N   UNL     1      -5.044  12.696  22.271  0.00  0.00    +0.000 NA
ATOM     26  C   UNL     1      -4.755  12.846  21.005  0.00  0.00    +0.000 A 
ATOM     27  N   UNL     1      -5.689  13.043  20.061  0.00  0.00    +0.000 N 
ATOM     28  S   UNL     1      -3.088  12.757  20.618  0.00  0.00    +0.000 S 
ATOM     29  C   UNL     1      -2.712  12.556  22.283  0.00  0.00    +0.000 A 
ATOM     30  H   UNL     1      -6.639  12.824  20.340  0.00  0.00    +0.000 HD
ATOM     31  H   UNL     1      -5.463  12.806  19.105  0.00  0.00    +0.000 HD
ENDBRANCH  22  29
ENDBRANCH  21  22
ENDBRANCH  20  21
ENDBRANCH   1  20
TORSDOF 7
ENDMDL
MODEL 4
REMARK VINA RESULT:      -7.8      6.224      8.993
REMARK  Name = 
REMARK  9 active torsions:
REMARK  status: ('A' for Active; 'I' for Inactive)
REMARK    1  A    between atoms: C_1  and  C_2
REMARK    2  A    between atoms: C_7  and  C_8
REMARK    3  A    between atoms: C_8  and  C_9
REMARK    4  A    between atoms: C_9  and  C_10
REMARK    5  A    between atoms: C_10  and  N_11
REMARK    6  A    between atoms: N_14  and  C_15
REMARK    7  A    between atoms: N_17  and  C_18
REMARK    8  A    between atoms: C_18  and  C_19
REMARK    9  A    between atoms: C_18  and  C_20
REMARK                            x       y       z     vdW  Elec       q    Type
REMARK                         _______ _______ _______ _____ _____    ______ ____
ROOT
ATOM      1  N   UNL     1       2.545   6.308  19.967  0.00  0.00    +0.000 N 
ATOM      2  C   UNL     1       1.880   7.477  20.219  0.00  0.00    +0.000 C 
ATOM      3  N   UNL     1       1.412   7.434  21.499  0.00  0.00    +0.000 N 
ATOM      4  N   UNL     1       1.773   8.445  19.372  0.00  0.00    +0.000 NA
ATOM      5  H   UNL     1       2.659   5.699  20.763  0.00  0.00    +0.000 HD
ATOM      6  H   UNL     1       0.976   6.558  21.752  0.00  0.00    +0.000 HD
ATOM      7  H   UNL     1       0.759   8.200  21.680  0.00  0.00    +0.000 HD
ENDROOT
BRANCH   4   8
ATOM      8  C   UNL     1       1.014   9.528  19.718  0.00  0.00    +0.000 C 
ATOM      9  O   UNL     1       1.057  10.119  20.796  0.00  0.00    +0.000 OA
ATOM     10  N   UNL     1       0.172   9.911  18.716  0.00  0.00    +0.000 N 
ATOM     11  H   UNL     1       0.264   9.409  17.847  0.00  0.00    +0.000 HD
BRANCH  10  12
ATOM     12  C   UNL     1      -0.674  11.083  18.831  0.00  0.00    +0.000 C 
ATOM     13  C   UNL     1       0.110  12.369  18.529  0.00  0.00    +0.000 C 
BRANCH  12  14
ATOM     14  C   UNL     1      -1.909  10.963  17.955  0.00  0.00    +0.000 A 
ATOM     15  C   UNL     1      -1.918  10.059  16.879  0.00  0.00    +0.000 A 
ATOM     16  C   UNL     1      -3.041   9.937  16.058  0.00  0.00    +0.000 A 
ATOM     17  C   UNL     1      -4.170  10.716  16.299  0.00  0.00    +0.000 A 
ATOM     18  C   UNL     1      -4.180  11.609  17.368  0.00  0.00    +0.000 A 
ATOM     19  C   UNL     1      -3.060  11.731  18.193  0.00  0.00    +0.000 A 
ENDBRANCH  12  14
ENDBRANCH  10  12
ENDBRANCH   4   8
BRANCH   1  20
ATOM     20  C   UNL     1       3.553   6.152  18.939  0.00  0.00    +0.000 C 
BRANCH  20  21
ATOM     21  C   UNL     1       4.778   5.374  19.438  0.00  0.00    +0.000 C 
BRANCH  21  22
ATOM     22  C   UNL     1       5.192   4.240  18.497  0.00  0.00    +0.000 C 
BRANCH  22  29
ATOM     23  C   UNL     1       7.663   6.354  18.371  0.00  0.00    +0.000 C 
ATOM     24  C   UNL     1       7.019   5.631  17.242  0.00  0.00    +0.000 A 
ATOM     25  N   UNL     1       7.526   5.837  15.969  0.00  0.00    +0.000 NA
ATOM     26  C   UNL     1       6.884   5.106  15.095  0.00  0.00    +0.000 A 
ATOM     27  N   UNL     1       7.191   5.093  13.789  0.00  0.00    +0.000 N 
ATOM     28  S   UNL     1       5.598   4.168  15.729  0.00  0.00    +0.000 S 
ATOM     29  C   UNL     1       5.959   4.739  17.308  0.00  0.00    +0.000 A 
ATOM     30  H   UNL     1       7.778   5.857  13.474  0.00  0.00    +0.000 HD
ATOM     31  H   UNL     1       6.479   4.807  13.131  0.00  0.00    +0.000 HD
ENDBRANCH  22  29
ENDBRANCH  21  22
ENDBRANCH  20  21
ENDBRANCH   1  20
TORSDOF 7
ENDMDL
MODEL 5
REMARK VINA RESULT:      -7.8      1.634      2.431
REMARK  Name = 
REMARK  9 active torsions:
REMARK  status: ('A' for Active; 'I' for Inactive)
REMARK    1  A    between atoms: C_1  and  C_2
REMARK    2  A    between atoms: C_7  and  C_8
REMARK    3  A    between atoms: C_8  and  C_9
REMARK    4  A    between atoms: C_9  and  C_10
REMARK    5  A    between atoms: C_10  and  N_11
REMARK    6  A    between atoms: N_14  and  C_15
REMARK    7  A    between atoms: N_17  and  C_18
REMARK    8  A    between atoms: C_18  and  C_19
REMARK    9  A    between atoms: C_18  and  C_20
REMARK                            x       y       z     vdW  Elec       q    Type
REMARK                         _______ _______ _______ _____ _____    ______ ____
ROOT
ATOM      1  N   UNL     1       7.673   7.884  16.994  0.00  0.00    +0.000 N 
ATOM      2  C   UNL     1       7.002   6.696  17.104  0.00  0.00    +0.000 C 
ATOM      3  N   UNL     1       7.468   5.852  16.141  0.00  0.00    +0.000 N 
ATOM      4  N   UNL     1       6.113   6.450  18.008  0.00  0.00    +0.000 NA
ATOM      5  H   UNL     1       8.429   7.889  16.325  0.00  0.00    +0.000 HD
ATOM      6  H   UNL     1       7.566   6.277  15.229  0.00  0.00    +0.000 HD
ATOM      7  H   UNL     1       6.880   5.019  16.063  0.00  0.00    +0.000 HD
ENDROOT
BRANCH   4   8
ATOM      8  C   UNL     1       5.457   5.252  17.961  0.00  0.00    +0.000 C 
ATOM      9  O   UNL     1       5.900   4.175  18.359  0.00  0.00    +0.000 OA
ATOM     10  N   UNL     1       4.213   5.364  17.413  0.00  0.00    +0.000 N 
ATOM     11  H   UNL     1       3.915   6.299  17.186  0.00  0.00    +0.000 HD
BRANCH  10  12
ATOM     12  C   UNL     1       3.306   4.235  17.331  0.00  0.00    +0.000 C 
ATOM     13  C   UNL     1       4.024   2.982  16.805  0.00  0.00    +0.000 C 
BRANCH  12  14
ATOM     14  C   UNL     1       2.626   3.973  18.662  0.00  0.00    +0.000 A 
ATOM     15  C   UNL     1       2.126   5.048  19.417  0.00  0.00    +0.000 A 
ATOM     16  C   UNL     1       1.502   4.829  20.647  0.00  0.00    +0.000 A 
ATOM     17  C   UNL     1       1.369   3.534  21.140  0.00  0.00    +0.000 A 
ATOM     18  C   UNL     1       1.850   2.457  20.399  0.00  0.00    +0.000 A 
ATOM     19  C   UNL     1       2.472   2.672  19.168  0.00  0.00    +0.000 A 
ENDBRANCH  12  14
ENDBRANCH  10  12
ENDBRANCH   4   8
BRANCH   1  20
ATOM     20  C   UNL     1       7.815   8.841  18.072  0.00  0.00    +0.000 C 
BRANCH  20  21
ATOM     21  C   UNL     1       9.121   9.639  17.974  0.00  0.00    +0.000 C 
BRANCH  21  22
ATOM     22  C   UNL     1       9.334  10.589  19.155  0.00  0.00    +0.000 C 
BRANCH  22  29
ATOM     23  C   UNL     1      12.327  11.798  19.571  0.00  0.00    +0.000 C 
ATOM     24  C   UNL     1      11.170  12.435  18.889  0.00  0.00    +0.000 A 
ATOM     25  N   UNL     1      11.361  13.686  18.324  0.00  0.00    +0.000 NA
ATOM     26  C   UNL     1      10.269  14.093  17.730  0.00  0.00    +0.000 A 
ATOM     27  N   UNL     1      10.187  15.263  17.077  0.00  0.00    +0.000 N 
ATOM     28  S   UNL     1       8.928  13.033  17.856  0.00  0.00    +0.000 S 
ATOM     29  C   UNL     1       9.895  11.912  18.727  0.00  0.00    +0.000 A 
ATOM     30  H   UNL     1      10.931  15.922  17.274  0.00  0.00    +0.000 HD
ATOM     31  H   UNL     1       9.274  15.678  16.949  0.00  0.00    +0.000 HD
ENDBRANCH  22  29
ENDBRANCH  21  22
ENDBRANCH  20  21
ENDBRANCH   1  20
TORSDOF 7
ENDMDL
MODEL 6
REMARK VINA RESULT:      -7.7      5.532      8.586
REMARK  Name = 
REMARK  9 active torsions:
REMARK  status: ('A' for Active; 'I' for Inactive)
REMARK    1  A    between atoms: C_1  and  C_2
REMARK    2  A    between atoms: C_7  and  C_8
REMARK    3  A    between atoms: C_8  and  C_9
REMARK    4  A    between atoms: C_9  and  C_10
REMARK    5  A    between atoms: C_10  and  N_11
REMARK    6  A    between atoms: N_14  and  C_15
REMARK    7  A    between atoms: N_17  and  C_18
REMARK    8  A    between atoms: C_18  and  C_19
REMARK    9  A    between atoms: C_18  and  C_20
REMARK                            x       y       z     vdW  Elec       q    Type
REMARK                         _______ _______ _______ _____ _____    ______ ____
ROOT
ATOM      1  N   UNL     1       2.630   5.560  18.839  0.00  0.00    +0.000 N 
ATOM      2  C   UNL     1       2.351   6.899  18.900  0.00  0.00    +0.000 C 
ATOM      3  N   UNL     1       2.434   7.293  20.202  0.00  0.00    +0.000 N 
ATOM      4  N   UNL     1       2.097   7.632  17.868  0.00  0.00    +0.000 NA
ATOM      5  H   UNL     1       2.937   5.146  19.707  0.00  0.00    +0.000 HD
ATOM      6  H   UNL     1       1.981   6.667  20.855  0.00  0.00    +0.000 HD
ATOM      7  H   UNL     1       2.063   8.237  20.327  0.00  0.00    +0.000 HD
ENDROOT
BRANCH   4   8
ATOM      8  C   UNL     1       1.755   8.939  18.071  0.00  0.00    +0.000 C 
ATOM      9  O   UNL     1       2.419   9.916  17.724  0.00  0.00    +0.000 OA
ATOM     10  N   UNL     1       0.560   9.068  18.715  0.00  0.00    +0.000 N 
ATOM     11  H   UNL     1       0.060   8.211  18.891  0.00  0.00    +0.000 HD
BRANCH  10  12
ATOM     12  C   UNL     1      -0.038  10.365  18.969  0.00  0.00    +0.000 C 
ATOM     13  C   UNL     1      -1.241  10.614  18.046  0.00  0.00    +0.000 C 
BRANCH  12  14
ATOM     14  C   UNL     1      -0.414  10.524  20.432  0.00  0.00    +0.000 A 
ATOM     15  C   UNL     1      -1.066  11.692  20.864  0.00  0.00    +0.000 A 
ATOM     16  C   UNL     1      -1.415  11.861  22.205  0.00  0.00    +0.000 A 
ATOM     17  C   UNL     1      -1.119  10.867  23.133  0.00  0.00    +0.000 A 
ATOM     18  C   UNL     1      -0.484   9.699  22.719  0.00  0.00    +0.000 A 
ATOM     19  C   UNL     1      -0.135   9.526  21.378  0.00  0.00    +0.000 A 
ENDBRANCH  12  14
ENDBRANCH  10  12
ENDBRANCH   4   8
BRANCH   1  20
ATOM     20  C   UNL     1       3.096   4.880  17.648  0.00  0.00    +0.000 C 
BRANCH  20  21
ATOM     21  C   UNL     1       3.992   3.679  17.976  0.00  0.00    +0.000 C 
BRANCH  21  22
ATOM     22  C   UNL     1       5.433   4.078  18.305  0.00  0.00    +0.000 C 
BRANCH  22  29
ATOM     23  C   UNL     1       7.545   6.551  18.174  0.00  0.00    +0.000 C 
ATOM     24  C   UNL     1       7.055   5.706  17.053  0.00  0.00    +0.000 A 
ATOM     25  N   UNL     1       7.560   5.956  15.787  0.00  0.00    +0.000 NA
ATOM     26  C   UNL     1       7.066   5.109  14.921  0.00  0.00    +0.000 A 
ATOM     27  N   UNL     1       7.409   5.110  13.623  0.00  0.00    +0.000 N 
ATOM     28  S   UNL     1       5.925   3.997  15.552  0.00  0.00    +0.000 S 
ATOM     29  C   UNL     1       6.146   4.660  17.121  0.00  0.00    +0.000 A 
ATOM     30  H   UNL     1       7.878   5.949  13.300  0.00  0.00    +0.000 HD
ATOM     31  H   UNL     1       6.769   4.698  12.957  0.00  0.00    +0.000 HD
ENDBRANCH  22  29
ENDBRANCH  21  22
ENDBRANCH  20  21
ENDBRANCH   1  20
TORSDOF 7
ENDMDL
MODEL 7
REMARK VINA RESULT:      -7.7      6.208      8.832
REMARK  Name = 
REMARK  9 active torsions:
REMARK  status: ('A' for Active; 'I' for Inactive)
REMARK    1  A    between atoms: C_1  and  C_2
REMARK    2  A    between atoms: C_7  and  C_8
REMARK    3  A    between atoms: C_8  and  C_9
REMARK    4  A    between atoms: C_9  and  C_10
REMARK    5  A    between atoms: C_10  and  N_11
REMARK    6  A    between atoms: N_14  and  C_15
REMARK    7  A    between atoms: N_17  and  C_18
REMARK    8  A    between atoms: C_18  and  C_19
REMARK    9  A    between atoms: C_18  and  C_20
REMARK                            x       y       z     vdW  Elec       q    Type
REMARK                         _______ _______ _______ _____ _____    ______ ____
ROOT
ATOM      1  N   UNL     1       2.508   6.323  19.937  0.00  0.00    +0.000 N 
ATOM      2  C   UNL     1       1.807   7.469  20.202  0.00  0.00    +0.000 C 
ATOM      3  N   UNL     1       1.155   7.306  21.388  0.00  0.00    +0.000 N 
ATOM      4  N   UNL     1       1.823   8.516  19.448  0.00  0.00    +0.000 NA
ATOM      5  H   UNL     1       2.504   5.638  20.678  0.00  0.00    +0.000 HD
ATOM      6  H   UNL     1       0.690   6.413  21.486  0.00  0.00    +0.000 HD
ATOM      7  H   UNL     1       0.479   8.057  21.545  0.00  0.00    +0.000 HD
ENDROOT
BRANCH   4   8
ATOM      8  C   UNL     1       1.017   9.568  19.782  0.00  0.00    +0.000 C 
ATOM      9  O   UNL     1       1.000  10.141  20.870  0.00  0.00    +0.000 OA
ATOM     10  N   UNL     1       0.201   9.941  18.755  0.00  0.00    +0.000 N 
ATOM     11  H   UNL     1       0.341   9.457  17.883  0.00  0.00    +0.000 HD
BRANCH  10  12
ATOM     12  C   UNL     1      -0.688  11.083  18.857  0.00  0.00    +0.000 C 
ATOM     13  C   UNL     1       0.059  12.396  18.574  0.00  0.00    +0.000 C 
BRANCH  12  14
ATOM     14  C   UNL     1      -1.900  10.925  17.957  0.00  0.00    +0.000 A 
ATOM     15  C   UNL     1      -3.054  11.690  18.196  0.00  0.00    +0.000 A 
ATOM     16  C   UNL     1      -4.182  11.555  17.384  0.00  0.00    +0.000 A 
ATOM     17  C   UNL     1      -4.173  10.655  16.322  0.00  0.00    +0.000 A 
ATOM     18  C   UNL     1      -3.033   9.897  16.065  0.00  0.00    +0.000 A 
ATOM     19  C   UNL     1      -1.903  10.032  16.874  0.00  0.00    +0.000 A 
ENDBRANCH  12  14
ENDBRANCH  10  12
ENDBRANCH   4   8
BRANCH   1  20
ATOM     20  C   UNL     1       3.658   6.258  19.059  0.00  0.00    +0.000 C 
BRANCH  20  21
ATOM     21  C   UNL     1       4.549   5.045  19.357  0.00  0.00    +0.000 C 
BRANCH  21  22
ATOM     22  C   UNL     1       6.041   5.339  19.178  0.00  0.00    +0.000 C 
BRANCH  22  29
ATOM     23  C   UNL     1       7.825   7.579  17.632  0.00  0.00    +0.000 C 
ATOM     24  C   UNL     1       7.203   6.353  17.065  0.00  0.00    +0.000 A 
ATOM     25  N   UNL     1       7.412   6.086  15.721  0.00  0.00    +0.000 NA
ATOM     26  C   UNL     1       6.839   4.960  15.383  0.00  0.00    +0.000 A 
ATOM     27  N   UNL     1       6.908   4.450  14.143  0.00  0.00    +0.000 N 
ATOM     28  S   UNL     1       5.967   4.177  16.633  0.00  0.00    +0.000 S 
ATOM     29  C   UNL     1       6.436   5.411  17.733  0.00  0.00    +0.000 A 
ATOM     30  H   UNL     1       7.216   5.096  13.425  0.00  0.00    +0.000 HD
ATOM     31  H   UNL     1       6.191   3.800  13.850  0.00  0.00    +0.000 HD
ENDBRANCH  22  29
ENDBRANCH  21  22
ENDBRANCH  20  21
ENDBRANCH   1  20
TORSDOF 7
ENDMDL
MODEL 8
REMARK VINA RESULT:      -7.7      2.073      3.149
REMARK  Name = 
REMARK  9 active torsions:
REMARK  status: ('A' for Active; 'I' for Inactive)
REMARK    1  A    between atoms: C_1  and  C_2
REMARK    2  A    between atoms: C_7  and  C_8
REMARK    3  A    between atoms: C_8  and  C_9
REMARK    4  A    between atoms: C_9  and  C_10
REMARK    5  A    between atoms: C_10  and  N_11
REMARK    6  A    between atoms: N_14  and  C_15
REMARK    7  A    between atoms: N_17  and  C_18
REMARK    8  A    between atoms: C_18  and  C_19
REMARK    9  A    between atoms: C_18  and  C_20
REMARK                            x       y       z     vdW  Elec       q    Type
REMARK                         _______ _______ _______ _____ _____    ______ ____
ROOT
ATOM      1  N   UNL     1       7.264   7.736  17.243  0.00  0.00    +0.000 N 
ATOM      2  C   UNL     1       6.151   6.941  17.164  0.00  0.00    +0.000 C 
ATOM      3  N   UNL     1       5.694   6.974  15.879  0.00  0.00    +0.000 N 
ATOM      4  N   UNL     1       5.675   6.264  18.153  0.00  0.00    +0.000 NA
ATOM      5  H   UNL     1       7.594   8.100  16.362  0.00  0.00    +0.000 HD
ATOM      6  H   UNL     1       5.666   7.899  15.473  0.00  0.00    +0.000 HD
ATOM      7  H   UNL     1       4.769   6.545  15.805  0.00  0.00    +0.000 HD
ENDROOT
BRANCH   4   8
ATOM      8  C   UNL     1       4.512   5.572  17.966  0.00  0.00    +0.000 C 
ATOM      9  O   UNL     1       3.436   6.058  17.621  0.00  0.00    +0.000 OA
ATOM     10  N   UNL     1       4.660   4.237  18.201  0.00  0.00    +0.000 N 
ATOM     11  H   UNL     1       5.596   3.927  18.407  0.00  0.00    +0.000 HD
BRANCH  10  12
ATOM     12  C   UNL     1       3.576   3.296  17.992  0.00  0.00    +0.000 C 
ATOM     13  C   UNL     1       4.103   1.942  17.491  0.00  0.00    +0.000 C 
BRANCH  12  14
ATOM     14  C   UNL     1       2.730   3.138  19.242  0.00  0.00    +0.000 A 
ATOM     15  C   UNL     1       3.328   2.723  20.445  0.00  0.00    +0.000 A 
ATOM     16  C   UNL     1       2.567   2.566  21.605  0.00  0.00    +0.000 A 
ATOM     17  C   UNL     1       1.199   2.821  21.581  0.00  0.00    +0.000 A 
ATOM     18  C   UNL     1       0.593   3.244  20.400  0.00  0.00    +0.000 A 
ATOM     19  C   UNL     1       1.352   3.404  19.239  0.00  0.00    +0.000 A 
ENDBRANCH  12  14
ENDBRANCH  10  12
ENDBRANCH   4   8
BRANCH   1  20
ATOM     20  C   UNL     1       8.283   7.607  18.263  0.00  0.00    +0.000 C 
BRANCH  20  21
ATOM     21  C   UNL     1       8.771   8.969  18.773  0.00  0.00    +0.000 C 
BRANCH  21  22
ATOM     22  C   UNL     1       8.394  10.127  17.845  0.00  0.00    +0.000 C 
BRANCH  22  29
ATOM     23  C   UNL     1       7.552  13.214  17.251  0.00  0.00    +0.000 C 
ATOM     24  C   UNL     1       8.760  12.715  17.960  0.00  0.00    +0.000 A 
ATOM     25  N   UNL     1       9.644  13.654  18.468  0.00  0.00    +0.000 NA
ATOM     26  C   UNL     1      10.629  13.064  19.095  0.00  0.00    +0.000 A 
ATOM     27  N   UNL     1      11.614  13.741  19.707  0.00  0.00    +0.000 N 
ATOM     28  S   UNL     1      10.593  11.351  19.069  0.00  0.00    +0.000 S 
ATOM     29  C   UNL     1       9.112  11.395  18.198  0.00  0.00    +0.000 A 
ATOM     30  H   UNL     1      11.690  14.719  19.451  0.00  0.00    +0.000 HD
ATOM     31  H   UNL     1      12.496  13.272  19.859  0.00  0.00    +0.000 HD
ENDBRANCH  22  29
ENDBRANCH  21  22
ENDBRANCH  20  21
ENDBRANCH   1  20
TORSDOF 7
ENDMDL
MODEL 9
REMARK VINA RESULT:      -7.7      6.809      9.290
REMARK  Name = 
REMARK  9 active torsions:
REMARK  status: ('A' for Active; 'I' for Inactive)
REMARK    1  A    between atoms: C_1  and  C_2
REMARK    2  A    between atoms: C_7  and  C_8
REMARK    3  A    between atoms: C_8  and  C_9
REMARK    4  A    between atoms: C_9  and  C_10
REMARK    5  A    between atoms: C_10  and  N_11
REMARK    6  A    between atoms: N_14  and  C_15
REMARK    7  A    between atoms: N_17  and  C_18
REMARK    8  A    between atoms: C_18  and  C_19
REMARK    9  A    between atoms: C_18  and  C_20
REMARK                            x       y       z     vdW  Elec       q    Type
REMARK                         _______ _______ _______ _____ _____    ______ ____
ROOT
ATOM      1  N   UNL     1       1.093   9.258  20.028  0.00  0.00    +0.000 N 
ATOM      2  C   UNL     1       1.712   8.040  19.945  0.00  0.00    +0.000 C 
ATOM      3  N   UNL     1       1.403   7.327  21.065  0.00  0.00    +0.000 N 
ATOM      4  N   UNL     1       2.427   7.659  18.939  0.00  0.00    +0.000 NA
ATOM      5  H   UNL     1       0.464   9.367  20.809  0.00  0.00    +0.000 HD
ATOM      6  H   UNL     1       1.472   7.854  21.925  0.00  0.00    +0.000 HD
ATOM      7  H   UNL     1       1.979   6.485  21.138  0.00  0.00    +0.000 HD
ENDROOT
BRANCH   4   8
ATOM      8  C   UNL     1       3.057   6.449  19.014  0.00  0.00    +0.000 C 
ATOM      9  O   UNL     1       3.618   5.993  20.009  0.00  0.00    +0.000 OA
ATOM     10  N   UNL     1       3.004   5.764  17.836  0.00  0.00    +0.000 N 
ATOM     11  H   UNL     1       2.459   6.190  17.103  0.00  0.00    +0.000 HD
BRANCH  10  12
ATOM     12  C   UNL     1       3.542   4.424  17.703  0.00  0.00    +0.000 C 
ATOM     13  C   UNL     1       2.492   3.456  17.134  0.00  0.00    +0.000 C 
BRANCH  12  14
ATOM     14  C   UNL     1       4.814   4.418  16.874  0.00  0.00    +0.000 A 
ATOM     15  C   UNL     1       6.063   4.534  17.508  0.00  0.00    +0.000 A 
ATOM     16  C   UNL     1       7.245   4.537  16.764  0.00  0.00    +0.000 A 
ATOM     17  C   UNL     1       7.196   4.422  15.378  0.00  0.00    +0.000 A 
ATOM     18  C   UNL     1       5.967   4.295  14.735  0.00  0.00    +0.000 A 
ATOM     19  C   UNL     1       4.784   4.290  15.477  0.00  0.00    +0.000 A 
ENDBRANCH  12  14
ENDBRANCH  10  12
ENDBRANCH   4   8
BRANCH   1  20
ATOM     20  C   UNL     1       0.787  10.093  18.885  0.00  0.00    +0.000 C 
BRANCH  20  21
ATOM     21  C   UNL     1      -0.696  10.481  18.829  0.00  0.00    +0.000 C 
BRANCH  21  22
ATOM     22  C   UNL     1      -1.449   9.811  17.677  0.00  0.00    +0.000 C 
BRANCH  22  29
ATOM     23  C   UNL     1      -2.851  10.082  14.753  0.00  0.00    +0.000 C 
ATOM     24  C   UNL     1      -3.286  10.694  16.036  0.00  0.00    +0.000 A 
ATOM     25  N   UNL     1      -4.442  11.458  16.029  0.00  0.00    +0.000 NA
ATOM     26  C   UNL     1      -4.713  11.892  17.233  0.00  0.00    +0.000 A 
ATOM     27  N   UNL     1      -5.795  12.635  17.514  0.00  0.00    +0.000 N 
ATOM     28  S   UNL     1      -3.574  11.464  18.439  0.00  0.00    +0.000 S 
ATOM     29  C   UNL     1      -2.673  10.579  17.275  0.00  0.00    +0.000 A 
ATOM     30  H   UNL     1      -6.258  13.047  16.712  0.00  0.00    +0.000 HD
ATOM     31  H   UNL     1      -5.776  13.219  18.339  0.00  0.00    +0.000 HD
ENDBRANCH  22  29
ENDBRANCH  21  22
ENDBRANCH  20  21
ENDBRANCH   1  20
TORSDOF 7
ENDMDL
