MODEL 1
REMARK VINA RESULT:      -7.2      0.000      0.000
REMARK  Name = 
REMARK  2 active torsions:
REMARK  status: ('A' for Active; 'I' for Inactive)
REMARK    1  A    between atoms: C_1  and  C_2
REMARK    2  A    between atoms: C_9  and  C_10
REMARK                            x       y       z     vdW  Elec       q    Type
REMARK                         _______ _______ _______ _____ _____    ______ ____
ROOT
ATOM      1  C   UNL     1       2.165   4.607  21.112  0.00  0.00    +0.000 C 
ATOM      2  C   UNL     1       2.323   5.789  20.168  0.00  0.00    +0.000 A 
ATOM      3  C   UNL     1       3.065   5.767  19.025  0.00  0.00    +0.000 A 
ATOM      4  C   UNL     1       3.799   4.565  18.594  0.00  0.00    +0.000 A 
ATOM      5  C   UNL     1       4.526   4.558  17.465  0.00  0.00    +0.000 A 
ATOM      6  C   UNL     1       4.623   5.725  16.623  0.00  0.00    +0.000 A 
ATOM      7  C   UNL     1       3.992   6.871  16.927  0.00  0.00    +0.000 A 
ATOM      8  C   UNL     1       3.168   6.986  18.144  0.00  0.00    +0.000 A 
ATOM      9  C   UNL     1       2.513   8.127  18.489  0.00  0.00    +0.000 A 
ATOM     10  C   UNL     1       2.550   9.398  17.679  0.00  0.00    +0.000 C 
ATOM     11  N   UNL     1       1.748   8.125  19.682  0.00  0.00    +0.000 N 
ATOM     12  C   UNL     1       1.641   7.007  20.509  0.00  0.00    +0.000 A 
ATOM     13  N   UNL     1       0.881   7.234  21.560  0.00  0.00    +0.000 NA
ATOM     14  C   UNL     1       0.465   8.522  21.446  0.00  0.00    +0.000 A 
ATOM     15  C   UNL     1      -0.368   9.242  22.318  0.00  0.00    +0.000 A 
ATOM     16  C   UNL     1      -0.682  10.570  22.022  0.00  0.00    +0.000 A 
ATOM     17 CL   UNL     1      -1.711  11.411  23.129  0.00  0.00    +0.000 Cl
ATOM     18  C   UNL     1      -0.171  11.173  20.871  0.00  0.00    +0.000 A 
ATOM     19 CL   UNL     1      -0.529  12.816  20.458  0.00  0.00    +0.000 Cl
ATOM     20  C   UNL     1       0.664  10.462  19.991  0.00  0.00    +0.000 A 
ATOM     21  C   UNL     1       0.976   9.122  20.295  0.00  0.00    +0.000 A 
ENDROOT
TORSDOF 0
ENDMDL
MODEL 2
REMARK VINA RESULT:      -7.2      3.140      7.335
REMARK  Name = 
REMARK  2 active torsions:
REMARK  status: ('A' for Active; 'I' for Inactive)
REMARK    1  A    between atoms: C_1  and  C_2
REMARK    2  A    between atoms: C_9  and  C_10
REMARK                            x       y       z     vdW  Elec       q    Type
REMARK                         _______ _______ _______ _____ _____    ______ ____
ROOT
ATOM      1  C   UNL     1      -0.397  13.146  18.382  0.00  0.00    +0.000 C 
ATOM      2  C   UNL     1      -0.405  12.190  19.564  0.00  0.00    +0.000 A 
ATOM      3  C   UNL     1      -1.043  12.430  20.744  0.00  0.00    +0.000 A 
ATOM      4  C   UNL     1      -1.798  13.671  20.984  0.00  0.00    +0.000 A 
ATOM      5  C   UNL     1      -2.422  13.895  22.152  0.00  0.00    +0.000 A 
ATOM      6  C   UNL     1      -2.381  12.932  23.225  0.00  0.00    +0.000 A 
ATOM      7  C   UNL     1      -1.719  11.769  23.107  0.00  0.00    +0.000 A 
ATOM      8  C   UNL     1      -1.001  11.425  21.868  0.00  0.00    +0.000 A 
ATOM      9  C   UNL     1      -0.318  10.259  21.706  0.00  0.00    +0.000 A 
ATOM     10  C   UNL     1      -0.215   9.191  22.764  0.00  0.00    +0.000 C 
ATOM     11  N   UNL     1       0.337  10.032  20.470  0.00  0.00    +0.000 N 
ATOM     12  C   UNL     1       0.308  10.950  19.420  0.00  0.00    +0.000 A 
ATOM     13  N   UNL     1       0.984  10.530  18.371  0.00  0.00    +0.000 NA
ATOM     14  C   UNL     1       1.477   9.311  18.711  0.00  0.00    +0.000 A 
ATOM     15  C   UNL     1       2.268   8.451  17.932  0.00  0.00    +0.000 A 
ATOM     16  C   UNL     1       2.678   7.228  18.468  0.00  0.00    +0.000 A 
ATOM     17 CL   UNL     1       3.650   6.206  17.466  0.00  0.00    +0.000 Cl
ATOM     18  C   UNL     1       2.307   6.869  19.764  0.00  0.00    +0.000 A 
ATOM     19 CL   UNL     1       2.789   5.366  20.476  0.00  0.00    +0.000 Cl
ATOM     20  C   UNL     1       1.516   7.723  20.554  0.00  0.00    +0.000 A 
ATOM     21  C   UNL     1       1.104   8.954  20.007  0.00  0.00    +0.000 A 
ENDROOT
TORSDOF 0
ENDMDL
MODEL 3
REMARK VINA RESULT:      -6.9      1.430      3.487
REMARK  Name = 
REMARK  2 active torsions:
REMARK  status: ('A' for Active; 'I' for Inactive)
REMARK    1  A    between atoms: C_1  and  C_2
REMARK    2  A    between atoms: C_9  and  C_10
REMARK                            x       y       z     vdW  Elec       q    Type
REMARK                         _______ _______ _______ _____ _____    ______ ____
ROOT
ATOM      1  C   UNL     1       4.749   6.313  16.316  0.00  0.00    +0.000 C 
ATOM      2  C   UNL     1       3.875   6.191  17.555  0.00  0.00    +0.000 A 
ATOM      3  C   UNL     1       3.750   5.058  18.301  0.00  0.00    +0.000 A 
ATOM      4  C   UNL     1       4.470   3.818  17.962  0.00  0.00    +0.000 A 
ATOM      5  C   UNL     1       4.338   2.708  18.707  0.00  0.00    +0.000 A 
ATOM      6  C   UNL     1       3.486   2.678  19.871  0.00  0.00    +0.000 A 
ATOM      7  C   UNL     1       2.787   3.755  20.265  0.00  0.00    +0.000 A 
ATOM      8  C   UNL     1       2.860   5.023  19.518  0.00  0.00    +0.000 A 
ATOM      9  C   UNL     1       2.169   6.137  19.881  0.00  0.00    +0.000 A 
ATOM     10  C   UNL     1       1.255   6.208  21.077  0.00  0.00    +0.000 C 
ATOM     11  N   UNL     1       2.315   7.304  19.089  0.00  0.00    +0.000 N 
ATOM     12  C   UNL     1       3.133   7.354  17.961  0.00  0.00    +0.000 A 
ATOM     13  N   UNL     1       3.115   8.536  17.382  0.00  0.00    +0.000 NA
ATOM     14  C   UNL     1       2.273   9.300  18.126  0.00  0.00    +0.000 A 
ATOM     15  C   UNL     1       1.916  10.643  17.921  0.00  0.00    +0.000 A 
ATOM     16  C   UNL     1       1.027  11.256  18.806  0.00  0.00    +0.000 A 
ATOM     17 CL   UNL     1       0.620  12.911  18.509  0.00  0.00    +0.000 Cl
ATOM     18  C   UNL     1       0.500  10.538  19.881  0.00  0.00    +0.000 A 
ATOM     19 CL   UNL     1      -0.606  11.250  21.008  0.00  0.00    +0.000 Cl
ATOM     20  C   UNL     1       0.850   9.194  20.096  0.00  0.00    +0.000 A 
ATOM     21  C   UNL     1       1.748   8.581  19.200  0.00  0.00    +0.000 A 
ENDROOT
TORSDOF 0
ENDMDL
MODEL 4
REMARK VINA RESULT:      -6.8      3.310      6.183
REMARK  Name = 
REMARK  2 active torsions:
REMARK  status: ('A' for Active; 'I' for Inactive)
REMARK    1  A    between atoms: C_1  and  C_2
REMARK    2  A    between atoms: C_9  and  C_10
REMARK                            x       y       z     vdW  Elec       q    Type
REMARK                         _______ _______ _______ _____ _____    ______ ____
ROOT
ATOM      1  C   UNL     1      -0.357   9.256  23.055  0.00  0.00    +0.000 C 
ATOM      2  C   UNL     1       0.244   9.476  21.676  0.00  0.00    +0.000 A 
ATOM      3  C   UNL     1       0.181  10.649  20.987  0.00  0.00    +0.000 A 
ATOM      4  C   UNL     1      -0.494  11.839  21.532  0.00  0.00    +0.000 A 
ATOM      5  C   UNL     1      -0.547  12.990  20.842  0.00  0.00    +0.000 A 
ATOM      6  C   UNL     1       0.051  13.114  19.536  0.00  0.00    +0.000 A 
ATOM      7  C   UNL     1       0.691  12.088  18.950  0.00  0.00    +0.000 A 
ATOM      8  C   UNL     1       0.806  10.781  19.621  0.00  0.00    +0.000 A 
ATOM      9  C   UNL     1       1.443   9.716  19.063  0.00  0.00    +0.000 A 
ATOM     10  C   UNL     1       2.100   9.744  17.707  0.00  0.00    +0.000 C 
ATOM     11  N   UNL     1       1.495   8.506  19.800  0.00  0.00    +0.000 N 
ATOM     12  C   UNL     1       0.923   8.366  21.064  0.00  0.00    +0.000 A 
ATOM     13  N   UNL     1       1.093   7.158  21.558  0.00  0.00    +0.000 NA
ATOM     14  C   UNL     1       1.789   6.467  20.618  0.00  0.00    +0.000 A 
ATOM     15  C   UNL     1       2.220   5.131  20.669  0.00  0.00    +0.000 A 
ATOM     16  C   UNL     1       2.930   4.601  19.590  0.00  0.00    +0.000 A 
ATOM     17 CL   UNL     1       3.437   2.951  19.704  0.00  0.00    +0.000 Cl
ATOM     18  C   UNL     1       3.206   5.392  18.474  0.00  0.00    +0.000 A 
ATOM     19 CL   UNL     1       4.083   4.784  17.110  0.00  0.00    +0.000 Cl
ATOM     20  C   UNL     1       2.780   6.731  18.412  0.00  0.00    +0.000 A 
ATOM     21  C   UNL     1       2.065   7.261  19.504  0.00  0.00    +0.000 A 
ENDROOT
TORSDOF 0
ENDMDL
MODEL 5
REMARK VINA RESULT:      -6.6      9.150      9.880
REMARK  Name = 
REMARK  2 active torsions:
REMARK  status: ('A' for Active; 'I' for Inactive)
REMARK    1  A    between atoms: C_1  and  C_2
REMARK    2  A    between atoms: C_9  and  C_10
REMARK                            x       y       z     vdW  Elec       q    Type
REMARK                         _______ _______ _______ _____ _____    ______ ____
ROOT
ATOM      1  C   UNL     1       9.402  10.273  19.040  0.00  0.00    +0.000 C 
ATOM      2  C   UNL     1       9.683  11.685  19.531  0.00  0.00    +0.000 A 
ATOM      3  C   UNL     1      10.301  12.648  18.792  0.00  0.00    +0.000 A 
ATOM      4  C   UNL     1      10.767  12.399  17.417  0.00  0.00    +0.000 A 
ATOM      5  C   UNL     1      11.375  13.358  16.701  0.00  0.00    +0.000 A 
ATOM      6  C   UNL     1      11.602  14.675  17.243  0.00  0.00    +0.000 A 
ATOM      7  C   UNL     1      11.216  15.004  18.487  0.00  0.00    +0.000 A 
ATOM      8  C   UNL     1      10.541  14.026  19.358  0.00  0.00    +0.000 A 
ATOM      9  C   UNL     1      10.134  14.316  20.623  0.00  0.00    +0.000 A 
ATOM     10  C   UNL     1      10.324  15.659  21.280  0.00  0.00    +0.000 C 
ATOM     11  N   UNL     1       9.493  13.298  21.371  0.00  0.00    +0.000 N 
ATOM     12  C   UNL     1       9.263  12.019  20.865  0.00  0.00    +0.000 A 
ATOM     13  N   UNL     1       8.655  11.240  21.733  0.00  0.00    +0.000 NA
ATOM     14  C   UNL     1       8.467  11.997  22.845  0.00  0.00    +0.000 A 
ATOM     15  C   UNL     1       7.859  11.623  24.054  0.00  0.00    +0.000 A 
ATOM     16  C   UNL     1       7.762  12.557  25.088  0.00  0.00    +0.000 A 
ATOM     17 CL   UNL     1       7.005  12.045  26.556  0.00  0.00    +0.000 Cl
ATOM     18  C   UNL     1       8.266  13.848  24.917  0.00  0.00    +0.000 A 
ATOM     19 CL   UNL     1       8.171  15.044  26.166  0.00  0.00    +0.000 Cl
ATOM     20  C   UNL     1       8.876  14.234  23.711  0.00  0.00    +0.000 A 
ATOM     21  C   UNL     1       8.970  13.287  22.672  0.00  0.00    +0.000 A 
ENDROOT
TORSDOF 0
ENDMDL
MODEL 6
REMARK VINA RESULT:      -6.6      1.066      1.384
REMARK  Name = 
REMARK  2 active torsions:
REMARK  status: ('A' for Active; 'I' for Inactive)
REMARK    1  A    between atoms: C_1  and  C_2
REMARK    2  A    between atoms: C_9  and  C_10
REMARK                            x       y       z     vdW  Elec       q    Type
REMARK                         _______ _______ _______ _____ _____    ______ ____
ROOT
ATOM      1  C   UNL     1       2.920   3.564  19.984  0.00  0.00    +0.000 C 
ATOM      2  C   UNL     1       3.076   4.875  19.231  0.00  0.00    +0.000 A 
ATOM      3  C   UNL     1       3.815   5.028  18.096  0.00  0.00    +0.000 A 
ATOM      4  C   UNL     1       4.548   3.906  17.486  0.00  0.00    +0.000 A 
ATOM      5  C   UNL     1       5.273   4.072  16.366  0.00  0.00    +0.000 A 
ATOM      6  C   UNL     1       5.367   5.353  15.712  0.00  0.00    +0.000 A 
ATOM      7  C   UNL     1       4.736   6.439  16.188  0.00  0.00    +0.000 A 
ATOM      8  C   UNL     1       3.916   6.367  17.410  0.00  0.00    +0.000 A 
ATOM      9  C   UNL     1       3.261   7.442  17.927  0.00  0.00    +0.000 A 
ATOM     10  C   UNL     1       3.296   8.821  17.320  0.00  0.00    +0.000 C 
ATOM     11  N   UNL     1       2.499   7.258  19.108  0.00  0.00    +0.000 N 
ATOM     12  C   UNL     1       2.394   6.027  19.755  0.00  0.00    +0.000 A 
ATOM     13  N   UNL     1       1.637   6.091  20.830  0.00  0.00    +0.000 NA
ATOM     14  C   UNL     1       1.220   7.381  20.915  0.00  0.00    +0.000 A 
ATOM     15  C   UNL     1       0.389   7.958  21.888  0.00  0.00    +0.000 A 
ATOM     16  C   UNL     1       0.074   9.316  21.799  0.00  0.00    +0.000 A 
ATOM     17 CL   UNL     1      -0.953   9.978  23.023  0.00  0.00    +0.000 Cl
ATOM     18  C   UNL     1       0.582  10.087  20.752  0.00  0.00    +0.000 A 
ATOM     19 CL   UNL     1       0.223  11.774  20.594  0.00  0.00    +0.000 Cl
ATOM     20  C   UNL     1       1.415   9.519  19.771  0.00  0.00    +0.000 A 
ATOM     21  C   UNL     1       1.728   8.149  19.867  0.00  0.00    +0.000 A 
ENDROOT
TORSDOF 0
ENDMDL
MODEL 7
REMARK VINA RESULT:      -6.5      1.242      3.281
REMARK  Name = 
REMARK  2 active torsions:
REMARK  status: ('A' for Active; 'I' for Inactive)
REMARK    1  A    between atoms: C_1  and  C_2
REMARK    2  A    between atoms: C_9  and  C_10
REMARK                            x       y       z     vdW  Elec       q    Type
REMARK                         _______ _______ _______ _____ _____    ______ ____
ROOT
ATOM      1  C   UNL     1       4.420   6.920  16.206  0.00  0.00    +0.000 C 
ATOM      2  C   UNL     1       3.729   6.356  17.437  0.00  0.00    +0.000 A 
ATOM      3  C   UNL     1       3.795   5.052  17.828  0.00  0.00    +0.000 A 
ATOM      4  C   UNL     1       4.561   4.049  17.069  0.00  0.00    +0.000 A 
ATOM      5  C   UNL     1       4.618   2.766  17.466  0.00  0.00    +0.000 A 
ATOM      6  C   UNL     1       3.932   2.313  18.651  0.00  0.00    +0.000 A 
ATOM      7  C   UNL     1       3.207   3.149  19.412  0.00  0.00    +0.000 A 
ATOM      8  C   UNL     1       3.078   4.575  19.066  0.00  0.00    +0.000 A 
ATOM      9  C   UNL     1       2.353   5.455  19.808  0.00  0.00    +0.000 A 
ATOM     10  C   UNL     1       1.602   5.082  21.060  0.00  0.00    +0.000 C 
ATOM     11  N   UNL     1       2.300   6.806  19.381  0.00  0.00    +0.000 N 
ATOM     12  C   UNL     1       2.956   7.264  18.240  0.00  0.00    +0.000 A 
ATOM     13  N   UNL     1       2.767   8.551  18.038  0.00  0.00    +0.000 NA
ATOM     14  C   UNL     1       1.972   8.974  19.055  0.00  0.00    +0.000 A 
ATOM     15  C   UNL     1       1.484  10.270  19.290  0.00  0.00    +0.000 A 
ATOM     16  C   UNL     1       0.672  10.503  20.402  0.00  0.00    +0.000 A 
ATOM     17 CL   UNL     1       0.098  12.117  20.645  0.00  0.00    +0.000 Cl
ATOM     18  C   UNL     1       0.350   9.456  21.268  0.00  0.00    +0.000 A 
ATOM     19 CL   UNL     1      -0.652   9.691  22.661  0.00  0.00    +0.000 Cl
ATOM     20  C   UNL     1       0.833   8.155  21.043  0.00  0.00    +0.000 A 
ATOM     21  C   UNL     1       1.652   7.927  19.920  0.00  0.00    +0.000 A 
ENDROOT
TORSDOF 0
ENDMDL
MODEL 8
REMARK VINA RESULT:      -6.5      4.977      7.079
REMARK  Name = 
REMARK  2 active torsions:
REMARK  status: ('A' for Active; 'I' for Inactive)
REMARK    1  A    between atoms: C_1  and  C_2
REMARK    2  A    between atoms: C_9  and  C_10
REMARK                            x       y       z     vdW  Elec       q    Type
REMARK                         _______ _______ _______ _____ _____    ______ ____
ROOT
ATOM      1  C   UNL     1      -0.103  10.543  19.268  0.00  0.00    +0.000 C 
ATOM      2  C   UNL     1      -1.514  11.097  19.146  0.00  0.00    +0.000 A 
ATOM      3  C   UNL     1      -2.324  10.910  18.066  0.00  0.00    +0.000 A 
ATOM      4  C   UNL     1      -1.891  10.136  16.891  0.00  0.00    +0.000 A 
ATOM      5  C   UNL     1      -2.700   9.960  15.833  0.00  0.00    +0.000 A 
ATOM      6  C   UNL     1      -4.028  10.520  15.798  0.00  0.00    +0.000 A 
ATOM      7  C   UNL     1      -4.519  11.242  16.820  0.00  0.00    +0.000 A 
ATOM      8  C   UNL     1      -3.713  11.496  18.027  0.00  0.00    +0.000 A 
ATOM      9  C   UNL     1      -4.170  12.222  19.083  0.00  0.00    +0.000 A 
ATOM     10  C   UNL     1      -5.540  12.848  19.145  0.00  0.00    +0.000 C 
ATOM     11  N   UNL     1      -3.309  12.403  20.195  0.00  0.00    +0.000 N 
ATOM     12  C   UNL     1      -2.022  11.868  20.248  0.00  0.00    +0.000 A 
ATOM     13  N   UNL     1      -1.406  12.162  21.373  0.00  0.00    +0.000 NA
ATOM     14  C   UNL     1      -2.284  12.905  22.095  0.00  0.00    +0.000 A 
ATOM     15  C   UNL     1      -2.101  13.463  23.370  0.00  0.00    +0.000 A 
ATOM     16  C   UNL     1      -3.135  14.202  23.948  0.00  0.00    +0.000 A 
ATOM     17 CL   UNL     1      -2.858  14.867  25.520  0.00  0.00    +0.000 Cl
ATOM     18  C   UNL     1      -4.337  14.383  23.261  0.00  0.00    +0.000 A 
ATOM     19 CL   UNL     1      -5.651  15.290  23.931  0.00  0.00    +0.000 Cl
ATOM     20  C   UNL     1      -4.532  13.829  21.983  0.00  0.00    +0.000 A 
ATOM     21  C   UNL     1      -3.485  13.084  21.407  0.00  0.00    +0.000 A 
ENDROOT
TORSDOF 0
ENDMDL
MODEL 9
REMARK VINA RESULT:      -6.4      3.271      5.015
REMARK  Name = 
REMARK  2 active torsions:
REMARK  status: ('A' for Active; 'I' for Inactive)
REMARK    1  A    between atoms: C_1  and  C_2
REMARK    2  A    between atoms: C_9  and  C_10
REMARK                            x       y       z     vdW  Elec       q    Type
REMARK                         _______ _______ _______ _____ _____    ______ ____
ROOT
ATOM      1  C   UNL     1       0.332   9.256  23.247  0.00  0.00    +0.000 C 
ATOM      2  C   UNL     1      -0.069   9.942  21.951  0.00  0.00    +0.000 A 
ATOM      3  C   UNL     1       0.424   9.617  20.723  0.00  0.00    +0.000 A 
ATOM      4  C   UNL     1       1.416   8.544  20.540  0.00  0.00    +0.000 A 
ATOM      5  C   UNL     1       1.894   8.234  19.323  0.00  0.00    +0.000 A 
ATOM      6  C   UNL     1       1.458   8.936  18.141  0.00  0.00    +0.000 A 
ATOM      7  C   UNL     1       0.556   9.929  18.200  0.00  0.00    +0.000 A 
ATOM      8  C   UNL     1      -0.029  10.350  19.485  0.00  0.00    +0.000 A 
ATOM      9  C   UNL     1      -0.944  11.351  19.590  0.00  0.00    +0.000 A 
ATOM     10  C   UNL     1      -1.463  12.144  18.418  0.00  0.00    +0.000 C 
ATOM     11  N   UNL     1      -1.442  11.671  20.878  0.00  0.00    +0.000 N 
ATOM     12  C   UNL     1      -1.035  11.004  22.033  0.00  0.00    +0.000 A 
ATOM     13  N   UNL     1      -1.627  11.468  23.113  0.00  0.00    +0.000 NA
ATOM     14  C   UNL     1      -2.449  12.463  22.688  0.00  0.00    +0.000 A 
ATOM     15  C   UNL     1      -3.299  13.271  23.460  0.00  0.00    +0.000 A 
ATOM     16  C   UNL     1      -4.071  14.248  22.828  0.00  0.00    +0.000 A 
ATOM     17 CL   UNL     1      -5.102  15.216  23.825  0.00  0.00    +0.000 Cl
ATOM     18  C   UNL     1      -3.995  14.418  21.445  0.00  0.00    +0.000 A 
ATOM     19 CL   UNL     1      -4.930  15.615  20.613  0.00  0.00    +0.000 Cl
ATOM     20  C   UNL     1      -3.147  13.615  20.662  0.00  0.00    +0.000 A 
ATOM     21  C   UNL     1      -2.372  12.630  21.304  0.00  0.00    +0.000 A 
ENDROOT
TORSDOF 0
ENDMDL
