MODEL 1
REMARK VINA RESULT:      -5.5      0.000      0.000
REMARK  Name = 
REMARK  8 active torsions:
REMARK  status: ('A' for Active; 'I' for Inactive)
REMARK    1  A    between atoms: C_1  and  O_2
REMARK    2  A    between atoms: O_2  and  C_3
REMARK    3  A    between atoms: C_3  and  C_4
REMARK    4  A    between atoms: N_15  and  C_16
REMARK    5  A    between atoms: C_16  and  C_17
REMARK    6  A    between atoms: C_17  and  N_18
REMARK    7  A    between atoms: N_18  and  C_19
REMARK    8  A    between atoms: N_18  and  C_20
REMARK                            x       y       z     vdW  Elec       q    Type
REMARK                         _______ _______ _______ _____ _____    ______ ____
ROOT
ATOM      1  C   UNL     1       0.841   8.782  20.608  0.00  0.00    +0.000 C 
ATOM      2  O   UNL     1       0.504   8.164  21.621  0.00  0.00    +0.000 OA
ATOM      3  N   UNL     1       1.641   8.204  19.593  0.00  0.00    +0.000 N 
ATOM      4  C   UNL     1       2.156   9.055  18.570  0.00  0.00    +0.000 C 
ATOM      5  C   UNL     1       3.082   8.476  17.553  0.00  0.00    +0.000 C 
ATOM      6  C   UNL     1       3.574   7.045  17.573  0.00  0.00    +0.000 C 
ATOM      7  C   UNL     1       3.174   6.121  18.728  0.00  0.00    +0.000 C 
ATOM      8  C   UNL     1       4.452   5.755  19.551  0.00  0.00    +0.000 C 
ATOM      9  O   UNL     1       5.254   4.663  19.075  0.00  0.00    +0.000 OA
ATOM     10  C   UNL     1       4.678   3.392  19.385  0.00  0.00    +0.000 C 
ATOM     11  C   UNL     1       3.877   2.814  18.211  0.00  0.00    +0.000 C 
ATOM     12  N   UNL     1       3.273   3.791  17.298  0.00  0.00    +0.000 NA
ATOM     13  C   UNL     1       2.519   4.829  18.069  0.00  0.00    +0.000 C 
ATOM     14  C   UNL     1       2.160   6.814  19.765  0.00  0.00    +0.000 C 
ENDROOT
BRANCH   1  15
ATOM     15  C   UNL     1       0.405  10.283  20.434  0.00  0.00    +0.000 C 
BRANCH  15  17
ATOM     16  C   UNL     1      -0.733  11.863  19.111  0.00  0.00    +0.000 C 
ATOM     17  O   UNL     1      -0.765  10.557  19.676  0.00  0.00    +0.000 OA
ENDBRANCH  15  17
ENDBRANCH   1  15
BRANCH  12  18
ATOM     18  C   UNL     1       4.223   4.235  16.239  0.00  0.00    +0.000 C 
BRANCH  18  19
ATOM     19  C   UNL     1       5.464   3.295  15.977  0.00  0.00    +0.000 C 
BRANCH  19  20
ATOM     20  N   UNL     1       6.572   3.890  15.182  0.00  0.00    +0.000 NA
ATOM     21  C   UNL     1       6.233   3.996  13.759  0.00  0.00    +0.000 C 
ATOM     22  C   UNL     1       6.911   5.230  15.686  0.00  0.00    +0.000 C 
ENDBRANCH  19  20
ENDBRANCH  18  19
ENDBRANCH  12  18
TORSDOF 5
ENDMDL
MODEL 2
REMARK VINA RESULT:      -5.4      3.649      9.788
REMARK  Name = 
REMARK  8 active torsions:
REMARK  status: ('A' for Active; 'I' for Inactive)
REMARK    1  A    between atoms: C_1  and  O_2
REMARK    2  A    between atoms: O_2  and  C_3
REMARK    3  A    between atoms: C_3  and  C_4
REMARK    4  A    between atoms: N_15  and  C_16
REMARK    5  A    between atoms: C_16  and  C_17
REMARK    6  A    between atoms: C_17  and  N_18
REMARK    7  A    between atoms: N_18  and  C_19
REMARK    8  A    between atoms: N_18  and  C_20
REMARK                            x       y       z     vdW  Elec       q    Type
REMARK                         _______ _______ _______ _____ _____    ______ ____
ROOT
ATOM      1  C   UNL     1       2.216   8.125  18.377  0.00  0.00    +0.000 C 
ATOM      2  O   UNL     1       2.416   8.680  17.293  0.00  0.00    +0.000 OA
ATOM      3  N   UNL     1       1.498   8.743  19.429  0.00  0.00    +0.000 N 
ATOM      4  C   UNL     1       1.502   8.116  20.711  0.00  0.00    +0.000 C 
ATOM      5  C   UNL     1       0.833   8.809  21.851  0.00  0.00    +0.000 C 
ATOM      6  C   UNL     1       0.204  10.182  21.756  0.00  0.00    +0.000 C 
ATOM      7  C   UNL     1       0.296  10.969  20.445  0.00  0.00    +0.000 C 
ATOM      8  C   UNL     1       1.175  12.241  20.678  0.00  0.00    +0.000 C 
ATOM      9  O   UNL     1       0.529  13.401  21.224  0.00  0.00    +0.000 OA
ATOM     10  C   UNL     1      -0.243  14.103  20.247  0.00  0.00    +0.000 C 
ATOM     11  C   UNL     1      -1.729  13.723  20.296  0.00  0.00    +0.000 C 
ATOM     12  N   UNL     1      -2.033  12.367  20.769  0.00  0.00    +0.000 NA
ATOM     13  C   UNL     1      -1.194  11.361  20.046  0.00  0.00    +0.000 C 
ATOM     14  C   UNL     1       1.009  10.145  19.265  0.00  0.00    +0.000 C 
ENDROOT
BRANCH   1  15
ATOM     15  C   UNL     1       2.803   6.689  18.633  0.00  0.00    +0.000 C 
BRANCH  15  17
ATOM     16  C   UNL     1       3.149   4.461  17.956  0.00  0.00    +0.000 C 
ATOM     17  O   UNL     1       2.331   5.618  17.827  0.00  0.00    +0.000 OA
ENDBRANCH  15  17
ENDBRANCH   1  15
BRANCH  12  18
ATOM     18  C   UNL     1      -2.117  12.294  22.256  0.00  0.00    +0.000 C 
BRANCH  18  19
ATOM     19  C   UNL     1      -3.241  13.170  22.935  0.00  0.00    +0.000 C 
BRANCH  19  20
ATOM     20  N   UNL     1      -4.465  12.439  23.360  0.00  0.00    +0.000 NA
ATOM     21  C   UNL     1      -4.580  12.362  24.820  0.00  0.00    +0.000 C 
ATOM     22  C   UNL     1      -5.670  13.093  22.827  0.00  0.00    +0.000 C 
ENDBRANCH  19  20
ENDBRANCH  18  19
ENDBRANCH  12  18
TORSDOF 5
ENDMDL
MODEL 3
REMARK VINA RESULT:      -5.4      2.580      6.954
REMARK  Name = 
REMARK  8 active torsions:
REMARK  status: ('A' for Active; 'I' for Inactive)
REMARK    1  A    between atoms: C_1  and  O_2
REMARK    2  A    between atoms: O_2  and  C_3
REMARK    3  A    between atoms: C_3  and  C_4
REMARK    4  A    between atoms: N_15  and  C_16
REMARK    5  A    between atoms: C_16  and  C_17
REMARK    6  A    between atoms: C_17  and  N_18
REMARK    7  A    between atoms: N_18  and  C_19
REMARK    8  A    between atoms: N_18  and  C_20
REMARK                            x       y       z     vdW  Elec       q    Type
REMARK                         _______ _______ _______ _____ _____    ______ ____
ROOT
ATOM      1  C   UNL     1       6.283   4.837  15.851  0.00  0.00    +0.000 C 
ATOM      2  O   UNL     1       6.625   3.652  15.886  0.00  0.00    +0.000 OA
ATOM      3  N   UNL     1       5.216   5.345  16.630  0.00  0.00    +0.000 N 
ATOM      4  C   UNL     1       4.756   6.670  16.366  0.00  0.00    +0.000 C 
ATOM      5  C   UNL     1       3.568   7.179  17.110  0.00  0.00    +0.000 C 
ATOM      6  C   UNL     1       2.764   6.353  18.090  0.00  0.00    +0.000 C 
ATOM      7  C   UNL     1       3.118   4.878  18.307  0.00  0.00    +0.000 C 
ATOM      8  C   UNL     1       1.940   3.991  17.786  0.00  0.00    +0.000 C 
ATOM      9  O   UNL     1       0.838   3.765  18.678  0.00  0.00    +0.000 OA
ATOM     10  C   UNL     1       1.141   2.790  19.678  0.00  0.00    +0.000 C 
ATOM     11  C   UNL     1       1.583   3.430  21.000  0.00  0.00    +0.000 C 
ATOM     12  N   UNL     1       2.243   4.737  20.896  0.00  0.00    +0.000 NA
ATOM     13  C   UNL     1       3.335   4.690  19.873  0.00  0.00    +0.000 C 
ATOM     14  C   UNL     1       4.420   4.416  17.487  0.00  0.00    +0.000 C 
ENDROOT
BRANCH   1  15
ATOM     15  C   UNL     1       7.025   5.830  14.884  0.00  0.00    +0.000 C 
BRANCH  15  17
ATOM     16  C   UNL     1       7.741   5.156  12.745  0.00  0.00    +0.000 C 
ATOM     17  O   UNL     1       8.106   5.330  14.110  0.00  0.00    +0.000 OA
ENDBRANCH  15  17
ENDBRANCH   1  15
BRANCH  12  18
ATOM     18  C   UNL     1       1.266   5.861  20.849  0.00  0.00    +0.000 C 
BRANCH  18  19
ATOM     19  C   UNL     1       1.872   7.316  20.918  0.00  0.00    +0.000 C 
BRANCH  19  20
ATOM     20  N   UNL     1       0.889   8.423  21.065  0.00  0.00    +0.000 NA
ATOM     21  C   UNL     1       1.083   9.170  22.312  0.00  0.00    +0.000 C 
ATOM     22  C   UNL     1       0.990   9.359  19.935  0.00  0.00    +0.000 C 
ENDBRANCH  19  20
ENDBRANCH  18  19
ENDBRANCH  12  18
TORSDOF 5
ENDMDL
MODEL 4
REMARK VINA RESULT:      -5.3      1.016      1.075
REMARK  Name = 
REMARK  8 active torsions:
REMARK  status: ('A' for Active; 'I' for Inactive)
REMARK    1  A    between atoms: C_1  and  O_2
REMARK    2  A    between atoms: O_2  and  C_3
REMARK    3  A    between atoms: C_3  and  C_4
REMARK    4  A    between atoms: N_15  and  C_16
REMARK    5  A    between atoms: C_16  and  C_17
REMARK    6  A    between atoms: C_17  and  N_18
REMARK    7  A    between atoms: N_18  and  C_19
REMARK    8  A    between atoms: N_18  and  C_20
REMARK                            x       y       z     vdW  Elec       q    Type
REMARK                         _______ _______ _______ _____ _____    ______ ____
ROOT
ATOM      1  C   UNL     1       0.806   8.940  20.926  0.00  0.00    +0.000 C 
ATOM      2  O   UNL     1       0.593   8.399  22.014  0.00  0.00    +0.000 OA
ATOM      3  N   UNL     1       1.482   8.285  19.868  0.00  0.00    +0.000 N 
ATOM      4  C   UNL     1       1.868   9.057  18.732  0.00  0.00    +0.000 C 
ATOM      5  C   UNL     1       2.668   8.401  17.657  0.00  0.00    +0.000 C 
ATOM      6  C   UNL     1       3.164   6.972  17.723  0.00  0.00    +0.000 C 
ATOM      7  C   UNL     1       2.907   6.137  18.981  0.00  0.00    +0.000 C 
ATOM      8  C   UNL     1       4.275   5.824  19.670  0.00  0.00    +0.000 C 
ATOM      9  O   UNL     1       5.018   4.697  19.184  0.00  0.00    +0.000 OA
ATOM     10  C   UNL     1       4.488   3.454  19.652  0.00  0.00    +0.000 C 
ATOM     11  C   UNL     1       3.554   2.797  18.627  0.00  0.00    +0.000 C 
ATOM     12  N   UNL     1       2.843   3.709  17.723  0.00  0.00    +0.000 NA
ATOM     13  C   UNL     1       2.183   4.804  18.500  0.00  0.00    +0.000 C 
ATOM     14  C   UNL     1       2.021   6.909  20.078  0.00  0.00    +0.000 C 
ENDROOT
BRANCH   1  15
ATOM     15  C   UNL     1       0.347  10.426  20.696  0.00  0.00    +0.000 C 
BRANCH  15  17
ATOM     16  C   UNL     1      -0.385  12.261  21.978  0.00  0.00    +0.000 C 
ATOM     17  O   UNL     1       0.703  11.396  21.672  0.00  0.00    +0.000 OA
ENDBRANCH  15  17
ENDBRANCH   1  15
BRANCH  12  18
ATOM     18  C   UNL     1       3.659   4.069  16.529  0.00  0.00    +0.000 C 
BRANCH  18  19
ATOM     19  C   UNL     1       5.096   3.421  16.445  0.00  0.00    +0.000 C 
BRANCH  19  20
ATOM     20  N   UNL     1       6.128   4.222  15.733  0.00  0.00    +0.000 NA
ATOM     21  C   UNL     1       5.584   5.479  15.209  0.00  0.00    +0.000 C 
ATOM     22  C   UNL     1       7.251   4.534  16.630  0.00  0.00    +0.000 C 
ENDBRANCH  19  20
ENDBRANCH  18  19
ENDBRANCH  12  18
TORSDOF 5
ENDMDL
MODEL 5
REMARK VINA RESULT:      -5.1      2.954      8.250
REMARK  Name = 
REMARK  8 active torsions:
REMARK  status: ('A' for Active; 'I' for Inactive)
REMARK    1  A    between atoms: C_1  and  O_2
REMARK    2  A    between atoms: O_2  and  C_3
REMARK    3  A    between atoms: C_3  and  C_4
REMARK    4  A    between atoms: N_15  and  C_16
REMARK    5  A    between atoms: C_16  and  C_17
REMARK    6  A    between atoms: C_17  and  N_18
REMARK    7  A    between atoms: N_18  and  C_19
REMARK    8  A    between atoms: N_18  and  C_20
REMARK                            x       y       z     vdW  Elec       q    Type
REMARK                         _______ _______ _______ _____ _____    ______ ____
ROOT
ATOM      1  C   UNL     1       2.189   6.392  19.829  0.00  0.00    +0.000 C 
ATOM      2  O   UNL     1       1.702   5.901  20.850  0.00  0.00    +0.000 OA
ATOM      3  N   UNL     1       2.010   7.752  19.478  0.00  0.00    +0.000 N 
ATOM      4  C   UNL     1       2.425   8.177  18.180  0.00  0.00    +0.000 C 
ATOM      5  C   UNL     1       2.149   9.582  17.762  0.00  0.00    +0.000 C 
ATOM      6  C   UNL     1       1.388  10.583  18.605  0.00  0.00    +0.000 C 
ATOM      7  C   UNL     1       0.789  10.145  19.945  0.00  0.00    +0.000 C 
ATOM      8  C   UNL     1      -0.770  10.209  19.849  0.00  0.00    +0.000 C 
ATOM      9  O   UNL     1      -1.396  11.479  20.087  0.00  0.00    +0.000 OA
ATOM     10  C   UNL     1      -1.460  11.800  21.478  0.00  0.00    +0.000 C 
ATOM     11  C   UNL     1      -0.309  12.715  21.917  0.00  0.00    +0.000 C 
ATOM     12  N   UNL     1       0.939  12.594  21.156  0.00  0.00    +0.000 NA
ATOM     13  C   UNL     1       1.343  11.157  21.041  0.00  0.00    +0.000 C 
ATOM     14  C   UNL     1       1.150   8.627  20.330  0.00  0.00    +0.000 C 
ENDROOT
BRANCH   1  15
ATOM     15  C   UNL     1       3.014   5.483  18.847  0.00  0.00    +0.000 C 
BRANCH  15  17
ATOM     16  C   UNL     1       3.167   3.732  17.281  0.00  0.00    +0.000 C 
ATOM     17  O   UNL     1       2.300   4.633  17.960  0.00  0.00    +0.000 OA
ENDBRANCH  15  17
ENDBRANCH   1  15
BRANCH  12  18
ATOM     18  C   UNL     1       0.934  13.437  19.926  0.00  0.00    +0.000 C 
BRANCH  18  19
ATOM     19  C   UNL     1       2.325  14.042  19.491  0.00  0.00    +0.000 C 
BRANCH  19  20
ATOM     20  N   UNL     1       2.312  15.475  19.091  0.00  0.00    +0.000 NA
ATOM     21  C   UNL     1       3.099  15.714  17.876  0.00  0.00    +0.000 C 
ATOM     22  C   UNL     1       0.936  15.936  18.858  0.00  0.00    +0.000 C 
ENDBRANCH  19  20
ENDBRANCH  18  19
ENDBRANCH  12  18
TORSDOF 5
ENDMDL
MODEL 6
REMARK VINA RESULT:      -5.1      2.899      8.233
REMARK  Name = 
REMARK  8 active torsions:
REMARK  status: ('A' for Active; 'I' for Inactive)
REMARK    1  A    between atoms: C_1  and  O_2
REMARK    2  A    between atoms: O_2  and  C_3
REMARK    3  A    between atoms: C_3  and  C_4
REMARK    4  A    between atoms: N_15  and  C_16
REMARK    5  A    between atoms: C_16  and  C_17
REMARK    6  A    between atoms: C_17  and  N_18
REMARK    7  A    between atoms: N_18  and  C_19
REMARK    8  A    between atoms: N_18  and  C_20
REMARK                            x       y       z     vdW  Elec       q    Type
REMARK                         _______ _______ _______ _____ _____    ______ ____
ROOT
ATOM      1  C   UNL     1       2.236   6.458  19.904  0.00  0.00    +0.000 C 
ATOM      2  O   UNL     1       1.766   5.967  20.934  0.00  0.00    +0.000 OA
ATOM      3  N   UNL     1       2.022   7.808  19.536  0.00  0.00    +0.000 N 
ATOM      4  C   UNL     1       2.421   8.226  18.232  0.00  0.00    +0.000 C 
ATOM      5  C   UNL     1       2.110   9.619  17.798  0.00  0.00    +0.000 C 
ATOM      6  C   UNL     1       1.327  10.611  18.631  0.00  0.00    +0.000 C 
ATOM      7  C   UNL     1       0.745  10.176  19.979  0.00  0.00    +0.000 C 
ATOM      8  C   UNL     1      -0.816  10.200  19.889  0.00  0.00    +0.000 C 
ATOM      9  O   UNL     1      -1.472  11.457  20.113  0.00  0.00    +0.000 OA
ATOM     10  C   UNL     1      -1.538  11.795  21.500  0.00  0.00    +0.000 C 
ATOM     11  C   UNL     1      -0.409  12.743  21.923  0.00  0.00    +0.000 C 
ATOM     12  N   UNL     1       0.839  12.643  21.158  0.00  0.00    +0.000 NA
ATOM     13  C   UNL     1       1.278  11.216  21.060  0.00  0.00    +0.000 C 
ATOM     14  C   UNL     1       1.144   8.673  20.381  0.00  0.00    +0.000 C 
ENDROOT
BRANCH   1  15
ATOM     15  C   UNL     1       3.080   5.557  18.930  0.00  0.00    +0.000 C 
BRANCH  15  17
ATOM     16  C   UNL     1       5.409   5.226  19.015  0.00  0.00    +0.000 C 
ATOM     17  O   UNL     1       4.138   4.785  19.480  0.00  0.00    +0.000 OA
ENDBRANCH  15  17
ENDBRANCH   1  15
BRANCH  12  18
ATOM     18  C   UNL     1       0.808  13.470  19.918  0.00  0.00    +0.000 C 
BRANCH  18  19
ATOM     19  C   UNL     1       1.484  14.893  20.012  0.00  0.00    +0.000 C 
BRANCH  19  20
ATOM     20  N   UNL     1       2.440  15.231  18.924  0.00  0.00    +0.000 NA
ATOM     21  C   UNL     1       3.587  16.000  19.418  0.00  0.00    +0.000 C 
ATOM     22  C   UNL     1       2.938  14.010  18.273  0.00  0.00    +0.000 C 
ENDBRANCH  19  20
ENDBRANCH  18  19
ENDBRANCH  12  18
TORSDOF 5
ENDMDL
MODEL 7
REMARK VINA RESULT:      -5.1      2.962      9.233
REMARK  Name = 
REMARK  8 active torsions:
REMARK  status: ('A' for Active; 'I' for Inactive)
REMARK    1  A    between atoms: C_1  and  O_2
REMARK    2  A    between atoms: O_2  and  C_3
REMARK    3  A    between atoms: C_3  and  C_4
REMARK    4  A    between atoms: N_15  and  C_16
REMARK    5  A    between atoms: C_16  and  C_17
REMARK    6  A    between atoms: C_17  and  N_18
REMARK    7  A    between atoms: N_18  and  C_19
REMARK    8  A    between atoms: N_18  and  C_20
REMARK                            x       y       z     vdW  Elec       q    Type
REMARK                         _______ _______ _______ _____ _____    ______ ____
ROOT
ATOM      1  C   UNL     1       2.779   7.039  18.783  0.00  0.00    +0.000 C 
ATOM      2  O   UNL     1       3.237   7.287  17.664  0.00  0.00    +0.000 OA
ATOM      3  N   UNL     1       1.895   7.917  19.456  0.00  0.00    +0.000 N 
ATOM      4  C   UNL     1       1.589   7.652  20.824  0.00  0.00    +0.000 C 
ATOM      5  C   UNL     1       0.739   8.625  21.571  0.00  0.00    +0.000 C 
ATOM      6  C   UNL     1       0.230   9.926  20.990  0.00  0.00    +0.000 C 
ATOM      7  C   UNL     1       0.646  10.338  19.574  0.00  0.00    +0.000 C 
ATOM      8  C   UNL     1       1.534  11.622  19.659  0.00  0.00    +0.000 C 
ATOM      9  O   UNL     1       0.861  12.888  19.733  0.00  0.00    +0.000 OA
ATOM     10  C   UNL     1       0.357  13.309  18.463  0.00  0.00    +0.000 C 
ATOM     11  C   UNL     1      -1.126  12.963  18.280  0.00  0.00    +0.000 C 
ATOM     12  N   UNL     1      -1.607  11.782  19.007  0.00  0.00    +0.000 NA
ATOM     13  C   UNL     1      -0.699  10.617  18.770  0.00  0.00    +0.000 C 
ATOM     14  C   UNL     1       1.540   9.228  18.833  0.00  0.00    +0.000 C 
ENDROOT
BRANCH   1  15
ATOM     15  C   UNL     1       3.208   5.720  19.522  0.00  0.00    +0.000 C 
BRANCH  15  17
ATOM     16  C   UNL     1       4.938   4.289  18.816  0.00  0.00    +0.000 C 
ATOM     17  O   UNL     1       4.594   5.420  19.608  0.00  0.00    +0.000 OA
ENDBRANCH  15  17
ENDBRANCH   1  15
BRANCH  12  18
ATOM     18  C   UNL     1      -2.007  12.106  20.406  0.00  0.00    +0.000 C 
BRANCH  18  19
ATOM     19  C   UNL     1      -3.196  13.130  20.572  0.00  0.00    +0.000 C 
BRANCH  19  20
ATOM     20  N   UNL     1      -4.373  12.639  21.338  0.00  0.00    +0.000 NA
ATOM     21  C   UNL     1      -4.251  12.919  22.773  0.00  0.00    +0.000 C 
ATOM     22  C   UNL     1      -5.611  13.259  20.842  0.00  0.00    +0.000 C 
ENDBRANCH  19  20
ENDBRANCH  18  19
ENDBRANCH  12  18
TORSDOF 5
ENDMDL
MODEL 8
REMARK VINA RESULT:      -5.1      3.063      8.089
REMARK  Name = 
REMARK  8 active torsions:
REMARK  status: ('A' for Active; 'I' for Inactive)
REMARK    1  A    between atoms: C_1  and  O_2
REMARK    2  A    between atoms: O_2  and  C_3
REMARK    3  A    between atoms: C_3  and  C_4
REMARK    4  A    between atoms: N_15  and  C_16
REMARK    5  A    between atoms: C_16  and  C_17
REMARK    6  A    between atoms: C_17  and  N_18
REMARK    7  A    between atoms: N_18  and  C_19
REMARK    8  A    between atoms: N_18  and  C_20
REMARK                            x       y       z     vdW  Elec       q    Type
REMARK                         _______ _______ _______ _____ _____    ______ ____
ROOT
ATOM      1  C   UNL     1       2.179   6.613  19.753  0.00  0.00    +0.000 C 
ATOM      2  O   UNL     1       1.707   6.066  20.754  0.00  0.00    +0.000 OA
ATOM      3  N   UNL     1       1.965   7.981  19.460  0.00  0.00    +0.000 N 
ATOM      4  C   UNL     1       2.367   8.470  18.181  0.00  0.00    +0.000 C 
ATOM      5  C   UNL     1       2.056   9.885  17.824  0.00  0.00    +0.000 C 
ATOM      6  C   UNL     1       1.271  10.830  18.708  0.00  0.00    +0.000 C 
ATOM      7  C   UNL     1       0.686  10.321  20.030  0.00  0.00    +0.000 C 
ATOM      8  C   UNL     1      -0.875  10.349  19.938  0.00  0.00    +0.000 C 
ATOM      9  O   UNL     1      -1.532  11.592  20.229  0.00  0.00    +0.000 OA
ATOM     10  C   UNL     1      -1.601  11.853  21.633  0.00  0.00    +0.000 C 
ATOM     11  C   UNL     1      -0.472  12.777  22.110  0.00  0.00    +0.000 C 
ATOM     12  N   UNL     1       0.777  12.719  21.342  0.00  0.00    +0.000 NA
ATOM     13  C   UNL     1       1.217  11.300  21.167  0.00  0.00    +0.000 C 
ATOM     14  C   UNL     1       1.086   8.798  20.350  0.00  0.00    +0.000 C 
ENDROOT
BRANCH   1  15
ATOM     15  C   UNL     1       3.025   5.767  18.734  0.00  0.00    +0.000 C 
BRANCH  15  17
ATOM     16  C   UNL     1       2.265   3.596  18.229  0.00  0.00    +0.000 C 
ATOM     17  O   UNL     1       2.330   4.952  17.800  0.00  0.00    +0.000 OA
ENDBRANCH  15  17
ENDBRANCH   1  15
BRANCH  12  18
ATOM     18  C   UNL     1       0.748  13.613  20.150  0.00  0.00    +0.000 C 
BRANCH  18  19
ATOM     19  C   UNL     1       1.883  14.707  20.071  0.00  0.00    +0.000 C 
BRANCH  19  20
ATOM     20  N   UNL     1       3.244  14.207  19.736  0.00  0.00    +0.000 NA
ATOM     21  C   UNL     1       3.407  13.977  18.297  0.00  0.00    +0.000 C 
ATOM     22  C   UNL     1       4.271  15.163  20.179  0.00  0.00    +0.000 C 
ENDBRANCH  19  20
ENDBRANCH  18  19
ENDBRANCH  12  18
TORSDOF 5
ENDMDL
MODEL 9
REMARK VINA RESULT:      -5.1      3.515      9.677
REMARK  Name = 
REMARK  8 active torsions:
REMARK  status: ('A' for Active; 'I' for Inactive)
REMARK    1  A    between atoms: C_1  and  O_2
REMARK    2  A    between atoms: O_2  and  C_3
REMARK    3  A    between atoms: C_3  and  C_4
REMARK    4  A    between atoms: N_15  and  C_16
REMARK    5  A    between atoms: C_16  and  C_17
REMARK    6  A    between atoms: C_17  and  N_18
REMARK    7  A    between atoms: N_18  and  C_19
REMARK    8  A    between atoms: N_18  and  C_20
REMARK                            x       y       z     vdW  Elec       q    Type
REMARK                         _______ _______ _______ _____ _____    ______ ____
ROOT
ATOM      1  C   UNL     1       2.290   8.026  18.362  0.00  0.00    +0.000 C 
ATOM      2  O   UNL     1       2.538   8.559  17.277  0.00  0.00    +0.000 OA
ATOM      3  N   UNL     1       1.557   8.680  19.382  0.00  0.00    +0.000 N 
ATOM      4  C   UNL     1       1.504   8.073  20.672  0.00  0.00    +0.000 C 
ATOM      5  C   UNL     1       0.820   8.801  21.780  0.00  0.00    +0.000 C 
ATOM      6  C   UNL     1       0.232  10.189  21.646  0.00  0.00    +0.000 C 
ATOM      7  C   UNL     1       0.387  10.953  20.327  0.00  0.00    +0.000 C 
ATOM      8  C   UNL     1       1.294  12.204  20.569  0.00  0.00    +0.000 C 
ATOM      9  O   UNL     1       0.664  13.389  21.079  0.00  0.00    +0.000 OA
ATOM     10  C   UNL     1      -0.058  14.097  20.067  0.00  0.00    +0.000 C 
ATOM     11  C   UNL     1      -1.554  13.759  20.076  0.00  0.00    +0.000 C 
ATOM     12  N   UNL     1      -1.911  12.420  20.559  0.00  0.00    +0.000 NA
ATOM     13  C   UNL     1      -1.079  11.380  19.876  0.00  0.00    +0.000 C 
ATOM     14  C   UNL     1       1.113  10.092  19.182  0.00  0.00    +0.000 C 
ENDROOT
BRANCH   1  15
ATOM     15  C   UNL     1       2.828   6.579  18.657  0.00  0.00    +0.000 C 
BRANCH  15  17
ATOM     16  C   UNL     1       4.839   5.427  19.072  0.00  0.00    +0.000 C 
ATOM     17  O   UNL     1       4.105   6.221  18.147  0.00  0.00    +0.000 OA
ENDBRANCH  15  17
ENDBRANCH   1  15
BRANCH  12  18
ATOM     18  C   UNL     1      -2.043  12.372  22.043  0.00  0.00    +0.000 C 
BRANCH  18  19
ATOM     19  C   UNL     1      -3.151  13.301  22.675  0.00  0.00    +0.000 C 
BRANCH  19  20
ATOM     20  N   UNL     1      -2.654  14.428  23.509  0.00  0.00    +0.000 NA
ATOM     21  C   UNL     1      -3.349  14.506  24.798  0.00  0.00    +0.000 C 
ATOM     22  C   UNL     1      -1.212  14.291  23.760  0.00  0.00    +0.000 C 
ENDBRANCH  19  20
ENDBRANCH  18  19
ENDBRANCH  12  18
TORSDOF 5
ENDMDL
