MODEL 1
REMARK VINA RESULT:      -8.4      0.000      0.000
REMARK  Name = 
REMARK  9 active torsions:
REMARK  status: ('A' for Active; 'I' for Inactive)
REMARK    1  A    between atoms: O_1  and  C_2
REMARK    2  A    between atoms: C_2  and  C_3
REMARK    3  A    between atoms: C_2  and  C_14
REMARK    4  A    between atoms: C_3  and  O_4
REMARK    5  A    between atoms: O_4  and  C_5
REMARK    6  A    between atoms: C_14  and  N_15
REMARK    7  A    between atoms: N_18  and  C_19
REMARK    8  A    between atoms: C_19  and  C_20
REMARK    9  A    between atoms: C_19  and  C_26
REMARK                            x       y       z     vdW  Elec       q    Type
REMARK                         _______ _______ _______ _____ _____    ______ ____
ROOT
ATOM      1  N   UNL     1       3.517   4.093  19.252  0.00  0.00    +0.000 NA
ATOM      2  C   UNL     1       3.923   3.019  18.326  0.00  0.00    +0.000 C 
ATOM      3  C   UNL     1       3.712   3.383  16.839  0.00  0.00    +0.000 C 
ATOM      4  N   UNL     1       4.408   4.634  16.429  0.00  0.00    +0.000 NA
ATOM      5  C   UNL     1       3.953   5.697  17.355  0.00  0.00    +0.000 C 
ATOM      6  C   UNL     1       4.141   5.367  18.849  0.00  0.00    +0.000 C 
ENDROOT
BRANCH   1   7
ATOM      7  C   UNL     1       2.051   4.231  19.323  0.00  0.00    +0.000 C 
BRANCH   7   8
ATOM      8  C   UNL     1       1.554   4.641  20.720  0.00  0.00    +0.000 C 
BRANCH   8   9
ATOM      9  O   UNL     1       2.666   4.736  21.618  0.00  0.00    +0.000 OA
ATOM     10  H   UNL     1       2.285   4.827  22.509  0.00  0.00    +0.000 HD
ENDBRANCH   8   9
BRANCH   8  11
ATOM     11  C   UNL     1       0.867   5.989  20.621  0.00  0.00    +0.000 C 
BRANCH  11  12
ATOM     12  O   UNL     1       1.864   7.005  20.776  0.00  0.00    +0.000 OA
BRANCH  12  13
ATOM     13  C   UNL     1       1.562   8.161  20.099  0.00  0.00    +0.000 A 
ATOM     14  C   UNL     1       1.941   8.371  18.759  0.00  0.00    +0.000 A 
ATOM     15  C   UNL     1       1.619   9.551  18.103  0.00  0.00    +0.000 A 
ATOM     16  C   UNL     1       0.933  10.567  18.754  0.00  0.00    +0.000 A 
ATOM     17  C   UNL     1       0.574  10.361  20.092  0.00  0.00    +0.000 A 
ATOM     18  N   UNL     1      -0.096  11.184  20.965  0.00  0.00    +0.000 N 
ATOM     19  C   UNL     1      -0.240  10.575  22.183  0.00  0.00    +0.000 A 
ATOM     20  C   UNL     1       0.358   9.337  22.098  0.00  0.00    +0.000 A 
ATOM     21  C   UNL     1       0.876   9.185  20.780  0.00  0.00    +0.000 A 
ATOM     22  H   UNL     1      -0.439  12.111  20.732  0.00  0.00    +0.000 HD
ENDBRANCH  12  13
ENDBRANCH  11  12
ENDBRANCH   8  11
ENDBRANCH   7   8
ENDBRANCH   1   7
BRANCH   4  23
ATOM     23  C   UNL     1       5.899   4.444  16.432  0.00  0.00    +0.000 C 
BRANCH  23  24
ATOM     24  C   UNL     1       6.411   4.306  14.987  0.00  0.00    +0.000 A 
ATOM     25  C   UNL     1       7.486   5.087  14.531  0.00  0.00    +0.000 A 
ATOM     26  C   UNL     1       7.810   5.134  13.174  0.00  0.00    +0.000 A 
ATOM     27  C   UNL     1       7.067   4.397  12.254  0.00  0.00    +0.000 A 
ATOM     28  C   UNL     1       6.026   3.581  12.694  0.00  0.00    +0.000 A 
ATOM     29  C   UNL     1       5.705   3.526  14.053  0.00  0.00    +0.000 A 
ENDBRANCH  23  24
BRANCH  23  30
ATOM     30  C   UNL     1       6.686   5.519  17.197  0.00  0.00    +0.000 A 
ATOM     31  C   UNL     1       7.402   5.169  18.358  0.00  0.00    +0.000 A 
ATOM     32  C   UNL     1       8.174   6.116  19.036  0.00  0.00    +0.000 A 
ATOM     33  C   UNL     1       8.237   7.427  18.571  0.00  0.00    +0.000 A 
ATOM     34  C   UNL     1       7.511   7.799  17.443  0.00  0.00    +0.000 A 
ATOM     35  C   UNL     1       6.747   6.852  16.760  0.00  0.00    +0.000 A 
ENDBRANCH  23  30
ENDBRANCH   4  23
TORSDOF 9
ENDMDL
MODEL 2
REMARK VINA RESULT:      -8.3      0.642      1.628
REMARK  Name = 
REMARK  9 active torsions:
REMARK  status: ('A' for Active; 'I' for Inactive)
REMARK    1  A    between atoms: O_1  and  C_2
REMARK    2  A    between atoms: C_2  and  C_3
REMARK    3  A    between atoms: C_2  and  C_14
REMARK    4  A    between atoms: C_3  and  O_4
REMARK    5  A    between atoms: O_4  and  C_5
REMARK    6  A    between atoms: C_14  and  N_15
REMARK    7  A    between atoms: N_18  and  C_19
REMARK    8  A    between atoms: C_19  and  C_20
REMARK    9  A    between atoms: C_19  and  C_26
REMARK                            x       y       z     vdW  Elec       q    Type
REMARK                         _______ _______ _______ _____ _____    ______ ____
ROOT
ATOM      1  N   UNL     1       3.435   3.850  19.272  0.00  0.00    +0.000 NA
ATOM      2  C   UNL     1       3.843   2.859  18.258  0.00  0.00    +0.000 C 
ATOM      3  C   UNL     1       3.640   3.351  16.807  0.00  0.00    +0.000 C 
ATOM      4  N   UNL     1       4.341   4.632  16.510  0.00  0.00    +0.000 NA
ATOM      5  C   UNL     1       3.883   5.611  17.523  0.00  0.00    +0.000 C 
ATOM      6  C   UNL     1       4.065   5.152  18.983  0.00  0.00    +0.000 C 
ENDROOT
BRANCH   1   7
ATOM      7  C   UNL     1       1.970   3.985  19.349  0.00  0.00    +0.000 C 
BRANCH   7   8
ATOM      8  C   UNL     1       1.485   4.489  20.718  0.00  0.00    +0.000 C 
BRANCH   8   9
ATOM      9  O   UNL     1       2.600   4.611  21.610  0.00  0.00    +0.000 OA
ATOM     10  H   UNL     1       2.747   5.566  21.727  0.00  0.00    +0.000 HD
ENDBRANCH   8   9
BRANCH   8  11
ATOM     11  C   UNL     1       0.831   5.845  20.538  0.00  0.00    +0.000 C 
BRANCH  11  12
ATOM     12  O   UNL     1       1.765   6.846  20.959  0.00  0.00    +0.000 OA
BRANCH  12  13
ATOM     13  C   UNL     1       1.251   8.118  20.905  0.00  0.00    +0.000 A 
ATOM     14  C   UNL     1       0.555   8.697  21.983  0.00  0.00    +0.000 A 
ATOM     15  C   UNL     1       0.050   9.987  21.897  0.00  0.00    +0.000 A 
ATOM     16  C   UNL     1       0.196  10.735  20.738  0.00  0.00    +0.000 A 
ATOM     17  C   UNL     1       0.873  10.149  19.660  0.00  0.00    +0.000 A 
ATOM     18  N   UNL     1       1.156  10.652  18.413  0.00  0.00    +0.000 N 
ATOM     19  C   UNL     1       1.850   9.733  17.672  0.00  0.00    +0.000 A 
ATOM     20  C   UNL     1       2.010   8.609  18.453  0.00  0.00    +0.000 A 
ATOM     21  C   UNL     1       1.400   8.857  19.716  0.00  0.00    +0.000 A 
ATOM     22  H   UNL     1       0.890  11.578  18.093  0.00  0.00    +0.000 HD
ENDBRANCH  12  13
ENDBRANCH  11  12
ENDBRANCH   8  11
ENDBRANCH   7   8
ENDBRANCH   1   7
BRANCH   4  23
ATOM     23  C   UNL     1       5.831   4.438  16.503  0.00  0.00    +0.000 C 
BRANCH  23  24
ATOM     24  C   UNL     1       6.330   4.277  15.056  0.00  0.00    +0.000 A 
ATOM     25  C   UNL     1       7.430   5.018  14.591  0.00  0.00    +0.000 A 
ATOM     26  C   UNL     1       7.747   5.047  13.232  0.00  0.00    +0.000 A 
ATOM     27  C   UNL     1       6.973   4.334  12.319  0.00  0.00    +0.000 A 
ATOM     28  C   UNL     1       5.907   3.557  12.767  0.00  0.00    +0.000 A 
ATOM     29  C   UNL     1       5.591   3.518  14.129  0.00  0.00    +0.000 A 
ENDBRANCH  23  24
BRANCH  23  30
ATOM     30  C   UNL     1       6.627   5.523  17.244  0.00  0.00    +0.000 A 
ATOM     31  C   UNL     1       7.401   5.178  18.368  0.00  0.00    +0.000 A 
ATOM     32  C   UNL     1       8.181   6.136  19.022  0.00  0.00    +0.000 A 
ATOM     33  C   UNL     1       8.194   7.453  18.569  0.00  0.00    +0.000 A 
ATOM     34  C   UNL     1       7.412   7.819  17.478  0.00  0.00    +0.000 A 
ATOM     35  C   UNL     1       6.639   6.862  16.819  0.00  0.00    +0.000 A 
ENDBRANCH  23  30
ENDBRANCH   4  23
TORSDOF 9
ENDMDL
MODEL 3
REMARK VINA RESULT:      -8.2      0.645      1.134
REMARK  Name = 
REMARK  9 active torsions:
REMARK  status: ('A' for Active; 'I' for Inactive)
REMARK    1  A    between atoms: O_1  and  C_2
REMARK    2  A    between atoms: C_2  and  C_3
REMARK    3  A    between atoms: C_2  and  C_14
REMARK    4  A    between atoms: C_3  and  O_4
REMARK    5  A    between atoms: O_4  and  C_5
REMARK    6  A    between atoms: C_14  and  N_15
REMARK    7  A    between atoms: N_18  and  C_19
REMARK    8  A    between atoms: C_19  and  C_20
REMARK    9  A    between atoms: C_19  and  C_26
REMARK                            x       y       z     vdW  Elec       q    Type
REMARK                         _______ _______ _______ _____ _____    ______ ____
ROOT
ATOM      1  N   UNL     1       3.527   4.201  19.287  0.00  0.00    +0.000 NA
ATOM      2  C   UNL     1       3.855   3.111  18.349  0.00  0.00    +0.000 C 
ATOM      3  C   UNL     1       3.534   3.456  16.876  0.00  0.00    +0.000 C 
ATOM      4  N   UNL     1       4.206   4.696  16.397  0.00  0.00    +0.000 NA
ATOM      5  C   UNL     1       3.829   5.775  17.339  0.00  0.00    +0.000 C 
ATOM      6  C   UNL     1       4.128   5.464  18.819  0.00  0.00    +0.000 C 
ENDROOT
BRANCH   1   7
ATOM      7  C   UNL     1       2.073   4.351  19.467  0.00  0.00    +0.000 C 
BRANCH   7   8
ATOM      8  C   UNL     1       1.705   5.264  20.648  0.00  0.00    +0.000 C 
BRANCH   8   9
ATOM      9  O   UNL     1       2.534   4.953  21.774  0.00  0.00    +0.000 OA
ATOM     10  H   UNL     1       2.264   4.067  22.071  0.00  0.00    +0.000 HD
ENDBRANCH   8   9
BRANCH   8  11
ATOM     11  C   UNL     1       1.927   6.708  20.241  0.00  0.00    +0.000 C 
BRANCH  11  12
ATOM     12  O   UNL     1       1.315   7.545  21.228  0.00  0.00    +0.000 OA
BRANCH  12  13
ATOM     13  C   UNL     1       0.905   8.756  20.726  0.00  0.00    +0.000 A 
ATOM     14  C   UNL     1       1.244   9.190  19.431  0.00  0.00    +0.000 A 
ATOM     15  C   UNL     1       0.810  10.419  18.953  0.00  0.00    +0.000 A 
ATOM     16  C   UNL     1       0.049  11.266  19.746  0.00  0.00    +0.000 A 
ATOM     17  C   UNL     1      -0.271  10.838  21.042  0.00  0.00    +0.000 A 
ATOM     18  N   UNL     1      -0.996  11.464  22.026  0.00  0.00    +0.000 N 
ATOM     19  C   UNL     1      -1.069  10.676  23.143  0.00  0.00    +0.000 A 
ATOM     20  C   UNL     1      -0.366   9.520  22.878  0.00  0.00    +0.000 A 
ATOM     21  C   UNL     1       0.143   9.606  21.550  0.00  0.00    +0.000 A 
ATOM     22  H   UNL     1      -1.422  12.382  21.931  0.00  0.00    +0.000 HD
ENDBRANCH  12  13
ENDBRANCH  11  12
ENDBRANCH   8  11
ENDBRANCH   7   8
ENDBRANCH   1   7
BRANCH   4  23
ATOM     23  C   UNL     1       5.692   4.494  16.290  0.00  0.00    +0.000 C 
BRANCH  23  24
ATOM     24  C   UNL     1       6.115   4.506  14.810  0.00  0.00    +0.000 A 
ATOM     25  C   UNL     1       5.414   3.745  13.859  0.00  0.00    +0.000 A 
ATOM     26  C   UNL     1       5.919   3.572  12.570  0.00  0.00    +0.000 A 
ATOM     27  C   UNL     1       7.130   4.161  12.211  0.00  0.00    +0.000 A 
ATOM     28  C   UNL     1       7.816   4.957  13.126  0.00  0.00    +0.000 A 
ATOM     29  C   UNL     1       7.308   5.139  14.416  0.00  0.00    +0.000 A 
ENDBRANCH  23  24
BRANCH  23  30
ATOM     30  C   UNL     1       6.537   5.476  17.114  0.00  0.00    +0.000 A 
ATOM     31  C   UNL     1       7.229   5.020  18.253  0.00  0.00    +0.000 A 
ATOM     32  C   UNL     1       8.053   5.881  18.983  0.00  0.00    +0.000 A 
ATOM     33  C   UNL     1       8.194   7.210  18.593  0.00  0.00    +0.000 A 
ATOM     34  C   UNL     1       7.494   7.687  17.489  0.00  0.00    +0.000 A 
ATOM     35  C   UNL     1       6.678   6.827  16.754  0.00  0.00    +0.000 A 
ENDBRANCH  23  30
ENDBRANCH   4  23
TORSDOF 9
ENDMDL
MODEL 4
REMARK VINA RESULT:      -8.2      0.701      1.207
REMARK  Name = 
REMARK  9 active torsions:
REMARK  status: ('A' for Active; 'I' for Inactive)
REMARK    1  A    between atoms: O_1  and  C_2
REMARK    2  A    between atoms: C_2  and  C_3
REMARK    3  A    between atoms: C_2  and  C_14
REMARK    4  A    between atoms: C_3  and  O_4
REMARK    5  A    between atoms: O_4  and  C_5
REMARK    6  A    between atoms: C_14  and  N_15
REMARK    7  A    between atoms: N_18  and  C_19
REMARK    8  A    between atoms: C_19  and  C_20
REMARK    9  A    between atoms: C_19  and  C_26
REMARK                            x       y       z     vdW  Elec       q    Type
REMARK                         _______ _______ _______ _____ _____    ______ ____
ROOT
ATOM      1  N   UNL     1       3.582   4.442  19.128  0.00  0.00    +0.000 NA
ATOM      2  C   UNL     1       3.909   3.280  18.281  0.00  0.00    +0.000 C 
ATOM      3  C   UNL     1       3.714   3.551  16.771  0.00  0.00    +0.000 C 
ATOM      4  N   UNL     1       4.490   4.720  16.272  0.00  0.00    +0.000 NA
ATOM      5  C   UNL     1       4.112   5.874  17.121  0.00  0.00    +0.000 C 
ATOM      6  C   UNL     1       4.288   5.639  18.634  0.00  0.00    +0.000 C 
ENDROOT
BRANCH   1   7
ATOM      7  C   UNL     1       2.130   4.683  19.192  0.00  0.00    +0.000 C 
BRANCH   7   8
ATOM      8  C   UNL     1       1.713   5.515  20.417  0.00  0.00    +0.000 C 
BRANCH   8   9
ATOM      9  O   UNL     1       2.453   5.086  21.566  0.00  0.00    +0.000 OA
ATOM     10  H   UNL     1       2.254   5.728  22.269  0.00  0.00    +0.000 HD
ENDBRANCH   8   9
BRANCH   8  11
ATOM     11  C   UNL     1       2.009   6.977  20.142  0.00  0.00    +0.000 C 
BRANCH  11  12
ATOM     12  O   UNL     1       1.369   7.756  21.158  0.00  0.00    +0.000 OA
BRANCH  12  13
ATOM     13  C   UNL     1       0.848   8.935  20.684  0.00  0.00    +0.000 A 
ATOM     14  C   UNL     1       1.113   9.407  19.384  0.00  0.00    +0.000 A 
ATOM     15  C   UNL     1       0.568  10.603  18.935  0.00  0.00    +0.000 A 
ATOM     16  C   UNL     1      -0.235  11.377  19.760  0.00  0.00    +0.000 A 
ATOM     17  C   UNL     1      -0.481  10.912  21.058  0.00  0.00    +0.000 A 
ATOM     18  N   UNL     1      -1.225  11.467  22.071  0.00  0.00    +0.000 N 
ATOM     19  C   UNL     1      -1.201  10.664  23.179  0.00  0.00    +0.000 A 
ATOM     20  C   UNL     1      -0.417   9.572  22.880  0.00  0.00    +0.000 A 
ATOM     21  C   UNL     1       0.045   9.712  21.539  0.00  0.00    +0.000 A 
ATOM     22  H   UNL     1      -1.726  12.348  21.999  0.00  0.00    +0.000 HD
ENDBRANCH  12  13
ENDBRANCH  11  12
ENDBRANCH   8  11
ENDBRANCH   7   8
ENDBRANCH   1   7
BRANCH   4  23
ATOM     23  C   UNL     1       5.965   4.431  16.286  0.00  0.00    +0.000 C 
BRANCH  23  24
ATOM     24  C   UNL     1       6.487   4.313  14.844  0.00  0.00    +0.000 A 
ATOM     25  C   UNL     1       7.520   5.148  14.386  0.00  0.00    +0.000 A 
ATOM     26  C   UNL     1       7.845   5.205  13.029  0.00  0.00    +0.000 A 
ATOM     27  C   UNL     1       7.145   4.424  12.112  0.00  0.00    +0.000 A 
ATOM     28  C   UNL     1       6.149   3.556  12.553  0.00  0.00    +0.000 A 
ATOM     29  C   UNL     1       5.827   3.491  13.912  0.00  0.00    +0.000 A 
ENDBRANCH  23  24
BRANCH  23  30
ATOM     30  C   UNL     1       6.809   5.421  17.101  0.00  0.00    +0.000 A 
ATOM     31  C   UNL     1       6.920   6.760  16.679  0.00  0.00    +0.000 A 
ATOM     32  C   UNL     1       7.632   7.694  17.437  0.00  0.00    +0.000 A 
ATOM     33  C   UNL     1       8.250   7.305  18.622  0.00  0.00    +0.000 A 
ATOM     34  C   UNL     1       8.178   5.979  19.040  0.00  0.00    +0.000 A 
ATOM     35  C   UNL     1       7.460   5.048  18.289  0.00  0.00    +0.000 A 
ENDBRANCH  23  30
ENDBRANCH   4  23
TORSDOF 9
ENDMDL
MODEL 5
REMARK VINA RESULT:      -8.1      2.405      4.264
REMARK  Name = 
REMARK  9 active torsions:
REMARK  status: ('A' for Active; 'I' for Inactive)
REMARK    1  A    between atoms: O_1  and  C_2
REMARK    2  A    between atoms: C_2  and  C_3
REMARK    3  A    between atoms: C_2  and  C_14
REMARK    4  A    between atoms: C_3  and  O_4
REMARK    5  A    between atoms: O_4  and  C_5
REMARK    6  A    between atoms: C_14  and  N_15
REMARK    7  A    between atoms: N_18  and  C_19
REMARK    8  A    between atoms: C_19  and  C_20
REMARK    9  A    between atoms: C_19  and  C_26
REMARK                            x       y       z     vdW  Elec       q    Type
REMARK                         _______ _______ _______ _____ _____    ______ ____
ROOT
ATOM      1  N   UNL     1       1.627   7.715  19.126  0.00  0.00    +0.000 NA
ATOM      2  C   UNL     1       2.249   7.932  17.806  0.00  0.00    +0.000 C 
ATOM      3  C   UNL     1       3.778   7.704  17.807  0.00  0.00    +0.000 C 
ATOM      4  N   UNL     1       4.177   6.353  18.289  0.00  0.00    +0.000 NA
ATOM      5  C   UNL     1       3.566   6.182  19.627  0.00  0.00    +0.000 C 
ATOM      6  C   UNL     1       2.042   6.407  19.667  0.00  0.00    +0.000 C 
ENDROOT
BRANCH   1   7
ATOM      7  C   UNL     1       1.953   8.797  20.070  0.00  0.00    +0.000 C 
BRANCH   7   8
ATOM      8  C   UNL     1       1.058   8.793  21.321  0.00  0.00    +0.000 C 
BRANCH   8   9
ATOM      9  O   UNL     1       1.842   9.112  22.476  0.00  0.00    +0.000 OA
ATOM     10  H   UNL     1       2.772   9.028  22.201  0.00  0.00    +0.000 HD
ENDBRANCH   8   9
BRANCH   8  11
ATOM     11  C   UNL     1      -0.033   9.833  21.147  0.00  0.00    +0.000 C 
BRANCH  11  12
ATOM     12  O   UNL     1       0.255  10.581  19.961  0.00  0.00    +0.000 OA
BRANCH  12  13
ATOM     13  C   UNL     1      -0.826  10.694  19.121  0.00  0.00    +0.000 A 
ATOM     14  C   UNL     1      -0.909   9.997  17.901  0.00  0.00    +0.000 A 
ATOM     15  C   UNL     1      -2.017  10.132  17.076  0.00  0.00    +0.000 A 
ATOM     16  C   UNL     1      -3.065  10.974  17.419  0.00  0.00    +0.000 A 
ATOM     17  C   UNL     1      -2.971  11.680  18.626  0.00  0.00    +0.000 A 
ATOM     18  N   UNL     1      -3.845  12.569  19.202  0.00  0.00    +0.000 N 
ATOM     19  C   UNL     1      -3.353  13.019  20.398  0.00  0.00    +0.000 A 
ATOM     20  C   UNL     1      -2.130  12.416  20.594  0.00  0.00    +0.000 A 
ATOM     21  C   UNL     1      -1.874  11.562  19.482  0.00  0.00    +0.000 A 
ATOM     22  H   UNL     1      -4.734  12.845  18.796  0.00  0.00    +0.000 HD
ENDBRANCH  12  13
ENDBRANCH  11  12
ENDBRANCH   8  11
ENDBRANCH   7   8
ENDBRANCH   1   7
BRANCH   4  23
ATOM     23  C   UNL     1       3.766   5.290  17.309  0.00  0.00    +0.000 C 
BRANCH  23  24
ATOM     24  C   UNL     1       4.964   4.906  16.422  0.00  0.00    +0.000 A 
ATOM     25  C   UNL     1       6.273   5.246  16.801  0.00  0.00    +0.000 A 
ATOM     26  C   UNL     1       7.335   5.104  15.907  0.00  0.00    +0.000 A 
ATOM     27  C   UNL     1       7.104   4.615  14.622  0.00  0.00    +0.000 A 
ATOM     28  C   UNL     1       5.820   4.230  14.244  0.00  0.00    +0.000 A 
ATOM     29  C   UNL     1       4.756   4.363  15.141  0.00  0.00    +0.000 A 
ENDBRANCH  23  24
BRANCH  23  30
ATOM     30  C   UNL     1       3.123   4.046  17.938  0.00  0.00    +0.000 A 
ATOM     31  C   UNL     1       3.921   3.127  18.647  0.00  0.00    +0.000 A 
ATOM     32  C   UNL     1       3.349   2.020  19.280  0.00  0.00    +0.000 A 
ATOM     33  C   UNL     1       1.974   1.809  19.209  0.00  0.00    +0.000 A 
ATOM     34  C   UNL     1       1.173   2.689  18.488  0.00  0.00    +0.000 A 
ATOM     35  C   UNL     1       1.742   3.799  17.863  0.00  0.00    +0.000 A 
ENDBRANCH  23  30
ENDBRANCH   4  23
TORSDOF 9
ENDMDL
MODEL 6
REMARK VINA RESULT:      -8.0      0.787      2.053
REMARK  Name = 
REMARK  9 active torsions:
REMARK  status: ('A' for Active; 'I' for Inactive)
REMARK    1  A    between atoms: O_1  and  C_2
REMARK    2  A    between atoms: C_2  and  C_3
REMARK    3  A    between atoms: C_2  and  C_14
REMARK    4  A    between atoms: C_3  and  O_4
REMARK    5  A    between atoms: O_4  and  C_5
REMARK    6  A    between atoms: C_14  and  N_15
REMARK    7  A    between atoms: N_18  and  C_19
REMARK    8  A    between atoms: C_19  and  C_20
REMARK    9  A    between atoms: C_19  and  C_26
REMARK                            x       y       z     vdW  Elec       q    Type
REMARK                         _______ _______ _______ _____ _____    ______ ____
ROOT
ATOM      1  N   UNL     1       3.547   3.628  19.260  0.00  0.00    +0.000 NA
ATOM      2  C   UNL     1       3.818   2.766  18.095  0.00  0.00    +0.000 C 
ATOM      3  C   UNL     1       3.519   3.455  16.743  0.00  0.00    +0.000 C 
ATOM      4  N   UNL     1       4.258   4.735  16.553  0.00  0.00    +0.000 NA
ATOM      5  C   UNL     1       3.938   5.588  17.721  0.00  0.00    +0.000 C 
ATOM      6  C   UNL     1       4.217   4.931  19.088  0.00  0.00    +0.000 C 
ENDROOT
BRANCH   1   7
ATOM      7  C   UNL     1       2.103   3.810  19.485  0.00  0.00    +0.000 C 
BRANCH   7   8
ATOM      8  C   UNL     1       1.758   4.127  20.950  0.00  0.00    +0.000 C 
BRANCH   8   9
ATOM      9  O   UNL     1       2.517   3.277  21.819  0.00  0.00    +0.000 OA
ATOM     10  H   UNL     1       3.376   3.718  21.943  0.00  0.00    +0.000 HD
ENDBRANCH   8   9
BRANCH   8  11
ATOM     11  C   UNL     1       2.104   5.577  21.233  0.00  0.00    +0.000 C 
BRANCH  11  12
ATOM     12  O   UNL     1       1.613   6.368  20.145  0.00  0.00    +0.000 OA
BRANCH  12  13
ATOM     13  C   UNL     1       1.276   7.646  20.519  0.00  0.00    +0.000 A 
ATOM     14  C   UNL     1       0.745   7.944  21.788  0.00  0.00    +0.000 A 
ATOM     15  C   UNL     1       0.416   9.248  22.136  0.00  0.00    +0.000 A 
ATOM     16  C   UNL     1       0.581  10.291  21.236  0.00  0.00    +0.000 A 
ATOM     17  C   UNL     1       1.093   9.987  19.967  0.00  0.00    +0.000 A 
ATOM     18  N   UNL     1       1.352  10.808  18.897  0.00  0.00    +0.000 N 
ATOM     19  C   UNL     1       1.858  10.086  17.850  0.00  0.00    +0.000 A 
ATOM     20  C   UNL     1       1.918   8.769  18.248  0.00  0.00    +0.000 A 
ATOM     21  C   UNL     1       1.440   8.689  19.588  0.00  0.00    +0.000 A 
ATOM     22  H   UNL     1       1.193  11.812  18.891  0.00  0.00    +0.000 HD
ENDBRANCH  12  13
ENDBRANCH  11  12
ENDBRANCH   8  11
ENDBRANCH   7   8
ENDBRANCH   1   7
BRANCH   4  23
ATOM     23  C   UNL     1       5.731   4.484  16.388  0.00  0.00    +0.000 C 
BRANCH  23  24
ATOM     24  C   UNL     1       6.093   4.473  14.892  0.00  0.00    +0.000 A 
ATOM     25  C   UNL     1       5.355   3.698  13.982  0.00  0.00    +0.000 A 
ATOM     26  C   UNL     1       5.808   3.506  12.676  0.00  0.00    +0.000 A 
ATOM     27  C   UNL     1       7.002   4.090  12.259  0.00  0.00    +0.000 A 
ATOM     28  C   UNL     1       7.724   4.900  13.133  0.00  0.00    +0.000 A 
ATOM     29  C   UNL     1       7.268   5.102  14.439  0.00  0.00    +0.000 A 
ENDBRANCH  23  24
BRANCH  23  30
ATOM     30  C   UNL     1       6.640   5.443  17.170  0.00  0.00    +0.000 A 
ATOM     31  C   UNL     1       6.673   6.809  16.832  0.00  0.00    +0.000 A 
ATOM     32  C   UNL     1       7.447   7.711  17.568  0.00  0.00    +0.000 A 
ATOM     33  C   UNL     1       8.203   7.262  18.648  0.00  0.00    +0.000 A 
ATOM     34  C   UNL     1       8.207   5.910  18.978  0.00  0.00    +0.000 A 
ATOM     35  C   UNL     1       7.429   5.011  18.249  0.00  0.00    +0.000 A 
ENDBRANCH  23  30
ENDBRANCH   4  23
TORSDOF 9
ENDMDL
MODEL 7
REMARK VINA RESULT:      -8.0      3.314      5.086
REMARK  Name = 
REMARK  9 active torsions:
REMARK  status: ('A' for Active; 'I' for Inactive)
REMARK    1  A    between atoms: O_1  and  C_2
REMARK    2  A    between atoms: C_2  and  C_3
REMARK    3  A    between atoms: C_2  and  C_14
REMARK    4  A    between atoms: C_3  and  O_4
REMARK    5  A    between atoms: O_4  and  C_5
REMARK    6  A    between atoms: C_14  and  N_15
REMARK    7  A    between atoms: N_18  and  C_19
REMARK    8  A    between atoms: C_19  and  C_20
REMARK    9  A    between atoms: C_19  and  C_26
REMARK                            x       y       z     vdW  Elec       q    Type
REMARK                         _______ _______ _______ _____ _____    ______ ____
ROOT
ATOM      1  N   UNL     1       1.383   8.012  18.916  0.00  0.00    +0.000 NA
ATOM      2  C   UNL     1       2.182   8.122  17.681  0.00  0.00    +0.000 C 
ATOM      3  C   UNL     1       3.683   7.816  17.896  0.00  0.00    +0.000 C 
ATOM      4  N   UNL     1       3.935   6.474  18.492  0.00  0.00    +0.000 NA
ATOM      5  C   UNL     1       3.147   6.410  19.744  0.00  0.00    +0.000 C 
ATOM      6  C   UNL     1       1.646   6.717  19.570  0.00  0.00    +0.000 C 
ENDROOT
BRANCH   1   7
ATOM      7  C   UNL     1       1.647   9.127  19.842  0.00  0.00    +0.000 C 
BRANCH   7   8
ATOM      8  C   UNL     1       0.391   9.958  20.155  0.00  0.00    +0.000 C 
BRANCH   8   9
ATOM      9  O   UNL     1       0.755  11.107  20.930  0.00  0.00    +0.000 OA
ATOM     10  H   UNL     1       1.728  11.115  20.957  0.00  0.00    +0.000 HD
ENDBRANCH   8   9
BRANCH   8  11
ATOM     11  C   UNL     1      -0.238  10.407  18.850  0.00  0.00    +0.000 C 
BRANCH  11  12
ATOM     12  O   UNL     1      -1.642  10.580  19.074  0.00  0.00    +0.000 OA
BRANCH  12  13
ATOM     13  C   UNL     1      -2.378  10.557  17.914  0.00  0.00    +0.000 A 
ATOM     14  C   UNL     1      -1.915   9.935  16.740  0.00  0.00    +0.000 A 
ATOM     15  C   UNL     1      -2.685   9.927  15.584  0.00  0.00    +0.000 A 
ATOM     16  C   UNL     1      -3.924  10.550  15.548  0.00  0.00    +0.000 A 
ATOM     17  C   UNL     1      -4.373  11.184  16.714  0.00  0.00    +0.000 A 
ATOM     18  N   UNL     1      -5.539  11.869  16.955  0.00  0.00    +0.000 N 
ATOM     19  C   UNL     1      -5.571  12.321  18.247  0.00  0.00    +0.000 A 
ATOM     20  C   UNL     1      -4.396  11.929  18.850  0.00  0.00    +0.000 A 
ATOM     21  C   UNL     1      -3.628  11.205  17.893  0.00  0.00    +0.000 A 
ATOM     22  H   UNL     1      -6.274  12.013  16.269  0.00  0.00    +0.000 HD
ENDBRANCH  12  13
ENDBRANCH  11  12
ENDBRANCH   8  11
ENDBRANCH   7   8
ENDBRANCH   1   7
BRANCH   4  23
ATOM     23  C   UNL     1       3.593   5.382  17.518  0.00  0.00    +0.000 C 
BRANCH  23  24
ATOM     24  C   UNL     1       4.835   5.013  16.689  0.00  0.00    +0.000 A 
ATOM     25  C   UNL     1       6.112   5.457  17.074  0.00  0.00    +0.000 A 
ATOM     26  C   UNL     1       7.205   5.320  16.217  0.00  0.00    +0.000 A 
ATOM     27  C   UNL     1       7.039   4.733  14.964  0.00  0.00    +0.000 A 
ATOM     28  C   UNL     1       5.791   4.245  14.583  0.00  0.00    +0.000 A 
ATOM     29  C   UNL     1       4.696   4.373  15.443  0.00  0.00    +0.000 A 
ENDBRANCH  23  24
BRANCH  23  30
ATOM     30  C   UNL     1       2.957   4.133  18.147  0.00  0.00    +0.000 A 
ATOM     31  C   UNL     1       3.728   3.299  18.980  0.00  0.00    +0.000 A 
ATOM     32  C   UNL     1       3.156   2.192  19.612  0.00  0.00    +0.000 A 
ATOM     33  C   UNL     1       1.809   1.896  19.418  0.00  0.00    +0.000 A 
ATOM     34  C   UNL     1       1.039   2.690  18.573  0.00  0.00    +0.000 A 
ATOM     35  C   UNL     1       1.607   3.801  17.948  0.00  0.00    +0.000 A 
ENDBRANCH  23  30
ENDBRANCH   4  23
TORSDOF 9
ENDMDL
MODEL 8
REMARK VINA RESULT:      -7.8      0.905      3.753
REMARK  Name = 
REMARK  9 active torsions:
REMARK  status: ('A' for Active; 'I' for Inactive)
REMARK    1  A    between atoms: O_1  and  C_2
REMARK    2  A    between atoms: C_2  and  C_3
REMARK    3  A    between atoms: C_2  and  C_14
REMARK    4  A    between atoms: C_3  and  O_4
REMARK    5  A    between atoms: O_4  and  C_5
REMARK    6  A    between atoms: C_14  and  N_15
REMARK    7  A    between atoms: N_18  and  C_19
REMARK    8  A    between atoms: C_19  and  C_20
REMARK    9  A    between atoms: C_19  and  C_26
REMARK                            x       y       z     vdW  Elec       q    Type
REMARK                         _______ _______ _______ _____ _____    ______ ____
ROOT
ATOM      1  N   UNL     1       2.714   4.814  18.648  0.00  0.00    +0.000 NA
ATOM      2  C   UNL     1       4.072   5.287  18.975  0.00  0.00    +0.000 C 
ATOM      3  C   UNL     1       5.178   4.273  18.602  0.00  0.00    +0.000 C 
ATOM      4  N   UNL     1       5.160   3.876  17.167  0.00  0.00    +0.000 NA
ATOM      5  C   UNL     1       3.796   3.374  16.881  0.00  0.00    +0.000 C 
ATOM      6  C   UNL     1       2.665   4.357  17.247  0.00  0.00    +0.000 C 
ENDROOT
BRANCH   1   7
ATOM      7  C   UNL     1       2.271   3.745  19.560  0.00  0.00    +0.000 C 
BRANCH   7   8
ATOM      8  C   UNL     1       1.605   4.284  20.838  0.00  0.00    +0.000 C 
BRANCH   8   9
ATOM      9  O   UNL     1       2.601   4.501  21.845  0.00  0.00    +0.000 OA
ATOM     10  H   UNL     1       2.891   3.617  22.131  0.00  0.00    +0.000 HD
ENDBRANCH   8   9
BRANCH   8  11
ATOM     11  C   UNL     1       0.917   5.597  20.517  0.00  0.00    +0.000 C 
BRANCH  11  12
ATOM     12  O   UNL     1       1.745   6.660  21.003  0.00  0.00    +0.000 OA
BRANCH  12  13
ATOM     13  C   UNL     1       1.164   7.898  20.868  0.00  0.00    +0.000 A 
ATOM     14  C   UNL     1       0.331   8.451  21.858  0.00  0.00    +0.000 A 
ATOM     15  C   UNL     1      -0.239   9.707  21.691  0.00  0.00    +0.000 A 
ATOM     16  C   UNL     1      -0.021  10.442  20.535  0.00  0.00    +0.000 A 
ATOM     17  C   UNL     1       0.795   9.880  19.545  0.00  0.00    +0.000 A 
ATOM     18  N   UNL     1       1.172  10.377  18.321  0.00  0.00    +0.000 N 
ATOM     19  C   UNL     1       1.990   9.490  17.674  0.00  0.00    +0.000 A 
ATOM     20  C   UNL     1       2.137   8.392  18.493  0.00  0.00    +0.000 A 
ATOM     21  C   UNL     1       1.389   8.624  19.683  0.00  0.00    +0.000 A 
ATOM     22  H   UNL     1       0.885  11.280  17.954  0.00  0.00    +0.000 HD
ENDBRANCH  12  13
ENDBRANCH  11  12
ENDBRANCH   8  11
ENDBRANCH   7   8
ENDBRANCH   1   7
BRANCH   4  23
ATOM     23  C   UNL     1       5.565   5.025  16.286  0.00  0.00    +0.000 C 
BRANCH  23  24
ATOM     24  C   UNL     1       6.623   5.883  17.003  0.00  0.00    +0.000 A 
ATOM     25  C   UNL     1       7.501   5.306  17.937  0.00  0.00    +0.000 A 
ATOM     26  C   UNL     1       8.306   6.106  18.749  0.00  0.00    +0.000 A 
ATOM     27  C   UNL     1       8.248   7.494  18.637  0.00  0.00    +0.000 A 
ATOM     28  C   UNL     1       7.418   8.082  17.686  0.00  0.00    +0.000 A 
ATOM     29  C   UNL     1       6.617   7.283  16.864  0.00  0.00    +0.000 A 
ENDBRANCH  23  24
BRANCH  23  30
ATOM     30  C   UNL     1       6.037   4.626  14.880  0.00  0.00    +0.000 A 
ATOM     31  C   UNL     1       5.223   3.806  14.075  0.00  0.00    +0.000 A 
ATOM     32  C   UNL     1       5.603   3.480  12.770  0.00  0.00    +0.000 A 
ATOM     33  C   UNL     1       6.803   3.960  12.252  0.00  0.00    +0.000 A 
ATOM     34  C   UNL     1       7.635   4.746  13.044  0.00  0.00    +0.000 A 
ATOM     35  C   UNL     1       7.253   5.079  14.343  0.00  0.00    +0.000 A 
ENDBRANCH  23  30
ENDBRANCH   4  23
TORSDOF 9
ENDMDL
MODEL 9
REMARK VINA RESULT:      -7.8      2.539      4.649
REMARK  Name = 
REMARK  9 active torsions:
REMARK  status: ('A' for Active; 'I' for Inactive)
REMARK    1  A    between atoms: O_1  and  C_2
REMARK    2  A    between atoms: C_2  and  C_3
REMARK    3  A    between atoms: C_2  and  C_14
REMARK    4  A    between atoms: C_3  and  O_4
REMARK    5  A    between atoms: O_4  and  C_5
REMARK    6  A    between atoms: C_14  and  N_15
REMARK    7  A    between atoms: N_18  and  C_19
REMARK    8  A    between atoms: C_19  and  C_20
REMARK    9  A    between atoms: C_19  and  C_26
REMARK                            x       y       z     vdW  Elec       q    Type
REMARK                         _______ _______ _______ _____ _____    ______ ____
ROOT
ATOM      1  N   UNL     1       1.611   7.209  19.577  0.00  0.00    +0.000 NA
ATOM      2  C   UNL     1       2.011   7.606  18.214  0.00  0.00    +0.000 C 
ATOM      3  C   UNL     1       3.542   7.597  18.000  0.00  0.00    +0.000 C 
ATOM      4  N   UNL     1       4.176   6.284  18.303  0.00  0.00    +0.000 NA
ATOM      5  C   UNL     1       3.784   5.933  19.688  0.00  0.00    +0.000 C 
ATOM      6  C   UNL     1       2.263   5.937  19.941  0.00  0.00    +0.000 C 
ENDROOT
BRANCH   1   7
ATOM      7  C   UNL     1       1.920   8.256  20.566  0.00  0.00    +0.000 C 
BRANCH   7   8
ATOM      8  C   UNL     1       0.694   9.101  20.950  0.00  0.00    +0.000 C 
BRANCH   8   9
ATOM      9  O   UNL     1       0.550   9.120  22.375  0.00  0.00    +0.000 OA
ATOM     10  H   UNL     1       1.269   9.684  22.710  0.00  0.00    +0.000 HD
ENDBRANCH   8   9
BRANCH   8  11
ATOM     11  C   UNL     1       0.894  10.516  20.443  0.00  0.00    +0.000 C 
BRANCH  11  12
ATOM     12  O   UNL     1       0.284  10.612  19.150  0.00  0.00    +0.000 OA
BRANCH  12  13
ATOM     13  C   UNL     1      -0.987  11.129  19.193  0.00  0.00    +0.000 A 
ATOM     14  C   UNL     1      -1.414  11.997  20.215  0.00  0.00    +0.000 A 
ATOM     15  C   UNL     1      -2.707  12.504  20.227  0.00  0.00    +0.000 A 
ATOM     16  C   UNL     1      -3.622  12.152  19.245  0.00  0.00    +0.000 A 
ATOM     17  C   UNL     1      -3.198  11.273  18.240  0.00  0.00    +0.000 A 
ATOM     18  N   UNL     1      -3.883  10.763  17.163  0.00  0.00    +0.000 N 
ATOM     19  C   UNL     1      -3.074   9.941  16.426  0.00  0.00    +0.000 A 
ATOM     20  C   UNL     1      -1.843   9.910  17.045  0.00  0.00    +0.000 A 
ATOM     21  C   UNL     1      -1.904  10.751  18.194  0.00  0.00    +0.000 A 
ATOM     22  H   UNL     1      -4.852  10.975  16.946  0.00  0.00    +0.000 HD
ENDBRANCH  12  13
ENDBRANCH  11  12
ENDBRANCH   8  11
ENDBRANCH   7   8
ENDBRANCH   1   7
BRANCH   4  23
ATOM     23  C   UNL     1       3.775   5.248  17.292  0.00  0.00    +0.000 C 
BRANCH  23  24
ATOM     24  C   UNL     1       4.980   4.892  16.403  0.00  0.00    +0.000 A 
ATOM     25  C   UNL     1       6.281   5.277  16.772  0.00  0.00    +0.000 A 
ATOM     26  C   UNL     1       7.343   5.159  15.874  0.00  0.00    +0.000 A 
ATOM     27  C   UNL     1       7.121   4.650  14.595  0.00  0.00    +0.000 A 
ATOM     28  C   UNL     1       5.847   4.221  14.228  0.00  0.00    +0.000 A 
ATOM     29  C   UNL     1       4.784   4.330  15.128  0.00  0.00    +0.000 A 
ENDBRANCH  23  24
BRANCH  23  30
ATOM     30  C   UNL     1       3.132   3.984  17.882  0.00  0.00    +0.000 A 
ATOM     31  C   UNL     1       1.730   3.862  17.915  0.00  0.00    +0.000 A 
ATOM     32  C   UNL     1       1.123   2.697  18.391  0.00  0.00    +0.000 A 
ATOM     33  C   UNL     1       1.906   1.639  18.848  0.00  0.00    +0.000 A 
ATOM     34  C   UNL     1       3.293   1.753  18.852  0.00  0.00    +0.000 A 
ATOM     35  C   UNL     1       3.900   2.913  18.369  0.00  0.00    +0.000 A 
ENDBRANCH  23  30
ENDBRANCH   4  23
TORSDOF 9
ENDMDL
