MODEL 1
REMARK VINA RESULT:      -7.5      0.000      0.000
REMARK  Name = 
REMARK  2 active torsions:
REMARK  status: ('A' for Active; 'I' for Inactive)
REMARK    1  A    between atoms: C_2  and  C_3
REMARK    2  A    between atoms: C_3  and  N_4
REMARK                            x       y       z     vdW  Elec       q    Type
REMARK                         _______ _______ _______ _____ _____    ______ ____
ROOT
ATOM      1  C   UNL     1       2.964   7.089  19.183  0.00  0.00    +0.000 C 
ENDROOT
BRANCH   1   3
ATOM      2  O   UNL     1       2.480   8.471  17.286  0.00  0.00    +0.000 OA
ATOM      3  C   UNL     1       2.220   8.235  18.472  0.00  0.00    +0.000 C 
ATOM      4  N   UNL     1       1.291   8.977  19.174  0.00  0.00    +0.000 N 
ATOM      5  C   UNL     1       0.925   8.833  20.584  0.00  0.00    +0.000 C 
ATOM      6  C   UNL     1       1.030  10.167  21.324  0.00  0.00    +0.000 C 
ATOM      7  C   UNL     1       0.315  11.288  20.561  0.00  0.00    +0.000 C 
ATOM      8  C   UNL     1       0.350  12.681  21.225  0.00  0.00    +0.000 C 
ATOM      9  C   UNL     1      -1.038  12.309  21.740  0.00  0.00    +0.000 C 
ATOM     10  O   UNL     1      -1.129  11.222  20.777  0.00  0.00    +0.000 OA
ATOM     11  C   UNL     1       0.674  11.341  19.080  0.00  0.00    +0.000 C 
ATOM     12  C   UNL     1       0.497   9.970  18.452  0.00  0.00    +0.000 C 
ENDBRANCH   1   3
BRANCH   1  13
ATOM     13  N   UNL     1       3.237   5.908  18.372  0.00  0.00    +0.000 N 
ATOM     14  C   UNL     1       4.408   5.894  17.623  0.00  0.00    +0.000 A 
ATOM     15  O   UNL     1       5.293   6.743  17.640  0.00  0.00    +0.000 OA
ATOM     16  C   UNL     1       4.603   4.727  16.700  0.00  0.00    +0.000 A 
ATOM     17  N   UNL     1       3.899   3.637  16.751  0.00  0.00    +0.000 NA
ATOM     18  C   UNL     1       2.902   3.571  17.737  0.00  0.00    +0.000 A 
ATOM     19  C   UNL     1       2.299   2.324  17.940  0.00  0.00    +0.000 A 
ATOM     20  C   UNL     1       1.321   2.158  18.913  0.00  0.00    +0.000 A 
ATOM     21  C   UNL     1       0.909   3.252  19.666  0.00  0.00    +0.000 A 
ATOM     22  C   UNL     1       1.489   4.510  19.461  0.00  0.00    +0.000 A 
ATOM     23  C   UNL     1       2.509   4.683  18.518  0.00  0.00    +0.000 A 
ENDBRANCH   1  13
TORSDOF 2
ENDMDL
MODEL 2
REMARK VINA RESULT:      -7.4      2.167      3.633
REMARK  Name = 
REMARK  2 active torsions:
REMARK  status: ('A' for Active; 'I' for Inactive)
REMARK    1  A    between atoms: C_2  and  C_3
REMARK    2  A    between atoms: C_3  and  N_4
REMARK                            x       y       z     vdW  Elec       q    Type
REMARK                         _______ _______ _______ _____ _____    ______ ____
ROOT
ATOM      1  C   UNL     1       2.372   6.416  18.422  0.00  0.00    +0.000 C 
ENDROOT
BRANCH   1   3
ATOM      2  O   UNL     1       1.844   6.742  20.736  0.00  0.00    +0.000 OA
ATOM      3  C   UNL     1       1.881   7.259  19.613  0.00  0.00    +0.000 C 
ATOM      4  N   UNL     1       1.487   8.566  19.401  0.00  0.00    +0.000 N 
ATOM      5  C   UNL     1       1.439   9.280  18.124  0.00  0.00    +0.000 C 
ATOM      6  C   UNL     1       0.065   9.907  17.890  0.00  0.00    +0.000 C 
ATOM      7  C   UNL     1      -0.404  10.700  19.116  0.00  0.00    +0.000 C 
ATOM      8  C   UNL     1      -1.781  11.386  18.986  0.00  0.00    +0.000 C 
ATOM      9  C   UNL     1      -0.965  12.630  18.642  0.00  0.00    +0.000 C 
ATOM     10  O   UNL     1       0.242  12.010  19.165  0.00  0.00    +0.000 OA
ATOM     11  C   UNL     1      -0.258   9.936  20.428  0.00  0.00    +0.000 C 
ATOM     12  C   UNL     1       1.153   9.393  20.559  0.00  0.00    +0.000 C 
ENDBRANCH   1   3
BRANCH   1  13
ATOM     13  N   UNL     1       3.468   5.495  18.702  0.00  0.00    +0.000 N 
ATOM     14  C   UNL     1       3.142   4.207  19.110  0.00  0.00    +0.000 A 
ATOM     15  O   UNL     1       2.014   3.727  19.176  0.00  0.00    +0.000 OA
ATOM     16  C   UNL     1       4.282   3.319  19.516  0.00  0.00    +0.000 A 
ATOM     17  N   UNL     1       5.529   3.582  19.266  0.00  0.00    +0.000 NA
ATOM     18  C   UNL     1       5.801   4.773  18.574  0.00  0.00    +0.000 A 
ATOM     19  C   UNL     1       7.110   4.946  18.108  0.00  0.00    +0.000 A 
ATOM     20  C   UNL     1       7.462   6.082  17.390  0.00  0.00    +0.000 A 
ATOM     21  C   UNL     1       6.515   7.075  17.165  0.00  0.00    +0.000 A 
ATOM     22  C   UNL     1       5.207   6.925  17.641  0.00  0.00    +0.000 A 
ATOM     23  C   UNL     1       4.823   5.765  18.325  0.00  0.00    +0.000 A 
ENDBRANCH   1  13
TORSDOF 2
ENDMDL
MODEL 3
REMARK VINA RESULT:      -7.3      1.841      3.357
REMARK  Name = 
REMARK  2 active torsions:
REMARK  status: ('A' for Active; 'I' for Inactive)
REMARK    1  A    between atoms: C_2  and  C_3
REMARK    2  A    between atoms: C_3  and  N_4
REMARK                            x       y       z     vdW  Elec       q    Type
REMARK                         _______ _______ _______ _____ _____    ______ ____
ROOT
ATOM      1  C   UNL     1       2.122   6.646  18.224  0.00  0.00    +0.000 C 
ENDROOT
BRANCH   1   3
ATOM      2  O   UNL     1       1.933   5.981  20.519  0.00  0.00    +0.000 OA
ATOM      3  C   UNL     1       1.903   6.928  19.723  0.00  0.00    +0.000 C 
ATOM      4  N   UNL     1       1.672   8.223  20.141  0.00  0.00    +0.000 N 
ATOM      5  C   UNL     1       1.567   9.419  19.304  0.00  0.00    +0.000 C 
ATOM      6  C   UNL     1       0.275  10.185  19.589  0.00  0.00    +0.000 C 
ATOM      7  C   UNL     1       0.076  10.404  21.094  0.00  0.00    +0.000 C 
ATOM      8  C   UNL     1      -1.198  11.179  21.497  0.00  0.00    +0.000 C 
ATOM      9  C   UNL     1      -0.265  12.385  21.565  0.00  0.00    +0.000 C 
ATOM     10  O   UNL     1       0.900  11.514  21.569  0.00  0.00    +0.000 OA
ATOM     11  C   UNL     1       0.275   9.141  21.925  0.00  0.00    +0.000 C 
ATOM     12  C   UNL     1       1.602   8.493  21.577  0.00  0.00    +0.000 C 
ENDBRANCH   1   3
BRANCH   1  13
ATOM     13  N   UNL     1       2.945   5.485  17.908  0.00  0.00    +0.000 N 
ATOM     14  C   UNL     1       2.297   4.283  17.647  0.00  0.00    +0.000 A 
ATOM     15  O   UNL     1       1.084   4.113  17.566  0.00  0.00    +0.000 OA
ATOM     16  C   UNL     1       3.166   3.076  17.451  0.00  0.00    +0.000 A 
ATOM     17  N   UNL     1       4.449   3.131  17.254  0.00  0.00    +0.000 NA
ATOM     18  C   UNL     1       5.033   4.408  17.227  0.00  0.00    +0.000 A 
ATOM     19  C   UNL     1       6.362   4.484  16.794  0.00  0.00    +0.000 A 
ATOM     20  C   UNL     1       7.011   5.709  16.709  0.00  0.00    +0.000 A 
ATOM     21  C   UNL     1       6.347   6.867  17.096  0.00  0.00    +0.000 A 
ATOM     22  C   UNL     1       5.024   6.806  17.549  0.00  0.00    +0.000 A 
ATOM     23  C   UNL     1       4.339   5.585  17.596  0.00  0.00    +0.000 A 
ENDBRANCH   1  13
TORSDOF 2
ENDMDL
MODEL 4
REMARK VINA RESULT:      -7.2      2.343      7.556
REMARK  Name = 
REMARK  2 active torsions:
REMARK  status: ('A' for Active; 'I' for Inactive)
REMARK    1  A    between atoms: C_2  and  C_3
REMARK    2  A    between atoms: C_3  and  N_4
REMARK                            x       y       z     vdW  Elec       q    Type
REMARK                         _______ _______ _______ _____ _____    ______ ____
ROOT
ATOM      1  C   UNL     1       1.479   9.907  19.238  0.00  0.00    +0.000 C 
ENDROOT
BRANCH   1   3
ATOM      2  O   UNL     1       1.328   8.344  21.047  0.00  0.00    +0.000 OA
ATOM      3  C   UNL     1       1.651   8.511  19.865  0.00  0.00    +0.000 C 
ATOM      4  N   UNL     1       2.168   7.484  19.100  0.00  0.00    +0.000 N 
ATOM      5  C   UNL     1       2.628   7.559  17.712  0.00  0.00    +0.000 C 
ATOM      6  C   UNL     1       4.046   7.007  17.567  0.00  0.00    +0.000 C 
ATOM      7  C   UNL     1       4.185   5.638  18.243  0.00  0.00    +0.000 C 
ATOM      8  C   UNL     1       5.579   4.980  18.150  0.00  0.00    +0.000 C 
ATOM      9  C   UNL     1       4.974   4.209  16.979  0.00  0.00    +0.000 C 
ATOM     10  O   UNL     1       3.632   4.583  17.396  0.00  0.00    +0.000 OA
ATOM     11  C   UNL     1       3.617   5.597  19.658  0.00  0.00    +0.000 C 
ATOM     12  C   UNL     1       2.199   6.136  19.665  0.00  0.00    +0.000 C 
ENDBRANCH   1   3
BRANCH   1  13
ATOM     13  N   UNL     1       0.273  10.633  19.621  0.00  0.00    +0.000 N 
ATOM     14  C   UNL     1       0.380  11.571  20.642  0.00  0.00    +0.000 A 
ATOM     15  O   UNL     1       1.413  11.922  21.203  0.00  0.00    +0.000 OA
ATOM     16  C   UNL     1      -0.896  12.211  21.105  0.00  0.00    +0.000 A 
ATOM     17  N   UNL     1      -2.019  12.142  20.457  0.00  0.00    +0.000 NA
ATOM     18  C   UNL     1      -2.013  11.420  19.252  0.00  0.00    +0.000 A 
ATOM     19  C   UNL     1      -3.151  11.532  18.445  0.00  0.00    +0.000 A 
ATOM     20  C   UNL     1      -3.222  10.874  17.223  0.00  0.00    +0.000 A 
ATOM     21  C   UNL     1      -2.167  10.065  16.817  0.00  0.00    +0.000 A 
ATOM     22  C   UNL     1      -1.030   9.927  17.622  0.00  0.00    +0.000 A 
ATOM     23  C   UNL     1      -0.923  10.621  18.833  0.00  0.00    +0.000 A 
ENDBRANCH   1  13
TORSDOF 2
ENDMDL
MODEL 5
REMARK VINA RESULT:      -7.1      1.398      1.606
REMARK  Name = 
REMARK  2 active torsions:
REMARK  status: ('A' for Active; 'I' for Inactive)
REMARK    1  A    between atoms: C_2  and  C_3
REMARK    2  A    between atoms: C_3  and  N_4
REMARK                            x       y       z     vdW  Elec       q    Type
REMARK                         _______ _______ _______ _____ _____    ______ ____
ROOT
ATOM      1  C   UNL     1       3.889   6.397  18.726  0.00  0.00    +0.000 C 
ENDROOT
BRANCH   1   3
ATOM      2  O   UNL     1       3.564   7.949  16.930  0.00  0.00    +0.000 OA
ATOM      3  C   UNL     1       3.168   7.572  18.040  0.00  0.00    +0.000 C 
ATOM      4  N   UNL     1       2.107   8.181  18.679  0.00  0.00    +0.000 N 
ATOM      5  C   UNL     1       1.571   7.865  20.004  0.00  0.00    +0.000 C 
ATOM      6  C   UNL     1       1.487   9.113  20.882  0.00  0.00    +0.000 C 
ATOM      7  C   UNL     1       0.803  10.271  20.145  0.00  0.00    +0.000 C 
ATOM      8  C   UNL     1       0.656  11.583  20.944  0.00  0.00    +0.000 C 
ATOM      9  C   UNL     1      -0.758  11.082  21.225  0.00  0.00    +0.000 C 
ATOM     10  O   UNL     1      -0.649  10.104  20.154  0.00  0.00    +0.000 OA
ATOM     11  C   UNL     1       1.347  10.504  18.740  0.00  0.00    +0.000 C 
ATOM     12  C   UNL     1       1.348   9.203  17.959  0.00  0.00    +0.000 C 
ENDBRANCH   1   3
BRANCH   1  13
ATOM     13  N   UNL     1       3.362   5.069  18.436  0.00  0.00    +0.000 N 
ATOM     14  C   UNL     1       3.760   4.459  17.252  0.00  0.00    +0.000 A 
ATOM     15  O   UNL     1       4.590   4.886  16.456  0.00  0.00    +0.000 OA
ATOM     16  C   UNL     1       3.106   3.151  16.914  0.00  0.00    +0.000 A 
ATOM     17  N   UNL     1       2.410   2.449  17.757  0.00  0.00    +0.000 NA
ATOM     18  C   UNL     1       2.278   2.966  19.056  0.00  0.00    +0.000 A 
ATOM     19  C   UNL     1       1.727   2.113  20.019  0.00  0.00    +0.000 A 
ATOM     20  C   UNL     1       1.584   2.530  21.337  0.00  0.00    +0.000 A 
ATOM     21  C   UNL     1       1.955   3.822  21.693  0.00  0.00    +0.000 A 
ATOM     22  C   UNL     1       2.489   4.693  20.736  0.00  0.00    +0.000 A 
ATOM     23  C   UNL     1       2.685   4.273  19.415  0.00  0.00    +0.000 A 
ENDBRANCH   1  13
TORSDOF 2
ENDMDL
MODEL 6
REMARK VINA RESULT:      -6.8      1.803      2.230
REMARK  Name = 
REMARK  2 active torsions:
REMARK  status: ('A' for Active; 'I' for Inactive)
REMARK    1  A    between atoms: C_2  and  C_3
REMARK    2  A    between atoms: C_3  and  N_4
REMARK                            x       y       z     vdW  Elec       q    Type
REMARK                         _______ _______ _______ _____ _____    ______ ____
ROOT
ATOM      1  C   UNL     1       2.319   6.687  18.318  0.00  0.00    +0.000 C 
ENDROOT
BRANCH   1   3
ATOM      2  O   UNL     1       2.271   7.359  20.617  0.00  0.00    +0.000 OA
ATOM      3  C   UNL     1       2.021   7.687  19.451  0.00  0.00    +0.000 C 
ATOM      4  N   UNL     1       1.477   8.918  19.142  0.00  0.00    +0.000 N 
ATOM      5  C   UNL     1       1.094   9.410  17.818  0.00  0.00    +0.000 C 
ATOM      6  C   UNL     1      -0.349   9.916  17.809  0.00  0.00    +0.000 C 
ATOM      7  C   UNL     1      -0.613  10.872  18.977  0.00  0.00    +0.000 C 
ATOM      8  C   UNL     1      -2.041  11.453  19.060  0.00  0.00    +0.000 C 
ATOM      9  C   UNL     1      -1.431  12.665  18.362  0.00  0.00    +0.000 C 
ATOM     10  O   UNL     1      -0.089  12.205  18.685  0.00  0.00    +0.000 OA
ATOM     11  C   UNL     1      -0.123  10.342  20.321  0.00  0.00    +0.000 C 
ATOM     12  C   UNL     1       1.326   9.905  20.210  0.00  0.00    +0.000 C 
ENDBRANCH   1   3
BRANCH   1  13
ATOM     13  N   UNL     1       3.190   5.571  18.665  0.00  0.00    +0.000 N 
ATOM     14  C   UNL     1       4.551   5.712  18.419  0.00  0.00    +0.000 A 
ATOM     15  O   UNL     1       5.118   6.723  18.018  0.00  0.00    +0.000 OA
ATOM     16  C   UNL     1       5.409   4.505  18.665  0.00  0.00    +0.000 A 
ATOM     17  N   UNL     1       5.013   3.456  19.320  0.00  0.00    +0.000 NA
ATOM     18  C   UNL     1       3.701   3.477  19.819  0.00  0.00    +0.000 A 
ATOM     19  C   UNL     1       3.351   2.455  20.710  0.00  0.00    +0.000 A 
ATOM     20  C   UNL     1       2.082   2.412  21.275  0.00  0.00    +0.000 A 
ATOM     21  C   UNL     1       1.139   3.370  20.922  0.00  0.00    +0.000 A 
ATOM     22  C   UNL     1       1.469   4.386  20.017  0.00  0.00    +0.000 A 
ATOM     23  C   UNL     1       2.757   4.472  19.475  0.00  0.00    +0.000 A 
ENDBRANCH   1  13
TORSDOF 2
ENDMDL
MODEL 7
REMARK VINA RESULT:      -6.8      3.690      6.566
REMARK  Name = 
REMARK  2 active torsions:
REMARK  status: ('A' for Active; 'I' for Inactive)
REMARK    1  A    between atoms: C_2  and  C_3
REMARK    2  A    between atoms: C_3  and  N_4
REMARK                            x       y       z     vdW  Elec       q    Type
REMARK                         _______ _______ _______ _____ _____    ______ ____
ROOT
ATOM      1  C   UNL     1       2.825   3.634  17.034  0.00  0.00    +0.000 C 
ENDROOT
BRANCH   1   3
ATOM      2  O   UNL     1       4.774   2.243  16.948  0.00  0.00    +0.000 OA
ATOM      3  C   UNL     1       4.342   3.402  16.916  0.00  0.00    +0.000 C 
ATOM      4  N   UNL     1       5.186   4.488  16.788  0.00  0.00    +0.000 N 
ATOM      5  C   UNL     1       4.813   5.903  16.783  0.00  0.00    +0.000 C 
ATOM      6  C   UNL     1       5.623   6.695  17.810  0.00  0.00    +0.000 C 
ATOM      7  C   UNL     1       7.122   6.400  17.687  0.00  0.00    +0.000 C 
ATOM      8  C   UNL     1       8.039   7.156  18.673  0.00  0.00    +0.000 C 
ATOM      9  C   UNL     1       8.253   8.118  17.508  0.00  0.00    +0.000 C 
ATOM     10  O   UNL     1       7.707   7.145  16.574  0.00  0.00    +0.000 OA
ATOM     11  C   UNL     1       7.446   4.912  17.617  0.00  0.00    +0.000 C 
ATOM     12  C   UNL     1       6.607   4.246  16.542  0.00  0.00    +0.000 C 
ENDBRANCH   1   3
BRANCH   1  13
ATOM     13  N   UNL     1       2.305   3.780  18.389  0.00  0.00    +0.000 N 
ATOM     14  C   UNL     1       2.286   2.650  19.199  0.00  0.00    +0.000 A 
ATOM     15  O   UNL     1       2.750   1.549  18.923  0.00  0.00    +0.000 OA
ATOM     16  C   UNL     1       1.630   2.794  20.541  0.00  0.00    +0.000 A 
ATOM     17  N   UNL     1       1.324   3.936  21.079  0.00  0.00    +0.000 NA
ATOM     18  C   UNL     1       1.637   5.089  20.343  0.00  0.00    +0.000 A 
ATOM     19  C   UNL     1       1.517   6.314  21.010  0.00  0.00    +0.000 A 
ATOM     20  C   UNL     1       1.832   7.505  20.368  0.00  0.00    +0.000 A 
ATOM     21  C   UNL     1       2.232   7.484  19.036  0.00  0.00    +0.000 A 
ATOM     22  C   UNL     1       2.337   6.268  18.350  0.00  0.00    +0.000 A 
ATOM     23  C   UNL     1       2.070   5.055  18.996  0.00  0.00    +0.000 A 
ENDBRANCH   1  13
TORSDOF 2
ENDMDL
MODEL 8
REMARK VINA RESULT:      -6.8      1.485      1.890
REMARK  Name = 
REMARK  2 active torsions:
REMARK  status: ('A' for Active; 'I' for Inactive)
REMARK    1  A    between atoms: C_2  and  C_3
REMARK    2  A    between atoms: C_3  and  N_4
REMARK                            x       y       z     vdW  Elec       q    Type
REMARK                         _______ _______ _______ _____ _____    ______ ____
ROOT
ATOM      1  C   UNL     1       2.603   6.783  17.815  0.00  0.00    +0.000 C 
ENDROOT
BRANCH   1   3
ATOM      2  O   UNL     1       2.241   6.754  20.184  0.00  0.00    +0.000 OA
ATOM      3  C   UNL     1       2.144   7.415  19.142  0.00  0.00    +0.000 C 
ATOM      4  N   UNL     1       1.629   8.696  19.139  0.00  0.00    +0.000 N 
ATOM      5  C   UNL     1       1.419   9.564  17.979  0.00  0.00    +0.000 C 
ATOM      6  C   UNL     1      -0.016  10.088  17.930  0.00  0.00    +0.000 C 
ATOM      7  C   UNL     1      -0.447  10.667  19.283  0.00  0.00    +0.000 C 
ATOM      8  C   UNL     1      -1.881  11.235  19.345  0.00  0.00    +0.000 C 
ATOM      9  C   UNL     1      -1.199  12.583  19.119  0.00  0.00    +0.000 C 
ATOM     10  O   UNL     1       0.093  12.013  19.466  0.00  0.00    +0.000 OA
ATOM     11  C   UNL     1      -0.132   9.755  20.464  0.00  0.00    +0.000 C 
ATOM     12  C   UNL     1       1.325   9.332  20.421  0.00  0.00    +0.000 C 
ENDBRANCH   1   3
BRANCH   1  13
ATOM     13  N   UNL     1       3.389   5.560  17.930  0.00  0.00    +0.000 N 
ATOM     14  C   UNL     1       4.767   5.686  18.066  0.00  0.00    +0.000 A 
ATOM     15  O   UNL     1       5.393   6.734  18.191  0.00  0.00    +0.000 OA
ATOM     16  C   UNL     1       5.565   4.415  18.052  0.00  0.00    +0.000 A 
ATOM     17  N   UNL     1       5.046   3.232  18.183  0.00  0.00    +0.000 NA
ATOM     18  C   UNL     1       3.653   3.164  18.345  0.00  0.00    +0.000 A 
ATOM     19  C   UNL     1       3.121   1.921  18.709  0.00  0.00    +0.000 A 
ATOM     20  C   UNL     1       1.756   1.768  18.918  0.00  0.00    +0.000 A 
ATOM     21  C   UNL     1       0.905   2.850  18.725  0.00  0.00    +0.000 A 
ATOM     22  C   UNL     1       1.420   4.095  18.342  0.00  0.00    +0.000 A 
ATOM     23  C   UNL     1       2.798   4.278  18.174  0.00  0.00    +0.000 A 
ENDBRANCH   1  13
TORSDOF 2
ENDMDL
MODEL 9
REMARK VINA RESULT:      -6.7      1.338      2.912
REMARK  Name = 
REMARK  2 active torsions:
REMARK  status: ('A' for Active; 'I' for Inactive)
REMARK    1  A    between atoms: C_2  and  C_3
REMARK    2  A    between atoms: C_3  and  N_4
REMARK                            x       y       z     vdW  Elec       q    Type
REMARK                         _______ _______ _______ _____ _____    ______ ____
ROOT
ATOM      1  C   UNL     1       3.233   6.629  19.268  0.00  0.00    +0.000 C 
ENDROOT
BRANCH   1   3
ATOM      2  O   UNL     1       2.906   8.005  17.333  0.00  0.00    +0.000 OA
ATOM      3  C   UNL     1       2.562   7.784  18.501  0.00  0.00    +0.000 C 
ATOM      4  N   UNL     1       1.603   8.550  19.133  0.00  0.00    +0.000 N 
ATOM      5  C   UNL     1       1.139   8.425  20.516  0.00  0.00    +0.000 C 
ATOM      6  C   UNL     1       1.222   9.762  21.253  0.00  0.00    +0.000 C 
ATOM      7  C   UNL     1       0.583  10.891  20.435  0.00  0.00    +0.000 C 
ATOM      8  C   UNL     1       0.601  12.289  21.090  0.00  0.00    +0.000 C 
ATOM      9  C   UNL     1      -0.826  11.948  21.513  0.00  0.00    +0.000 C 
ATOM     10  O   UNL     1      -0.874  10.856  20.553  0.00  0.00    +0.000 OA
ATOM     11  C   UNL     1       1.042  10.925  18.981  0.00  0.00    +0.000 C 
ATOM     12  C   UNL     1       0.880   9.553  18.352  0.00  0.00    +0.000 C 
ENDBRANCH   1   3
BRANCH   1  13
ATOM     13  N   UNL     1       3.575   5.453  18.477  0.00  0.00    +0.000 N 
ATOM     14  C   UNL     1       2.560   4.547  18.193  0.00  0.00    +0.000 A 
ATOM     15  O   UNL     1       1.370   4.677  18.465  0.00  0.00    +0.000 OA
ATOM     16  C   UNL     1       2.961   3.283  17.490  0.00  0.00    +0.000 A 
ATOM     17  N   UNL     1       4.112   3.108  16.915  0.00  0.00    +0.000 NA
ATOM     18  C   UNL     1       5.018   4.180  16.968  0.00  0.00    +0.000 A 
ATOM     19  C   UNL     1       6.159   4.079  16.164  0.00  0.00    +0.000 A 
ATOM     20  C   UNL     1       7.097   5.104  16.133  0.00  0.00    +0.000 A 
ATOM     21  C   UNL     1       6.918   6.224  16.938  0.00  0.00    +0.000 A 
ATOM     22  C   UNL     1       5.791   6.330  17.762  0.00  0.00    +0.000 A 
ATOM     23  C   UNL     1       4.814   5.328  17.770  0.00  0.00    +0.000 A 
ENDBRANCH   1  13
TORSDOF 2
ENDMDL
