MODEL 1
REMARK VINA RESULT:      -7.1      0.000      0.000
REMARK  Name = 
REMARK  6 active torsions:
REMARK  status: ('A' for Active; 'I' for Inactive)
REMARK    1  A    between atoms: C_1  and  N_2
REMARK    2  A    between atoms: C_5  and  C_6
REMARK    3  A    between atoms: C_19  and  C_21
REMARK    4  A    between atoms: C_21  and  N_22
REMARK    5  A    between atoms: C_23  and  C_25
REMARK    6  A    between atoms: C_25  and  N_26
REMARK                            x       y       z     vdW  Elec       q    Type
REMARK                         _______ _______ _______ _____ _____    ______ ____
ROOT
ATOM      1  C   UNL     1       4.460   4.754  18.918  0.00  0.00    +0.000 A 
ATOM      2  C   UNL     1       4.834   3.396  19.116  0.00  0.00    +0.000 A 
ATOM      3  C   UNL     1       4.120   2.542  19.971  0.00  0.00    +0.000 A 
ATOM      4 CL   UNL     1       4.661   0.875  20.145  0.00  0.00    +0.000 Cl
ATOM      5  C   UNL     1       2.997   3.013  20.663  0.00  0.00    +0.000 A 
ATOM      6 CL   UNL     1       2.083   1.957  21.737  0.00  0.00    +0.000 Cl
ATOM      7  C   UNL     1       2.617   4.341  20.472  0.00  0.00    +0.000 A 
ATOM      8  N   UNL     1       1.562   4.943  21.049  0.00  0.00    +0.000 N 
ATOM      9  C   UNL     1       1.558   6.207  20.598  0.00  0.00    +0.000 A 
ATOM     10  C   UNL     1       2.598   6.430  19.710  0.00  0.00    +0.000 A 
ATOM     11  C   UNL     1       3.309   5.212  19.632  0.00  0.00    +0.000 A 
ATOM     12  C   UNL     1       2.766   7.768  19.020  0.00  0.00    +0.000 C 
ATOM     13  N   UNL     1       1.706   8.726  19.387  0.00  0.00    +0.000 N 
ATOM     14  C   UNL     1       1.273   9.662  18.469  0.00  0.00    +0.000 C 
ATOM     15  O   UNL     1       1.766   9.683  17.349  0.00  0.00    +0.000 OA
ATOM     16  C   UNL     1       1.163   8.637  20.742  0.00  0.00    +0.000 C 
ATOM     17  C   UNL     1       0.556   7.248  20.978  0.00  0.00    +0.000 C 
ATOM     18  H   UNL     1       0.880   4.522  21.718  0.00  0.00    +0.000 HD
ENDROOT
BRANCH   1  23
ATOM     19  C   UNL     1       7.809   7.995  17.301  0.00  0.00    +0.000 C 
ATOM     20  N   UNL     1       6.746   7.002  17.272  0.00  0.00    +0.000 N 
ATOM     21  C   UNL     1       6.122   6.532  16.181  0.00  0.00    +0.000 A 
ATOM     22  C   UNL     1       5.180   5.616  16.591  0.00  0.00    +0.000 A 
ATOM     23  C   UNL     1       5.285   5.577  17.981  0.00  0.00    +0.000 A 
ATOM     24  N   UNL     1       6.256   6.431  18.356  0.00  0.00    +0.000 NA
ENDBRANCH   1  23
BRANCH  14  25
ATOM     25  C   UNL     1       0.177  10.680  18.748  0.00  0.00    +0.000 C 
BRANCH  25  26
ATOM     26  N   UNL     1      -0.887  10.628  17.757  0.00  0.00    +0.000 N 
ATOM     27  C   UNL     1      -2.054  11.314  17.933  0.00  0.00    +0.000 C 
ATOM     28  O   UNL     1      -2.206  12.033  18.910  0.00  0.00    +0.000 OA
ATOM     29  H   UNL     1      -0.780  10.030  16.923  0.00  0.00    +0.000 HD
BRANCH  27  30
ATOM     30  C   UNL     1      -3.184  11.182  16.944  0.00  0.00    +0.000 C 
BRANCH  30  31
ATOM     31  N   UNL     1      -2.691  11.286  15.576  0.00  0.00    +0.000 NA
ATOM     32  H   UNL     1      -1.974  10.542  15.416  0.00  0.00    +0.000 HD
ATOM     33  H   UNL     1      -2.219  12.213  15.466  0.00  0.00    +0.000 HD
ENDBRANCH  30  31
ENDBRANCH  27  30
ENDBRANCH  25  26
ENDBRANCH  14  25
TORSDOF 5
ENDMDL
MODEL 2
REMARK VINA RESULT:      -6.9      4.229      7.918
REMARK  Name = 
REMARK  6 active torsions:
REMARK  status: ('A' for Active; 'I' for Inactive)
REMARK    1  A    between atoms: C_1  and  N_2
REMARK    2  A    between atoms: C_5  and  C_6
REMARK    3  A    between atoms: C_19  and  C_21
REMARK    4  A    between atoms: C_21  and  N_22
REMARK    5  A    between atoms: C_23  and  C_25
REMARK    6  A    between atoms: C_25  and  N_26
REMARK                            x       y       z     vdW  Elec       q    Type
REMARK                         _______ _______ _______ _____ _____    ______ ____
ROOT
ATOM      1  C   UNL     1       2.118   5.852  20.244  0.00  0.00    +0.000 A 
ATOM      2  C   UNL     1       1.141   6.563  20.994  0.00  0.00    +0.000 A 
ATOM      3  C   UNL     1       0.787   7.888  20.693  0.00  0.00    +0.000 A 
ATOM      4 CL   UNL     1      -0.438   8.680  21.679  0.00  0.00    +0.000 Cl
ATOM      5  C   UNL     1       1.396   8.556  19.623  0.00  0.00    +0.000 A 
ATOM      6 CL   UNL     1       0.963  10.216  19.224  0.00  0.00    +0.000 Cl
ATOM      7  C   UNL     1       2.352   7.866  18.877  0.00  0.00    +0.000 A 
ATOM      8  N   UNL     1       3.017   8.357  17.816  0.00  0.00    +0.000 N 
ATOM      9  C   UNL     1       3.831   7.375  17.398  0.00  0.00    +0.000 A 
ATOM     10  C   UNL     1       3.686   6.235  18.171  0.00  0.00    +0.000 A 
ATOM     11  C   UNL     1       2.724   6.553  19.155  0.00  0.00    +0.000 A 
ATOM     12  C   UNL     1       4.459   4.970  17.854  0.00  0.00    +0.000 C 
ATOM     13  N   UNL     1       5.309   5.116  16.658  0.00  0.00    +0.000 N 
ATOM     14  C   UNL     1       5.542   4.029  15.839  0.00  0.00    +0.000 C 
ATOM     15  O   UNL     1       5.029   2.951  16.106  0.00  0.00    +0.000 OA
ATOM     16  C   UNL     1       5.884   6.437  16.403  0.00  0.00    +0.000 C 
ATOM     17  C   UNL     1       4.767   7.476  16.237  0.00  0.00    +0.000 C 
ATOM     18  H   UNL     1       2.930   9.310  17.398  0.00  0.00    +0.000 HD
ENDROOT
BRANCH   1  23
ATOM     19  C   UNL     1       4.583   1.624  20.864  0.00  0.00    +0.000 C 
ATOM     20  N   UNL     1       3.494   2.588  20.910  0.00  0.00    +0.000 N 
ATOM     21  C   UNL     1       2.258   2.375  21.387  0.00  0.00    +0.000 A 
ATOM     22  C   UNL     1       1.538   3.539  21.238  0.00  0.00    +0.000 A 
ATOM     23  C   UNL     1       2.418   4.443  20.645  0.00  0.00    +0.000 A 
ATOM     24  N   UNL     1       3.602   3.826  20.467  0.00  0.00    +0.000 NA
ENDBRANCH   1  23
BRANCH  14  25
ATOM     25  C   UNL     1       6.392   4.085  14.578  0.00  0.00    +0.000 C 
BRANCH  25  26
ATOM     26  N   UNL     1       5.985   3.091  13.597  0.00  0.00    +0.000 N 
ATOM     27  C   UNL     1       6.349   3.197  12.286  0.00  0.00    +0.000 C 
ATOM     28  O   UNL     1       7.077   4.109  11.919  0.00  0.00    +0.000 OA
ATOM     29  H   UNL     1       5.373   2.311  13.883  0.00  0.00    +0.000 HD
BRANCH  27  30
ATOM     30  C   UNL     1       5.848   2.211  11.262  0.00  0.00    +0.000 C 
BRANCH  30  31
ATOM     31  N   UNL     1       6.747   1.068  11.158  0.00  0.00    +0.000 NA
ATOM     32  H   UNL     1       7.679   1.332  11.552  0.00  0.00    +0.000 HD
ATOM     33  H   UNL     1       6.881   0.846  10.145  0.00  0.00    +0.000 HD
ENDBRANCH  30  31
ENDBRANCH  27  30
ENDBRANCH  25  26
ENDBRANCH  14  25
TORSDOF 5
ENDMDL
MODEL 3
REMARK VINA RESULT:      -6.5      1.390      1.722
REMARK  Name = 
REMARK  6 active torsions:
REMARK  status: ('A' for Active; 'I' for Inactive)
REMARK    1  A    between atoms: C_1  and  N_2
REMARK    2  A    between atoms: C_5  and  C_6
REMARK    3  A    between atoms: C_19  and  C_21
REMARK    4  A    between atoms: C_21  and  N_22
REMARK    5  A    between atoms: C_23  and  C_25
REMARK    6  A    between atoms: C_25  and  N_26
REMARK                            x       y       z     vdW  Elec       q    Type
REMARK                         _______ _______ _______ _____ _____    ______ ____
ROOT
ATOM      1  C   UNL     1       4.424   4.844  18.914  0.00  0.00    +0.000 A 
ATOM      2  C   UNL     1       4.831   3.496  19.109  0.00  0.00    +0.000 A 
ATOM      3  C   UNL     1       4.145   2.625  19.968  0.00  0.00    +0.000 A 
ATOM      4 CL   UNL     1       4.727   0.971  20.138  0.00  0.00    +0.000 Cl
ATOM      5  C   UNL     1       3.015   3.068  20.668  0.00  0.00    +0.000 A 
ATOM      6 CL   UNL     1       2.135   1.990  21.747  0.00  0.00    +0.000 Cl
ATOM      7  C   UNL     1       2.602   4.387  20.480  0.00  0.00    +0.000 A 
ATOM      8  N   UNL     1       1.536   4.963  21.064  0.00  0.00    +0.000 N 
ATOM      9  C   UNL     1       1.499   6.226  20.614  0.00  0.00    +0.000 A 
ATOM     10  C   UNL     1       2.527   6.474  19.720  0.00  0.00    +0.000 A 
ATOM     11  C   UNL     1       3.267   5.274  19.636  0.00  0.00    +0.000 A 
ATOM     12  C   UNL     1       2.658   7.817  19.029  0.00  0.00    +0.000 C 
ATOM     13  N   UNL     1       1.577   8.749  19.404  0.00  0.00    +0.000 N 
ATOM     14  C   UNL     1       1.115   9.674  18.489  0.00  0.00    +0.000 C 
ATOM     15  O   UNL     1       1.600   9.707  17.366  0.00  0.00    +0.000 OA
ATOM     16  C   UNL     1       1.046   8.646  20.763  0.00  0.00    +0.000 C 
ATOM     17  C   UNL     1       0.475   7.242  21.002  0.00  0.00    +0.000 C 
ATOM     18  H   UNL     1       0.869   4.525  21.739  0.00  0.00    +0.000 HD
ENDROOT
BRANCH   1  23
ATOM     19  C   UNL     1       7.824   8.012  17.258  0.00  0.00    +0.000 C 
ATOM     20  N   UNL     1       6.706   7.081  17.247  0.00  0.00    +0.000 N 
ATOM     21  C   UNL     1       5.975   6.724  16.180  0.00  0.00    +0.000 A 
ATOM     22  C   UNL     1       5.015   5.832  16.600  0.00  0.00    +0.000 A 
ATOM     23  C   UNL     1       5.222   5.687  17.972  0.00  0.00    +0.000 A 
ATOM     24  N   UNL     1       6.267   6.460  18.325  0.00  0.00    +0.000 NA
ENDBRANCH   1  23
BRANCH  14  25
ATOM     25  C   UNL     1      -0.003  10.665  18.777  0.00  0.00    +0.000 C 
BRANCH  25  26
ATOM     26  N   UNL     1       0.353  12.022  18.393  0.00  0.00    +0.000 N 
ATOM     27  C   UNL     1       0.560  12.994  19.329  0.00  0.00    +0.000 C 
ATOM     28  O   UNL     1       0.503  12.725  20.520  0.00  0.00    +0.000 OA
ATOM     29  H   UNL     1       0.410  12.272  17.393  0.00  0.00    +0.000 HD
BRANCH  27  30
ATOM     30  C   UNL     1       0.840  14.417  18.917  0.00  0.00    +0.000 C 
BRANCH  30  31
ATOM     31  N   UNL     1      -0.398  15.119  18.604  0.00  0.00    +0.000 NA
ATOM     32  H   UNL     1      -1.207  14.547  18.939  0.00  0.00    +0.000 HD
ATOM     33  H   UNL     1      -0.475  15.202  17.564  0.00  0.00    +0.000 HD
ENDBRANCH  30  31
ENDBRANCH  27  30
ENDBRANCH  25  26
ENDBRANCH  14  25
TORSDOF 5
ENDMDL
MODEL 4
REMARK VINA RESULT:      -6.5      9.133     10.923
REMARK  Name = 
REMARK  6 active torsions:
REMARK  status: ('A' for Active; 'I' for Inactive)
REMARK    1  A    between atoms: C_1  and  N_2
REMARK    2  A    between atoms: C_5  and  C_6
REMARK    3  A    between atoms: C_19  and  C_21
REMARK    4  A    between atoms: C_21  and  N_22
REMARK    5  A    between atoms: C_23  and  C_25
REMARK    6  A    between atoms: C_25  and  N_26
REMARK                            x       y       z     vdW  Elec       q    Type
REMARK                         _______ _______ _______ _____ _____    ______ ____
ROOT
ATOM      1  C   UNL     1       8.344  14.485  19.577  0.00  0.00    +0.000 A 
ATOM      2  C   UNL     1       9.055  14.245  18.370  0.00  0.00    +0.000 A 
ATOM      3  C   UNL     1      10.049  13.259  18.271  0.00  0.00    +0.000 A 
ATOM      4 CL   UNL     1      10.869  13.037  16.728  0.00  0.00    +0.000 Cl
ATOM      5  C   UNL     1      10.372  12.468  19.381  0.00  0.00    +0.000 A 
ATOM      6 CL   UNL     1      11.613  11.222  19.279  0.00  0.00    +0.000 Cl
ATOM      7  C   UNL     1       9.677  12.691  20.570  0.00  0.00    +0.000 A 
ATOM      8  N   UNL     1       9.856  12.013  21.718  0.00  0.00    +0.000 N 
ATOM      9  C   UNL     1       8.995  12.539  22.602  0.00  0.00    +0.000 A 
ATOM     10  C   UNL     1       8.236  13.547  22.030  0.00  0.00    +0.000 A 
ATOM     11  C   UNL     1       8.688  13.664  20.697  0.00  0.00    +0.000 A 
ATOM     12  C   UNL     1       7.150  14.254  22.816  0.00  0.00    +0.000 C 
ATOM     13  N   UNL     1       7.009  13.719  24.184  0.00  0.00    +0.000 N 
ATOM     14  C   UNL     1       5.771  13.703  24.795  0.00  0.00    +0.000 C 
ATOM     15  O   UNL     1       4.794  14.123  24.190  0.00  0.00    +0.000 OA
ATOM     16  C   UNL     1       8.222  13.231  24.840  0.00  0.00    +0.000 C 
ATOM     17  C   UNL     1       8.845  12.094  24.020  0.00  0.00    +0.000 C 
ATOM     18  H   UNL     1      10.532  11.237  21.898  0.00  0.00    +0.000 HD
ENDROOT
BRANCH   1  23
ATOM     19  C   UNL     1       5.937  18.630  20.744  0.00  0.00    +0.000 C 
ATOM     20  N   UNL     1       6.241  17.367  20.089  0.00  0.00    +0.000 N 
ATOM     21  C   UNL     1       5.484  16.737  19.178  0.00  0.00    +0.000 A 
ATOM     22  C   UNL     1       6.127  15.574  18.820  0.00  0.00    +0.000 A 
ATOM     23  C   UNL     1       7.300  15.555  19.574  0.00  0.00    +0.000 A 
ATOM     24  N   UNL     1       7.335  16.669  20.329  0.00  0.00    +0.000 NA
ENDBRANCH   1  23
BRANCH  14  25
ATOM     25  C   UNL     1       5.524  13.159  26.194  0.00  0.00    +0.000 C 
BRANCH  25  26
ATOM     26  N   UNL     1       5.151  11.753  26.180  0.00  0.00    +0.000 N 
ATOM     27  C   UNL     1       4.431  11.199  27.198  0.00  0.00    +0.000 C 
ATOM     28  O   UNL     1       4.038  11.894  28.125  0.00  0.00    +0.000 OA
ATOM     29  H   UNL     1       5.469  11.148  25.406  0.00  0.00    +0.000 HD
BRANCH  27  30
ATOM     30  C   UNL     1       4.127   9.723  27.217  0.00  0.00    +0.000 C 
BRANCH  30  31
ATOM     31  N   UNL     1       4.817   9.065  28.319  0.00  0.00    +0.000 NA
ATOM     32  H   UNL     1       5.243   8.175  27.971  0.00  0.00    +0.000 HD
ATOM     33  H   UNL     1       4.109   8.815  29.048  0.00  0.00    +0.000 HD
ENDBRANCH  30  31
ENDBRANCH  27  30
ENDBRANCH  25  26
ENDBRANCH  14  25
TORSDOF 5
ENDMDL
MODEL 5
REMARK VINA RESULT:      -6.4      0.844      1.086
REMARK  Name = 
REMARK  6 active torsions:
REMARK  status: ('A' for Active; 'I' for Inactive)
REMARK    1  A    between atoms: C_1  and  N_2
REMARK    2  A    between atoms: C_5  and  C_6
REMARK    3  A    between atoms: C_19  and  C_21
REMARK    4  A    between atoms: C_21  and  N_22
REMARK    5  A    between atoms: C_23  and  C_25
REMARK    6  A    between atoms: C_25  and  N_26
REMARK                            x       y       z     vdW  Elec       q    Type
REMARK                         _______ _______ _______ _____ _____    ______ ____
ROOT
ATOM      1  C   UNL     1       4.486   4.374  18.770  0.00  0.00    +0.000 A 
ATOM      2  C   UNL     1       4.822   3.016  19.023  0.00  0.00    +0.000 A 
ATOM      3  C   UNL     1       4.150   2.245  19.984  0.00  0.00    +0.000 A 
ATOM      4 CL   UNL     1       4.640   0.570  20.220  0.00  0.00    +0.000 Cl
ATOM      5  C   UNL     1       3.107   2.805  20.733  0.00  0.00    +0.000 A 
ATOM      6 CL   UNL     1       2.245   1.856  21.942  0.00  0.00    +0.000 Cl
ATOM      7  C   UNL     1       2.763   4.135  20.490  0.00  0.00    +0.000 A 
ATOM      8  N   UNL     1       1.783   4.815  21.110  0.00  0.00    +0.000 N 
ATOM      9  C   UNL     1       1.790   6.048  20.582  0.00  0.00    +0.000 A 
ATOM     10  C   UNL     1       2.760   6.173  19.602  0.00  0.00    +0.000 A 
ATOM     11  C   UNL     1       3.416   4.923  19.543  0.00  0.00    +0.000 A 
ATOM     12  C   UNL     1       2.921   7.459  18.816  0.00  0.00    +0.000 C 
ATOM     13  N   UNL     1       1.933   8.482  19.206  0.00  0.00    +0.000 N 
ATOM     14  C   UNL     1       1.461   9.379  18.268  0.00  0.00    +0.000 C 
ATOM     15  O   UNL     1       1.860   9.311  17.114  0.00  0.00    +0.000 OA
ATOM     16  C   UNL     1       1.501   8.498  20.604  0.00  0.00    +0.000 C 
ATOM     17  C   UNL     1       0.863   7.152  20.975  0.00  0.00    +0.000 C 
ATOM     18  H   UNL     1       1.143   4.464  21.858  0.00  0.00    +0.000 HD
ENDROOT
BRANCH   1  23
ATOM     19  C   UNL     1       6.597   5.405  14.432  0.00  0.00    +0.000 C 
ATOM     20  N   UNL     1       6.193   5.551  15.822  0.00  0.00    +0.000 N 
ATOM     21  C   UNL     1       6.518   6.559  16.646  0.00  0.00    +0.000 A 
ATOM     22  C   UNL     1       5.939   6.311  17.870  0.00  0.00    +0.000 A 
ATOM     23  C   UNL     1       5.261   5.103  17.719  0.00  0.00    +0.000 A 
ATOM     24  N   UNL     1       5.435   4.675  16.454  0.00  0.00    +0.000 NA
ENDBRANCH   1  23
BRANCH  14  25
ATOM     25  C   UNL     1       0.431  10.458  18.570  0.00  0.00    +0.000 C 
BRANCH  25  26
ATOM     26  N   UNL     1      -0.689  10.423  17.643  0.00  0.00    +0.000 N 
ATOM     27  C   UNL     1      -1.864  11.056  17.926  0.00  0.00    +0.000 C 
ATOM     28  O   UNL     1      -1.979  11.716  18.950  0.00  0.00    +0.000 OA
ATOM     29  H   UNL     1      -0.614   9.876  16.771  0.00  0.00    +0.000 HD
BRANCH  27  30
ATOM     30  C   UNL     1      -3.048  10.940  17.000  0.00  0.00    +0.000 C 
BRANCH  30  31
ATOM     31  N   UNL     1      -2.678  11.298  15.637  0.00  0.00    +0.000 NA
ATOM     32  H   UNL     1      -3.407  10.936  14.980  0.00  0.00    +0.000 HD
ATOM     33  H   UNL     1      -1.776  10.822  15.405  0.00  0.00    +0.000 HD
ENDBRANCH  30  31
ENDBRANCH  27  30
ENDBRANCH  25  26
ENDBRANCH  14  25
TORSDOF 5
ENDMDL
MODEL 6
REMARK VINA RESULT:      -6.4      5.223     10.071
REMARK  Name = 
REMARK  6 active torsions:
REMARK  status: ('A' for Active; 'I' for Inactive)
REMARK    1  A    between atoms: C_1  and  N_2
REMARK    2  A    between atoms: C_5  and  C_6
REMARK    3  A    between atoms: C_19  and  C_21
REMARK    4  A    between atoms: C_21  and  N_22
REMARK    5  A    between atoms: C_23  and  C_25
REMARK    6  A    between atoms: C_25  and  N_26
REMARK                            x       y       z     vdW  Elec       q    Type
REMARK                         _______ _______ _______ _____ _____    ______ ____
ROOT
ATOM      1  C   UNL     1      -3.529  13.258  20.724  0.00  0.00    +0.000 A 
ATOM      2  C   UNL     1      -4.830  13.829  20.674  0.00  0.00    +0.000 A 
ATOM      3  C   UNL     1      -5.771  13.461  19.699  0.00  0.00    +0.000 A 
ATOM      4 CL   UNL     1      -7.358  14.224  19.724  0.00  0.00    +0.000 Cl
ATOM      5  C   UNL     1      -5.447  12.500  18.733  0.00  0.00    +0.000 A 
ATOM      6 CL   UNL     1      -6.612  12.019  17.504  0.00  0.00    +0.000 Cl
ATOM      7  C   UNL     1      -4.175  11.929  18.776  0.00  0.00    +0.000 A 
ATOM      8  N   UNL     1      -3.712  10.988  17.934  0.00  0.00    +0.000 N 
ATOM      9  C   UNL     1      -2.457  10.719  18.325  0.00  0.00    +0.000 A 
ATOM     10  C   UNL     1      -2.102  11.468  19.434  0.00  0.00    +0.000 A 
ATOM     11  C   UNL     1      -3.221  12.277  19.731  0.00  0.00    +0.000 A 
ATOM     12  C   UNL     1      -0.750  11.296  20.097  0.00  0.00    +0.000 C 
ATOM     13  N   UNL     1       0.066  10.255  19.444  0.00  0.00    +0.000 N 
ATOM     14  C   UNL     1       0.945   9.496  20.192  0.00  0.00    +0.000 C 
ATOM     15  O   UNL     1       1.032   9.686  21.398  0.00  0.00    +0.000 OA
ATOM     16  C   UNL     1      -0.096  10.085  18.000  0.00  0.00    +0.000 C 
ATOM     17  C   UNL     1      -1.551   9.728  17.670  0.00  0.00    +0.000 C 
ATOM     18  H   UNL     1      -4.218  10.551  17.131  0.00  0.00    +0.000 HD
ENDROOT
BRANCH   1  23
ATOM     19  C   UNL     1      -0.242  16.004  23.172  0.00  0.00    +0.000 C 
ATOM     20  N   UNL     1      -1.160  14.915  22.877  0.00  0.00    +0.000 N 
ATOM     21  C   UNL     1      -1.409  13.847  23.652  0.00  0.00    +0.000 A 
ATOM     22  C   UNL     1      -2.330  13.057  23.005  0.00  0.00    +0.000 A 
ATOM     23  C   UNL     1      -2.606  13.717  21.808  0.00  0.00    +0.000 A 
ATOM     24  N   UNL     1      -1.877  14.848  21.772  0.00  0.00    +0.000 NA
ENDBRANCH   1  23
BRANCH  14  25
ATOM     25  C   UNL     1       1.817   8.392  19.612  0.00  0.00    +0.000 C 
BRANCH  25  26
ATOM     26  N   UNL     1       1.821   7.201  20.446  0.00  0.00    +0.000 N 
ATOM     27  C   UNL     1       2.192   5.986  19.947  0.00  0.00    +0.000 C 
ATOM     28  O   UNL     1       2.582   5.886  18.792  0.00  0.00    +0.000 OA
ATOM     29  H   UNL     1       1.499   7.261  21.425  0.00  0.00    +0.000 HD
BRANCH  27  30
ATOM     30  C   UNL     1       2.107   4.743  20.795  0.00  0.00    +0.000 C 
BRANCH  30  31
ATOM     31  N   UNL     1       0.861   4.029  20.546  0.00  0.00    +0.000 NA
ATOM     32  H   UNL     1       0.968   3.038  20.862  0.00  0.00    +0.000 HD
ATOM     33  H   UNL     1       0.688   4.018  19.515  0.00  0.00    +0.000 HD
ENDBRANCH  30  31
ENDBRANCH  27  30
ENDBRANCH  25  26
ENDBRANCH  14  25
TORSDOF 5
ENDMDL
MODEL 7
REMARK VINA RESULT:      -6.4      6.037      9.329
REMARK  Name = 
REMARK  6 active torsions:
REMARK  status: ('A' for Active; 'I' for Inactive)
REMARK    1  A    between atoms: C_1  and  N_2
REMARK    2  A    between atoms: C_5  and  C_6
REMARK    3  A    between atoms: C_19  and  C_21
REMARK    4  A    between atoms: C_21  and  N_22
REMARK    5  A    between atoms: C_23  and  C_25
REMARK    6  A    between atoms: C_25  and  N_26
REMARK                            x       y       z     vdW  Elec       q    Type
REMARK                         _______ _______ _______ _____ _____    ______ ____
ROOT
ATOM      1  C   UNL     1      -0.740  11.790  22.352  0.00  0.00    +0.000 A 
ATOM      2  C   UNL     1      -1.921  11.581  23.114  0.00  0.00    +0.000 A 
ATOM      3  C   UNL     1      -2.698  12.646  23.597  0.00  0.00    +0.000 A 
ATOM      4 CL   UNL     1      -4.147  12.282  24.529  0.00  0.00    +0.000 Cl
ATOM      5  C   UNL     1      -2.323  13.969  23.332  0.00  0.00    +0.000 A 
ATOM      6 CL   UNL     1      -3.285  15.321  23.923  0.00  0.00    +0.000 Cl
ATOM      7  C   UNL     1      -1.168  14.187  22.580  0.00  0.00    +0.000 A 
ATOM      8  N   UNL     1      -0.680  15.389  22.229  0.00  0.00    +0.000 N 
ATOM      9  C   UNL     1       0.432  15.149  21.517  0.00  0.00    +0.000 A 
ATOM     10  C   UNL     1       0.662  13.790  21.383  0.00  0.00    +0.000 A 
ATOM     11  C   UNL     1      -0.378  13.148  22.092  0.00  0.00    +0.000 A 
ATOM     12  C   UNL     1       1.829  13.269  20.568  0.00  0.00    +0.000 C 
ATOM     13  N   UNL     1       2.612  14.356  19.951  0.00  0.00    +0.000 N 
ATOM     14  C   UNL     1       3.225  14.158  18.730  0.00  0.00    +0.000 C 
ATOM     15  O   UNL     1       3.104  13.082  18.160  0.00  0.00    +0.000 OA
ATOM     16  C   UNL     1       2.709  15.614  20.691  0.00  0.00    +0.000 C 
ATOM     17  C   UNL     1       1.310  16.201  20.921  0.00  0.00    +0.000 C 
ATOM     18  H   UNL     1      -1.075  16.328  22.463  0.00  0.00    +0.000 HD
ENDROOT
BRANCH   1  23
ATOM     19  C   UNL     1       1.524   8.616  19.328  0.00  0.00    +0.000 C 
ATOM     20  N   UNL     1       0.996   9.191  20.556  0.00  0.00    +0.000 N 
ATOM     21  C   UNL     1       1.046   8.644  21.781  0.00  0.00    +0.000 A 
ATOM     22  C   UNL     1       0.429   9.505  22.658  0.00  0.00    +0.000 A 
ATOM     23  C   UNL     1       0.011  10.585  21.881  0.00  0.00    +0.000 A 
ATOM     24  N   UNL     1       0.382  10.358  20.607  0.00  0.00    +0.000 NA
ENDBRANCH   1  23
BRANCH  14  25
ATOM     25  C   UNL     1       4.040  15.222  18.009  0.00  0.00    +0.000 C 
BRANCH  25  26
ATOM     26  N   UNL     1       5.344  14.727  17.593  0.00  0.00    +0.000 N 
ATOM     27  C   UNL     1       6.434  14.829  18.407  0.00  0.00    +0.000 C 
ATOM     28  O   UNL     1       6.323  15.294  19.532  0.00  0.00    +0.000 OA
ATOM     29  H   UNL     1       5.461  14.328  16.648  0.00  0.00    +0.000 HD
BRANCH  27  30
ATOM     30  C   UNL     1       7.797  14.395  17.931  0.00  0.00    +0.000 C 
BRANCH  30  31
ATOM     31  N   UNL     1       7.704  13.187  17.121  0.00  0.00    +0.000 NA
ATOM     32  H   UNL     1       6.752  12.770  17.242  0.00  0.00    +0.000 HD
ATOM     33  H   UNL     1       8.402  12.496  17.479  0.00  0.00    +0.000 HD
ENDBRANCH  30  31
ENDBRANCH  27  30
ENDBRANCH  25  26
ENDBRANCH  14  25
TORSDOF 5
ENDMDL
MODEL 8
REMARK VINA RESULT:      -6.3      4.559      9.221
REMARK  Name = 
REMARK  6 active torsions:
REMARK  status: ('A' for Active; 'I' for Inactive)
REMARK    1  A    between atoms: C_1  and  N_2
REMARK    2  A    between atoms: C_5  and  C_6
REMARK    3  A    between atoms: C_19  and  C_21
REMARK    4  A    between atoms: C_21  and  N_22
REMARK    5  A    between atoms: C_23  and  C_25
REMARK    6  A    between atoms: C_25  and  N_26
REMARK                            x       y       z     vdW  Elec       q    Type
REMARK                         _______ _______ _______ _____ _____    ______ ____
ROOT
ATOM      1  C   UNL     1      -3.024  12.436  19.970  0.00  0.00    +0.000 A 
ATOM      2  C   UNL     1      -3.768  13.489  20.567  0.00  0.00    +0.000 A 
ATOM      3  C   UNL     1      -3.407  14.054  21.800  0.00  0.00    +0.000 A 
ATOM      4 CL   UNL     1      -4.393  15.359  22.454  0.00  0.00    +0.000 Cl
ATOM      5  C   UNL     1      -2.279  13.588  22.487  0.00  0.00    +0.000 A 
ATOM      6 CL   UNL     1      -1.803  14.285  24.032  0.00  0.00    +0.000 Cl
ATOM      7  C   UNL     1      -1.537  12.558  21.908  0.00  0.00    +0.000 A 
ATOM      8  N   UNL     1      -0.426  12.007  22.428  0.00  0.00    +0.000 N 
ATOM      9  C   UNL     1      -0.034  11.063  21.560  0.00  0.00    +0.000 A 
ATOM     10  C   UNL     1      -0.874  11.006  20.460  0.00  0.00    +0.000 A 
ATOM     11  C   UNL     1      -1.875  11.977  20.687  0.00  0.00    +0.000 A 
ATOM     12  C   UNL     1      -0.601  10.056  19.312  0.00  0.00    +0.000 C 
ATOM     13  N   UNL     1       0.633   9.273  19.514  0.00  0.00    +0.000 N 
ATOM     14  C   UNL     1       1.398   8.897  18.427  0.00  0.00    +0.000 C 
ATOM     15  O   UNL     1       1.051   9.228  17.301  0.00  0.00    +0.000 OA
ATOM     16  C   UNL     1       0.984   8.918  20.889  0.00  0.00    +0.000 C 
ATOM     17  C   UNL     1       1.165  10.188  21.732  0.00  0.00    +0.000 C 
ATOM     18  H   UNL     1       0.042  12.254  23.329  0.00  0.00    +0.000 HD
ENDROOT
BRANCH   1  23
ATOM     19  C   UNL     1      -2.913  10.819  15.310  0.00  0.00    +0.000 C 
ATOM     20  N   UNL     1      -3.445  11.208  16.607  0.00  0.00    +0.000 N 
ATOM     21  C   UNL     1      -4.737  11.213  16.972  0.00  0.00    +0.000 A 
ATOM     22  C   UNL     1      -4.810  11.653  18.274  0.00  0.00    +0.000 A 
ATOM     23  C   UNL     1      -3.492  11.909  18.651  0.00  0.00    +0.000 A 
ATOM     24  N   UNL     1      -2.691  11.619  17.609  0.00  0.00    +0.000 NA
ENDBRANCH   1  23
BRANCH  14  25
ATOM     25  C   UNL     1       2.691   8.103  18.534  0.00  0.00    +0.000 C 
BRANCH  25  26
ATOM     26  N   UNL     1       2.556   6.757  18.000  0.00  0.00    +0.000 N 
ATOM     27  C   UNL     1       2.492   5.670  18.822  0.00  0.00    +0.000 C 
ATOM     28  O   UNL     1       2.492   5.813  20.036  0.00  0.00    +0.000 OA
ATOM     29  H   UNL     1       2.550   6.611  16.978  0.00  0.00    +0.000 HD
BRANCH  27  30
ATOM     30  C   UNL     1       2.442   4.274  18.255  0.00  0.00    +0.000 C 
BRANCH  30  31
ATOM     31  N   UNL     1       1.237   4.080  17.459  0.00  0.00    +0.000 NA
ATOM     32  H   UNL     1       0.584   3.448  17.978  0.00  0.00    +0.000 HD
ATOM     33  H   UNL     1       1.505   3.599  16.569  0.00  0.00    +0.000 HD
ENDBRANCH  30  31
ENDBRANCH  27  30
ENDBRANCH  25  26
ENDBRANCH  14  25
TORSDOF 5
ENDMDL
MODEL 9
REMARK VINA RESULT:      -6.3      7.235     10.406
REMARK  Name = 
REMARK  6 active torsions:
REMARK  status: ('A' for Active; 'I' for Inactive)
REMARK    1  A    between atoms: C_1  and  N_2
REMARK    2  A    between atoms: C_5  and  C_6
REMARK    3  A    between atoms: C_19  and  C_21
REMARK    4  A    between atoms: C_21  and  N_22
REMARK    5  A    between atoms: C_23  and  C_25
REMARK    6  A    between atoms: C_25  and  N_26
REMARK                            x       y       z     vdW  Elec       q    Type
REMARK                         _______ _______ _______ _____ _____    ______ ____
ROOT
ATOM      1  C   UNL     1      -3.032  13.782  21.377  0.00  0.00    +0.000 A 
ATOM      2  C   UNL     1      -2.545  14.652  22.391  0.00  0.00    +0.000 A 
ATOM      3  C   UNL     1      -1.175  14.892  22.575  0.00  0.00    +0.000 A 
ATOM      4 CL   UNL     1      -0.673  15.990  23.857  0.00  0.00    +0.000 Cl
ATOM      5  C   UNL     1      -0.232  14.270  21.746  0.00  0.00    +0.000 A 
ATOM      6 CL   UNL     1       1.493  14.560  21.955  0.00  0.00    +0.000 Cl
ATOM      7  C   UNL     1      -0.698  13.419  20.744  0.00  0.00    +0.000 A 
ATOM      8  N   UNL     1       0.070  12.758  19.861  0.00  0.00    +0.000 N 
ATOM      9  C   UNL     1      -0.770  12.061  19.081  0.00  0.00    +0.000 A 
ATOM     10  C   UNL     1      -2.090  12.280  19.438  0.00  0.00    +0.000 A 
ATOM     11  C   UNL     1      -2.052  13.161  20.541  0.00  0.00    +0.000 A 
ATOM     12  C   UNL     1      -3.228  11.647  18.662  0.00  0.00    +0.000 C 
ATOM     13  N   UNL     1      -2.750  10.840  17.523  0.00  0.00    +0.000 N 
ATOM     14  C   UNL     1      -3.510  10.750  16.374  0.00  0.00    +0.000 C 
ATOM     15  O   UNL     1      -4.574  11.351  16.305  0.00  0.00    +0.000 OA
ATOM     16  C   UNL     1      -1.468  10.154  17.680  0.00  0.00    +0.000 C 
ATOM     17  C   UNL     1      -0.353  11.173  17.953  0.00  0.00    +0.000 C 
ATOM     18  H   UNL     1       1.113  12.773  19.791  0.00  0.00    +0.000 HD
ENDROOT
BRANCH   1  23
ATOM     19  C   UNL     1      -7.689  14.426  19.880  0.00  0.00    +0.000 C 
ATOM     20  N   UNL     1      -6.553  13.888  20.613  0.00  0.00    +0.000 N 
ATOM     21  C   UNL     1      -6.592  12.942  21.564  0.00  0.00    +0.000 A 
ATOM     22  C   UNL     1      -5.306  12.727  22.005  0.00  0.00    +0.000 A 
ATOM     23  C   UNL     1      -4.512  13.601  21.263  0.00  0.00    +0.000 A 
ATOM     24  N   UNL     1      -5.310  14.285  20.421  0.00  0.00    +0.000 NA
ENDBRANCH   1  23
BRANCH  14  25
ATOM     25  C   UNL     1      -3.096   9.956  15.144  0.00  0.00    +0.000 C 
BRANCH  25  26
ATOM     26  N   UNL     1      -4.132   9.943  14.123  0.00  0.00    +0.000 N 
ATOM     27  C   UNL     1      -3.839   9.678  12.817  0.00  0.00    +0.000 C 
ATOM     28  O   UNL     1      -2.697   9.391  12.487  0.00  0.00    +0.000 OA
ATOM     29  H   UNL     1      -5.104  10.179  14.379  0.00  0.00    +0.000 HD
BRANCH  27  30
ATOM     30  C   UNL     1      -4.905   9.755  11.754  0.00  0.00    +0.000 C 
BRANCH  30  31
ATOM     31  N   UNL     1      -6.167   9.216  12.246  0.00  0.00    +0.000 NA
ATOM     32  H   UNL     1      -6.761   8.943  11.429  0.00  0.00    +0.000 HD
ATOM     33  H   UNL     1      -6.669   9.974  12.764  0.00  0.00    +0.000 HD
ENDBRANCH  30  31
ENDBRANCH  27  30
ENDBRANCH  25  26
ENDBRANCH  14  25
TORSDOF 5
ENDMDL
