MODEL 1
REMARK VINA RESULT:      -8.4      0.000      0.000
REMARK  Name = 
REMARK  7 active torsions:
REMARK  status: ('A' for Active; 'I' for Inactive)
REMARK    1  A    between atoms: C_1  and  C_2
REMARK    2  A    between atoms: C_2  and  C_3
REMARK    3  A    between atoms: C_3  and  C_4
REMARK    4  A    between atoms: C_6  and  N_7
REMARK    5  A    between atoms: C_8  and  C_10
REMARK    6  A    between atoms: C_13  and  C_14
REMARK    7  A    between atoms: C_24  and  C_25
REMARK                            x       y       z     vdW  Elec       q    Type
REMARK                         _______ _______ _______ _____ _____    ______ ____
ROOT
ATOM      1  N   UNL     1       4.276   6.508  18.188  0.00  0.00    +0.000 N 
ATOM      2  C   UNL     1       3.290   6.475  19.139  0.00  0.00    +0.000 C 
ATOM      3  O   UNL     1       3.202   5.599  19.991  0.00  0.00    +0.000 OA
ATOM      4  H   UNL     1       4.340   7.317  17.573  0.00  0.00    +0.000 HD
ENDROOT
BRANCH   1   7
ATOM      5  C   UNL     1       7.285   7.132  17.708  0.00  0.00    +0.000 C 
ATOM      6  C   UNL     1       6.648   6.196  18.742  0.00  0.00    +0.000 C 
ATOM      7  C   UNL     1       5.384   5.563  18.157  0.00  0.00    +0.000 C 
ATOM      8  C   UNL     1       5.603   5.078  16.742  0.00  0.00    +0.000 A 
ATOM      9  C   UNL     1       4.671   4.201  16.160  0.00  0.00    +0.000 A 
ATOM     10  C   UNL     1       4.852   3.730  14.860  0.00  0.00    +0.000 A 
ATOM     11  C   UNL     1       5.971   4.124  14.121  0.00  0.00    +0.000 A 
ATOM     12  C   UNL     1       6.192   3.616  12.727  0.00  0.00    +0.000 C 
ATOM     13  C   UNL     1       6.897   5.003  14.702  0.00  0.00    +0.000 A 
ATOM     14  C   UNL     1       6.711   5.514  15.995  0.00  0.00    +0.000 A 
ATOM     15  N   UNL     1       7.711   6.328  16.560  0.00  0.00    +0.000 N 
ATOM     16  H   UNL     1       8.206   6.853  15.845  0.00  0.00    +0.000 HD
BRANCH   5  17
ATOM     17  C   UNL     1       8.485   7.858  18.340  0.00  0.00    +0.000 C 
BRANCH  17  19
ATOM     18  C   UNL     1       9.256  10.071  19.260  0.00  0.00    +0.000 C 
ATOM     19  C   UNL     1       8.449   9.380  18.169  0.00  0.00    +0.000 C 
ENDBRANCH  17  19
ENDBRANCH   5  17
ENDBRANCH   1   7
BRANCH   2  20
ATOM     20  C   UNL     1       2.291   7.579  19.043  0.00  0.00    +0.000 A 
ATOM     21  C   UNL     1       2.104   8.173  17.849  0.00  0.00    +0.000 A 
ATOM     22  C   UNL     1       1.210   9.300  17.694  0.00  0.00    +0.000 A 
ATOM     23  C   UNL     1       0.516   9.773  18.744  0.00  0.00    +0.000 A 
ATOM     24  N   UNL     1       0.661   9.141  19.968  0.00  0.00    +0.000 N 
ATOM     25  C   UNL     1       1.500   8.077  20.206  0.00  0.00    +0.000 A 
ATOM     26  O   UNL     1       1.589   7.579  21.325  0.00  0.00    +0.000 OA
ATOM     27  H   UNL     1       0.135   9.480  20.770  0.00  0.00    +0.000 HD
BRANCH  23  28
ATOM     28  C   UNL     1      -0.387  10.982  18.657  0.00  0.00    +0.000 C 
ATOM     29  F   UNL     1      -1.302  10.849  17.660  0.00  0.00    +0.000 F 
ATOM     30  F   UNL     1      -1.082  11.175  19.806  0.00  0.00    +0.000 F 
ATOM     31  F   UNL     1       0.306  12.121  18.410  0.00  0.00    +0.000 F 
ENDBRANCH  23  28
ENDBRANCH   2  20
TORSDOF 5
ENDMDL
MODEL 2
REMARK VINA RESULT:      -8.2      4.238      8.921
REMARK  Name = 
REMARK  7 active torsions:
REMARK  status: ('A' for Active; 'I' for Inactive)
REMARK    1  A    between atoms: C_1  and  C_2
REMARK    2  A    between atoms: C_2  and  C_3
REMARK    3  A    between atoms: C_3  and  C_4
REMARK    4  A    between atoms: C_6  and  N_7
REMARK    5  A    between atoms: C_8  and  C_10
REMARK    6  A    between atoms: C_13  and  C_14
REMARK    7  A    between atoms: C_24  and  C_25
REMARK                            x       y       z     vdW  Elec       q    Type
REMARK                         _______ _______ _______ _____ _____    ______ ____
ROOT
ATOM      1  N   UNL     1       0.523   9.678  19.264  0.00  0.00    +0.000 N 
ATOM      2  C   UNL     1       1.216   8.860  20.116  0.00  0.00    +0.000 C 
ATOM      3  O   UNL     1       1.204   8.987  21.335  0.00  0.00    +0.000 OA
ATOM      4  H   UNL     1       0.505   9.453  18.271  0.00  0.00    +0.000 HD
ENDROOT
BRANCH   1   7
ATOM      5  C   UNL     1      -1.525  11.290  17.567  0.00  0.00    +0.000 C 
ATOM      6  C   UNL     1      -1.706  10.661  18.953  0.00  0.00    +0.000 C 
ATOM      7  C   UNL     1      -0.387  10.719  19.724  0.00  0.00    +0.000 C 
ATOM      8  C   UNL     1       0.279  12.072  19.597  0.00  0.00    +0.000 A 
ATOM      9  C   UNL     1       1.321  12.414  20.475  0.00  0.00    +0.000 A 
ATOM     10  C   UNL     1       1.946  13.658  20.387  0.00  0.00    +0.000 A 
ATOM     11  C   UNL     1       1.537  14.582  19.422  0.00  0.00    +0.000 A 
ATOM     12  C   UNL     1       2.185  15.930  19.321  0.00  0.00    +0.000 C 
ATOM     13  C   UNL     1       0.499  14.235  18.543  0.00  0.00    +0.000 A 
ATOM     14  C   UNL     1      -0.115  12.975  18.596  0.00  0.00    +0.000 A 
ATOM     15  N   UNL     1      -1.205  12.709  17.745  0.00  0.00    +0.000 N 
ATOM     16  H   UNL     1      -1.130  13.230  16.876  0.00  0.00    +0.000 HD
BRANCH   5  17
ATOM     17  C   UNL     1      -2.818  11.122  16.751  0.00  0.00    +0.000 C 
BRANCH  17  19
ATOM     18  C   UNL     1      -3.235  10.136  14.472  0.00  0.00    +0.000 C 
ATOM     19  C   UNL     1      -2.864   9.837  15.918  0.00  0.00    +0.000 C 
ENDBRANCH  17  19
ENDBRANCH   5  17
ENDBRANCH   1   7
BRANCH   2  20
ATOM     20  C   UNL     1       2.031   7.804  19.446  0.00  0.00    +0.000 A 
ATOM     21  C   UNL     1       2.247   6.648  20.103  0.00  0.00    +0.000 A 
ATOM     22  C   UNL     1       3.091   5.610  19.552  0.00  0.00    +0.000 A 
ATOM     23  C   UNL     1       3.668   5.763  18.348  0.00  0.00    +0.000 A 
ATOM     24  N   UNL     1       3.415   6.927  17.639  0.00  0.00    +0.000 N 
ATOM     25  C   UNL     1       2.641   7.969  18.095  0.00  0.00    +0.000 A 
ATOM     26  O   UNL     1       2.478   8.979  17.417  0.00  0.00    +0.000 OA
ATOM     27  H   UNL     1       3.836   7.054  16.722  0.00  0.00    +0.000 HD
BRANCH  23  28
ATOM     28  C   UNL     1       4.605   4.740  17.747  0.00  0.00    +0.000 C 
ATOM     29  F   UNL     1       4.175   4.329  16.524  0.00  0.00    +0.000 F 
ATOM     30  F   UNL     1       5.854   5.241  17.577  0.00  0.00    +0.000 F 
ATOM     31  F   UNL     1       4.717   3.633  18.521  0.00  0.00    +0.000 F 
ENDBRANCH  23  28
ENDBRANCH   2  20
TORSDOF 5
ENDMDL
MODEL 3
REMARK VINA RESULT:      -8.2      4.030      8.829
REMARK  Name = 
REMARK  7 active torsions:
REMARK  status: ('A' for Active; 'I' for Inactive)
REMARK    1  A    between atoms: C_1  and  C_2
REMARK    2  A    between atoms: C_2  and  C_3
REMARK    3  A    between atoms: C_3  and  C_4
REMARK    4  A    between atoms: C_6  and  N_7
REMARK    5  A    between atoms: C_8  and  C_10
REMARK    6  A    between atoms: C_13  and  C_14
REMARK    7  A    between atoms: C_24  and  C_25
REMARK                            x       y       z     vdW  Elec       q    Type
REMARK                         _______ _______ _______ _____ _____    ______ ____
ROOT
ATOM      1  N   UNL     1       0.632   9.634  19.160  0.00  0.00    +0.000 N 
ATOM      2  C   UNL     1       1.274   8.738  19.973  0.00  0.00    +0.000 C 
ATOM      3  O   UNL     1       1.175   8.744  21.195  0.00  0.00    +0.000 OA
ATOM      4  H   UNL     1       0.687   9.508  18.150  0.00  0.00    +0.000 HD
ENDROOT
BRANCH   1   7
ATOM      5  C   UNL     1      -1.478  11.221  17.517  0.00  0.00    +0.000 C 
ATOM      6  C   UNL     1      -1.634  10.536  18.879  0.00  0.00    +0.000 C 
ATOM      7  C   UNL     1      -0.319  10.620  19.654  0.00  0.00    +0.000 C 
ATOM      8  C   UNL     1       0.291  12.002  19.576  0.00  0.00    +0.000 A 
ATOM      9  C   UNL     1       1.318  12.355  20.468  0.00  0.00    +0.000 A 
ATOM     10  C   UNL     1       1.892  13.625  20.426  0.00  0.00    +0.000 A 
ATOM     11  C   UNL     1       1.446  14.566  19.493  0.00  0.00    +0.000 A 
ATOM     12  C   UNL     1       2.039  15.942  19.441  0.00  0.00    +0.000 C 
ATOM     13  C   UNL     1       0.424  14.208  18.601  0.00  0.00    +0.000 A 
ATOM     14  C   UNL     1      -0.138  12.924  18.607  0.00  0.00    +0.000 A 
ATOM     15  N   UNL     1      -1.216  12.644  17.745  0.00  0.00    +0.000 N 
ATOM     16  H   UNL     1      -1.162  13.199  16.895  0.00  0.00    +0.000 HD
BRANCH   5  17
ATOM     17  C   UNL     1      -2.763  11.029  16.692  0.00  0.00    +0.000 C 
BRANCH  17  19
ATOM     18  C   UNL     1      -3.400  10.135  14.427  0.00  0.00    +0.000 C 
ATOM     19  C   UNL     1      -2.723   9.820  15.754  0.00  0.00    +0.000 C 
ENDBRANCH  17  19
ENDBRANCH   5  17
ENDBRANCH   1   7
BRANCH   2  20
ATOM     20  C   UNL     1       2.146   7.758  19.262  0.00  0.00    +0.000 A 
ATOM     21  C   UNL     1       2.795   8.164  18.153  0.00  0.00    +0.000 A 
ATOM     22  C   UNL     1       3.596   7.252  17.367  0.00  0.00    +0.000 A 
ATOM     23  C   UNL     1       3.736   5.968  17.740  0.00  0.00    +0.000 A 
ATOM     24  N   UNL     1       3.115   5.548  18.905  0.00  0.00    +0.000 N 
ATOM     25  C   UNL     1       2.323   6.343  19.701  0.00  0.00    +0.000 A 
ATOM     26  O   UNL     1       1.788   5.895  20.711  0.00  0.00    +0.000 OA
ATOM     27  H   UNL     1       3.219   4.582  19.206  0.00  0.00    +0.000 HD
BRANCH  23  28
ATOM     28  C   UNL     1       4.511   4.955  16.929  0.00  0.00    +0.000 C 
ATOM     29  F   UNL     1       4.951   5.488  15.757  0.00  0.00    +0.000 F 
ATOM     30  F   UNL     1       5.607   4.510  17.594  0.00  0.00    +0.000 F 
ATOM     31  F   UNL     1       3.762   3.869  16.615  0.00  0.00    +0.000 F 
ENDBRANCH  23  28
ENDBRANCH   2  20
TORSDOF 5
ENDMDL
MODEL 4
REMARK VINA RESULT:      -8.2      0.966      1.316
REMARK  Name = 
REMARK  7 active torsions:
REMARK  status: ('A' for Active; 'I' for Inactive)
REMARK    1  A    between atoms: C_1  and  C_2
REMARK    2  A    between atoms: C_2  and  C_3
REMARK    3  A    between atoms: C_3  and  C_4
REMARK    4  A    between atoms: C_6  and  N_7
REMARK    5  A    between atoms: C_8  and  C_10
REMARK    6  A    between atoms: C_13  and  C_14
REMARK    7  A    between atoms: C_24  and  C_25
REMARK                            x       y       z     vdW  Elec       q    Type
REMARK                         _______ _______ _______ _____ _____    ______ ____
ROOT
ATOM      1  N   UNL     1       4.327   6.555  18.431  0.00  0.00    +0.000 N 
ATOM      2  C   UNL     1       3.297   6.432  19.326  0.00  0.00    +0.000 C 
ATOM      3  O   UNL     1       3.162   5.471  20.073  0.00  0.00    +0.000 OA
ATOM      4  H   UNL     1       4.425   7.425  17.910  0.00  0.00    +0.000 HD
ENDROOT
BRANCH   1   7
ATOM      5  C   UNL     1       7.313   7.165  17.812  0.00  0.00    +0.000 C 
ATOM      6  C   UNL     1       6.720   6.232  18.874  0.00  0.00    +0.000 C 
ATOM      7  C   UNL     1       5.428   5.605  18.349  0.00  0.00    +0.000 C 
ATOM      8  C   UNL     1       5.578   5.118  16.925  0.00  0.00    +0.000 A 
ATOM      9  C   UNL     1       4.617   4.246  16.388  0.00  0.00    +0.000 A 
ATOM     10  C   UNL     1       4.735   3.774  15.081  0.00  0.00    +0.000 A 
ATOM     11  C   UNL     1       5.820   4.162  14.290  0.00  0.00    +0.000 A 
ATOM     12  C   UNL     1       5.975   3.654  12.888  0.00  0.00    +0.000 C 
ATOM     13  C   UNL     1       6.776   5.037  14.828  0.00  0.00    +0.000 A 
ATOM     14  C   UNL     1       6.652   5.549  16.128  0.00  0.00    +0.000 A 
ATOM     15  N   UNL     1       7.681   6.359  16.646  0.00  0.00    +0.000 N 
ATOM     16  H   UNL     1       8.146   6.882  15.909  0.00  0.00    +0.000 HD
BRANCH   5  17
ATOM     17  C   UNL     1       8.544   7.886  18.387  0.00  0.00    +0.000 C 
BRANCH  17  19
ATOM     18  C   UNL     1       9.263  10.112  19.317  0.00  0.00    +0.000 C 
ATOM     19  C   UNL     1       8.522   9.405  18.191  0.00  0.00    +0.000 C 
ENDBRANCH  17  19
ENDBRANCH   5  17
ENDBRANCH   1   7
BRANCH   2  20
ATOM     20  C   UNL     1       2.311   7.553  19.304  0.00  0.00    +0.000 A 
ATOM     21  C   UNL     1       1.617   7.817  20.428  0.00  0.00    +0.000 A 
ATOM     22  C   UNL     1       0.590   8.835  20.463  0.00  0.00    +0.000 A 
ATOM     23  C   UNL     1       0.315   9.568  19.370  0.00  0.00    +0.000 A 
ATOM     24  N   UNL     1       1.054   9.341  18.220  0.00  0.00    +0.000 N 
ATOM     25  C   UNL     1       2.035   8.384  18.096  0.00  0.00    +0.000 A 
ATOM     26  O   UNL     1       2.636   8.227  17.037  0.00  0.00    +0.000 OA
ATOM     27  H   UNL     1       0.866   9.893  17.388  0.00  0.00    +0.000 HD
BRANCH  23  28
ATOM     28  C   UNL     1      -0.785  10.604  19.328  0.00  0.00    +0.000 C 
ATOM     29  F   UNL     1      -1.895  10.126  18.703  0.00  0.00    +0.000 F 
ATOM     30  F   UNL     1      -1.168  10.982  20.574  0.00  0.00    +0.000 F 
ATOM     31  F   UNL     1      -0.408  11.725  18.665  0.00  0.00    +0.000 F 
ENDBRANCH  23  28
ENDBRANCH   2  20
TORSDOF 5
ENDMDL
MODEL 5
REMARK VINA RESULT:      -8.1      5.065      8.699
REMARK  Name = 
REMARK  7 active torsions:
REMARK  status: ('A' for Active; 'I' for Inactive)
REMARK    1  A    between atoms: C_1  and  C_2
REMARK    2  A    between atoms: C_2  and  C_3
REMARK    3  A    between atoms: C_3  and  C_4
REMARK    4  A    between atoms: C_6  and  N_7
REMARK    5  A    between atoms: C_8  and  C_10
REMARK    6  A    between atoms: C_13  and  C_14
REMARK    7  A    between atoms: C_24  and  C_25
REMARK                            x       y       z     vdW  Elec       q    Type
REMARK                         _______ _______ _______ _____ _____    ______ ____
ROOT
ATOM      1  N   UNL     1       0.581   9.625  18.839  0.00  0.00    +0.000 N 
ATOM      2  C   UNL     1       1.653   8.939  18.334  0.00  0.00    +0.000 C 
ATOM      3  O   UNL     1       2.331   9.341  17.395  0.00  0.00    +0.000 OA
ATOM      4  H   UNL     1       0.124   9.275  19.680  0.00  0.00    +0.000 HD
ENDROOT
BRANCH   1   7
ATOM      5  C   UNL     1      -0.214  12.071  20.588  0.00  0.00    +0.000 C 
ATOM      6  C   UNL     1       0.700  12.022  19.358  0.00  0.00    +0.000 C 
ATOM      7  C   UNL     1       0.200  10.955  18.384  0.00  0.00    +0.000 C 
ATOM      8  C   UNL     1      -1.300  11.022  18.200  0.00  0.00    +0.000 A 
ATOM      9  C   UNL     1      -1.895  10.343  17.123  0.00  0.00    +0.000 A 
ATOM     10  C   UNL     1      -3.274  10.395  16.923  0.00  0.00    +0.000 A 
ATOM     11  C   UNL     1      -4.082  11.131  17.794  0.00  0.00    +0.000 A 
ATOM     12  C   UNL     1      -5.565  11.213  17.588  0.00  0.00    +0.000 C 
ATOM     13  C   UNL     1      -3.485  11.805  18.871  0.00  0.00    +0.000 A 
ATOM     14  C   UNL     1      -2.105  11.733  19.106  0.00  0.00    +0.000 A 
ATOM     15  N   UNL     1      -1.548  12.493  20.152  0.00  0.00    +0.000 N 
ATOM     16  H   UNL     1      -2.212  12.619  20.911  0.00  0.00    +0.000 HD
BRANCH   5  17
ATOM     17  C   UNL     1       0.360  13.059  21.619  0.00  0.00    +0.000 C 
BRANCH  17  19
ATOM     18  C   UNL     1      -1.233  13.764  23.437  0.00  0.00    +0.000 C 
ATOM     19  C   UNL     1      -0.640  14.123  22.081  0.00  0.00    +0.000 C 
ENDBRANCH  17  19
ENDBRANCH   5  17
ENDBRANCH   1   7
BRANCH   2  20
ATOM     20  C   UNL     1       1.924   7.627  18.991  0.00  0.00    +0.000 A 
ATOM     21  C   UNL     1       2.335   6.599  18.223  0.00  0.00    +0.000 A 
ATOM     22  C   UNL     1       2.543   5.277  18.774  0.00  0.00    +0.000 A 
ATOM     23  C   UNL     1       2.353   5.044  20.084  0.00  0.00    +0.000 A 
ATOM     24  N   UNL     1       1.978   6.103  20.895  0.00  0.00    +0.000 N 
ATOM     25  C   UNL     1       1.743   7.384  20.451  0.00  0.00    +0.000 A 
ATOM     26  O   UNL     1       1.393   8.269  21.228  0.00  0.00    +0.000 OA
ATOM     27  H   UNL     1       1.840   5.946  21.890  0.00  0.00    +0.000 HD
BRANCH  23  28
ATOM     28  C   UNL     1       2.498   3.674  20.706  0.00  0.00    +0.000 C 
ATOM     29  F   UNL     1       3.698   3.113  20.399  0.00  0.00    +0.000 F 
ATOM     30  F   UNL     1       2.422   3.725  22.060  0.00  0.00    +0.000 F 
ATOM     31  F   UNL     1       1.538   2.816  20.282  0.00  0.00    +0.000 F 
ENDBRANCH  23  28
ENDBRANCH   2  20
TORSDOF 5
ENDMDL
MODEL 6
REMARK VINA RESULT:      -8.1      5.053      8.269
REMARK  Name = 
REMARK  7 active torsions:
REMARK  status: ('A' for Active; 'I' for Inactive)
REMARK    1  A    between atoms: C_1  and  C_2
REMARK    2  A    between atoms: C_2  and  C_3
REMARK    3  A    between atoms: C_3  and  C_4
REMARK    4  A    between atoms: C_6  and  N_7
REMARK    5  A    between atoms: C_8  and  C_10
REMARK    6  A    between atoms: C_13  and  C_14
REMARK    7  A    between atoms: C_24  and  C_25
REMARK                            x       y       z     vdW  Elec       q    Type
REMARK                         _______ _______ _______ _____ _____    ______ ____
ROOT
ATOM      1  N   UNL     1       0.818   9.246  18.650  0.00  0.00    +0.000 N 
ATOM      2  C   UNL     1       1.872   8.499  18.195  0.00  0.00    +0.000 C 
ATOM      3  O   UNL     1       2.568   8.823  17.240  0.00  0.00    +0.000 OA
ATOM      4  H   UNL     1       0.346   8.960  19.506  0.00  0.00    +0.000 HD
ENDROOT
BRANCH   1   7
ATOM      5  C   UNL     1       0.366  11.883  20.235  0.00  0.00    +0.000 C 
ATOM      6  C   UNL     1       1.146  11.663  18.935  0.00  0.00    +0.000 C 
ATOM      7  C   UNL     1       0.482  10.558  18.113  0.00  0.00    +0.000 C 
ATOM      8  C   UNL     1      -1.021  10.720  18.065  0.00  0.00    +0.000 A 
ATOM      9  C   UNL     1      -1.765   9.998  17.116  0.00  0.00    +0.000 A 
ATOM     10  C   UNL     1      -3.151  10.136  17.043  0.00  0.00    +0.000 A 
ATOM     11  C   UNL     1      -3.817  11.001  17.915  0.00  0.00    +0.000 A 
ATOM     12  C   UNL     1      -5.304  11.175  17.844  0.00  0.00    +0.000 C 
ATOM     13  C   UNL     1      -3.072  11.717  18.866  0.00  0.00    +0.000 A 
ATOM     14  C   UNL     1      -1.683  11.562  18.975  0.00  0.00    +0.000 A 
ATOM     15  N   UNL     1      -0.975  12.364  19.891  0.00  0.00    +0.000 N 
ATOM     16  H   UNL     1      -1.550  12.603  20.694  0.00  0.00    +0.000 HD
BRANCH   5  17
ATOM     17  C   UNL     1       1.103  12.908  21.113  0.00  0.00    +0.000 C 
BRANCH  17  19
ATOM     18  C   UNL     1       2.027  15.035  20.134  0.00  0.00    +0.000 C 
ATOM     19  C   UNL     1       2.303  13.567  20.424  0.00  0.00    +0.000 C 
ENDBRANCH  17  19
ENDBRANCH   5  17
ENDBRANCH   1   7
BRANCH   2  20
ATOM     20  C   UNL     1       2.098   7.220  18.931  0.00  0.00    +0.000 A 
ATOM     21  C   UNL     1       2.524   6.147  18.236  0.00  0.00    +0.000 A 
ATOM     22  C   UNL     1       2.691   4.855  18.865  0.00  0.00    +0.000 A 
ATOM     23  C   UNL     1       2.446   4.694  20.177  0.00  0.00    +0.000 A 
ATOM     24  N   UNL     1       2.054   5.800  20.914  0.00  0.00    +0.000 N 
ATOM     25  C   UNL     1       1.855   7.058  20.394  0.00  0.00    +0.000 A 
ATOM     26  O   UNL     1       1.488   7.987  21.108  0.00  0.00    +0.000 OA
ATOM     27  H   UNL     1       1.874   5.698  21.910  0.00  0.00    +0.000 HD
BRANCH  23  28
ATOM     28  C   UNL     1       2.546   3.358  20.876  0.00  0.00    +0.000 C 
ATOM     29  F   UNL     1       1.573   2.504  20.457  0.00  0.00    +0.000 F 
ATOM     30  F   UNL     1       3.734   2.750  20.632  0.00  0.00    +0.000 F 
ATOM     31  F   UNL     1       2.421   3.473  22.220  0.00  0.00    +0.000 F 
ENDBRANCH  23  28
ENDBRANCH   2  20
TORSDOF 5
ENDMDL
MODEL 7
REMARK VINA RESULT:      -8.0      4.900      8.941
REMARK  Name = 
REMARK  7 active torsions:
REMARK  status: ('A' for Active; 'I' for Inactive)
REMARK    1  A    between atoms: C_1  and  C_2
REMARK    2  A    between atoms: C_2  and  C_3
REMARK    3  A    between atoms: C_3  and  C_4
REMARK    4  A    between atoms: C_6  and  N_7
REMARK    5  A    between atoms: C_8  and  C_10
REMARK    6  A    between atoms: C_13  and  C_14
REMARK    7  A    between atoms: C_24  and  C_25
REMARK                            x       y       z     vdW  Elec       q    Type
REMARK                         _______ _______ _______ _____ _____    ______ ____
ROOT
ATOM      1  N   UNL     1       0.266  10.178  18.786  0.00  0.00    +0.000 N 
ATOM      2  C   UNL     1       1.489   9.709  18.387  0.00  0.00    +0.000 C 
ATOM      3  O   UNL     1       2.239  10.325  17.639  0.00  0.00    +0.000 OA
ATOM      4  H   UNL     1      -0.259   9.653  19.483  0.00  0.00    +0.000 HD
ENDROOT
BRANCH   1   7
ATOM      5  C   UNL     1      -0.765  12.369  20.738  0.00  0.00    +0.000 C 
ATOM      6  C   UNL     1       0.166  12.517  19.529  0.00  0.00    +0.000 C 
ATOM      7  C   UNL     1      -0.225  11.507  18.449  0.00  0.00    +0.000 C 
ATOM      8  C   UNL     1      -1.723  11.460  18.240  0.00  0.00    +0.000 A 
ATOM      9  C   UNL     1      -2.241  10.836  17.093  0.00  0.00    +0.000 A 
ATOM     10  C   UNL     1      -3.617  10.787  16.870  0.00  0.00    +0.000 A 
ATOM     11  C   UNL     1      -4.498  11.364  17.788  0.00  0.00    +0.000 A 
ATOM     12  C   UNL     1      -5.979  11.336  17.560  0.00  0.00    +0.000 C 
ATOM     13  C   UNL     1      -3.977  11.982  18.936  0.00  0.00    +0.000 A 
ATOM     14  C   UNL     1      -2.599  12.009  19.192  0.00  0.00    +0.000 A 
ATOM     15  N   UNL     1      -2.125  12.712  20.316  0.00  0.00    +0.000 N 
ATOM     16  H   UNL     1      -2.808  12.707  21.069  0.00  0.00    +0.000 HD
BRANCH   5  17
ATOM     17  C   UNL     1      -0.294  13.300  21.869  0.00  0.00    +0.000 C 
BRANCH  17  19
ATOM     18  C   UNL     1      -1.659  11.800  23.360  0.00  0.00    +0.000 C 
ATOM     19  C   UNL     1      -1.148  13.217  23.138  0.00  0.00    +0.000 C 
ENDBRANCH  17  19
ENDBRANCH   5  17
ENDBRANCH   1   7
BRANCH   2  20
ATOM     20  C   UNL     1       1.840   8.354  18.905  0.00  0.00    +0.000 A 
ATOM     21  C   UNL     1       2.302   7.435  18.034  0.00  0.00    +0.000 A 
ATOM     22  C   UNL     1       2.590   6.078  18.446  0.00  0.00    +0.000 A 
ATOM     23  C   UNL     1       2.425   5.701  19.726  0.00  0.00    +0.000 A 
ATOM     24  N   UNL     1       1.997   6.648  20.642  0.00  0.00    +0.000 N 
ATOM     25  C   UNL     1       1.686   7.952  20.334  0.00  0.00    +0.000 A 
ATOM     26  O   UNL     1       1.293   8.731  21.198  0.00  0.00    +0.000 OA
ATOM     27  H   UNL     1       1.877   6.382  21.616  0.00  0.00    +0.000 HD
BRANCH  23  28
ATOM     28  C   UNL     1       2.652   4.285  20.203  0.00  0.00    +0.000 C 
ATOM     29  F   UNL     1       2.451   4.174  21.543  0.00  0.00    +0.000 F 
ATOM     30  F   UNL     1       1.806   3.410  19.604  0.00  0.00    +0.000 F 
ATOM     31  F   UNL     1       3.915   3.858  19.954  0.00  0.00    +0.000 F 
ENDBRANCH  23  28
ENDBRANCH   2  20
TORSDOF 5
ENDMDL
MODEL 8
REMARK VINA RESULT:      -7.9      4.210      9.051
REMARK  Name = 
REMARK  7 active torsions:
REMARK  status: ('A' for Active; 'I' for Inactive)
REMARK    1  A    between atoms: C_1  and  C_2
REMARK    2  A    between atoms: C_2  and  C_3
REMARK    3  A    between atoms: C_3  and  C_4
REMARK    4  A    between atoms: C_6  and  N_7
REMARK    5  A    between atoms: C_8  and  C_10
REMARK    6  A    between atoms: C_13  and  C_14
REMARK    7  A    between atoms: C_24  and  C_25
REMARK                            x       y       z     vdW  Elec       q    Type
REMARK                         _______ _______ _______ _____ _____    ______ ____
ROOT
ATOM      1  N   UNL     1       0.484   9.610  19.231  0.00  0.00    +0.000 N 
ATOM      2  C   UNL     1       1.185   8.797  20.082  0.00  0.00    +0.000 C 
ATOM      3  O   UNL     1       1.161   8.914  21.301  0.00  0.00    +0.000 OA
ATOM      4  H   UNL     1       0.479   9.392  18.235  0.00  0.00    +0.000 HD
ENDROOT
BRANCH   1   7
ATOM      5  C   UNL     1      -1.557  11.219  17.524  0.00  0.00    +0.000 C 
ATOM      6  C   UNL     1      -1.752  10.567  18.897  0.00  0.00    +0.000 C 
ATOM      7  C   UNL     1      -0.447  10.631  19.691  0.00  0.00    +0.000 C 
ATOM      8  C   UNL     1       0.201  11.994  19.595  0.00  0.00    +0.000 A 
ATOM      9  C   UNL     1       1.224  12.338  20.496  0.00  0.00    +0.000 A 
ATOM     10  C   UNL     1       1.833  13.591  20.438  0.00  0.00    +0.000 A 
ATOM     11  C   UNL     1       1.427  14.524  19.480  0.00  0.00    +0.000 A 
ATOM     12  C   UNL     1       2.057  15.883  19.410  0.00  0.00    +0.000 C 
ATOM     13  C   UNL     1       0.408  14.176  18.579  0.00  0.00    +0.000 A 
ATOM     14  C   UNL     1      -0.189  12.908  18.601  0.00  0.00    +0.000 A 
ATOM     15  N   UNL     1      -1.260  12.640  17.728  0.00  0.00    +0.000 N 
ATOM     16  H   UNL     1      -1.178  13.175  16.869  0.00  0.00    +0.000 HD
BRANCH   5  17
ATOM     17  C   UNL     1      -2.834  11.046  16.683  0.00  0.00    +0.000 C 
BRANCH  17  19
ATOM     18  C   UNL     1      -5.151  11.822  17.288  0.00  0.00    +0.000 C 
ATOM     19  C   UNL     1      -4.089  10.756  17.513  0.00  0.00    +0.000 C 
ENDBRANCH  17  19
ENDBRANCH   5  17
ENDBRANCH   1   7
BRANCH   2  20
ATOM     20  C   UNL     1       2.025   7.762  19.411  0.00  0.00    +0.000 A 
ATOM     21  C   UNL     1       2.261   6.607  20.063  0.00  0.00    +0.000 A 
ATOM     22  C   UNL     1       3.129   5.589  19.511  0.00  0.00    +0.000 A 
ATOM     23  C   UNL     1       3.707   5.759  18.310  0.00  0.00    +0.000 A 
ATOM     24  N   UNL     1       3.434   6.921  17.605  0.00  0.00    +0.000 N 
ATOM     25  C   UNL     1       2.637   7.945  18.062  0.00  0.00    +0.000 A 
ATOM     26  O   UNL     1       2.456   8.955  17.388  0.00  0.00    +0.000 OA
ATOM     27  H   UNL     1       3.856   7.061  16.691  0.00  0.00    +0.000 HD
BRANCH  23  28
ATOM     28  C   UNL     1       4.668   4.759  17.709  0.00  0.00    +0.000 C 
ATOM     29  F   UNL     1       5.878   4.798  18.328  0.00  0.00    +0.000 F 
ATOM     30  F   UNL     1       4.207   3.488  17.824  0.00  0.00    +0.000 F 
ATOM     31  F   UNL     1       4.888   4.989  16.391  0.00  0.00    +0.000 F 
ENDBRANCH  23  28
ENDBRANCH   2  20
TORSDOF 5
ENDMDL
MODEL 9
REMARK VINA RESULT:      -7.7      2.940      4.860
REMARK  Name = 
REMARK  7 active torsions:
REMARK  status: ('A' for Active; 'I' for Inactive)
REMARK    1  A    between atoms: C_1  and  C_2
REMARK    2  A    between atoms: C_2  and  C_3
REMARK    3  A    between atoms: C_3  and  C_4
REMARK    4  A    between atoms: C_6  and  N_7
REMARK    5  A    between atoms: C_8  and  C_10
REMARK    6  A    between atoms: C_13  and  C_14
REMARK    7  A    between atoms: C_24  and  C_25
REMARK                            x       y       z     vdW  Elec       q    Type
REMARK                         _______ _______ _______ _____ _____    ______ ____
ROOT
ATOM      1  N   UNL     1       2.012   7.196  18.576  0.00  0.00    +0.000 N 
ATOM      2  C   UNL     1       1.876   8.499  18.174  0.00  0.00    +0.000 C 
ATOM      3  O   UNL     1       2.303   8.924  17.107  0.00  0.00    +0.000 OA
ATOM      4  H   UNL     1       1.549   6.896  19.433  0.00  0.00    +0.000 HD
ENDROOT
BRANCH   1   7
ATOM      5  C   UNL     1       2.249   4.160  19.206  0.00  0.00    +0.000 C 
ATOM      6  C   UNL     1       1.818   4.843  17.903  0.00  0.00    +0.000 C 
ATOM      7  C   UNL     1       2.581   6.157  17.730  0.00  0.00    +0.000 C 
ATOM      8  C   UNL     1       4.053   5.996  18.040  0.00  0.00    +0.000 A 
ATOM      9  C   UNL     1       4.957   6.995  17.641  0.00  0.00    +0.000 A 
ATOM     10  C   UNL     1       6.320   6.869  17.904  0.00  0.00    +0.000 A 
ATOM     11  C   UNL     1       6.805   5.738  18.567  0.00  0.00    +0.000 A 
ATOM     12  C   UNL     1       8.269   5.575  18.846  0.00  0.00    +0.000 C 
ATOM     13  C   UNL     1       5.899   4.744  18.969  0.00  0.00    +0.000 A 
ATOM     14  C   UNL     1       4.521   4.873  18.743  0.00  0.00    +0.000 A 
ATOM     15  N   UNL     1       3.668   3.810  19.094  0.00  0.00    +0.000 N 
ATOM     16  H   UNL     1       4.032   3.291  19.888  0.00  0.00    +0.000 HD
BRANCH   5  17
ATOM     17  C   UNL     1       1.394   2.902  19.437  0.00  0.00    +0.000 C 
BRANCH  17  19
ATOM     18  C   UNL     1       2.105   3.257  21.826  0.00  0.00    +0.000 C 
ATOM     19  C   UNL     1       1.056   2.644  20.909  0.00  0.00    +0.000 C 
ENDBRANCH  17  19
ENDBRANCH   5  17
ENDBRANCH   1   7
BRANCH   2  20
ATOM     20  C   UNL     1       1.195   9.391  19.157  0.00  0.00    +0.000 A 
ATOM     21  C   UNL     1       0.642  10.535  18.709  0.00  0.00    +0.000 A 
ATOM     22  C   UNL     1       0.033  11.487  19.612  0.00  0.00    +0.000 A 
ATOM     23  C   UNL     1      -0.020  11.242  20.933  0.00  0.00    +0.000 A 
ATOM     24  N   UNL     1       0.500  10.046  21.402  0.00  0.00    +0.000 N 
ATOM     25  C   UNL     1       1.111   9.096  20.618  0.00  0.00    +0.000 A 
ATOM     26  O   UNL     1       1.566   8.067  21.109  0.00  0.00    +0.000 OA
ATOM     27  H   UNL     1       0.459   9.841  22.397  0.00  0.00    +0.000 HD
BRANCH  23  28
ATOM     28  C   UNL     1      -0.591  12.223  21.930  0.00  0.00    +0.000 C 
ATOM     29  F   UNL     1      -0.795  11.639  23.141  0.00  0.00    +0.000 F 
ATOM     30  F   UNL     1       0.243  13.274  22.136  0.00  0.00    +0.000 F 
ATOM     31  F   UNL     1      -1.782  12.729  21.527  0.00  0.00    +0.000 F 
ENDBRANCH  23  28
ENDBRANCH   2  20
TORSDOF 5
ENDMDL
