MODEL 1
REMARK VINA RESULT:      -8.4      0.000      0.000
REMARK  Name = 
REMARK  1 active torsions:
REMARK  status: ('A' for Active; 'I' for Inactive)
REMARK    1  A    between atoms: C_7  and  C_8
REMARK                            x       y       z     vdW  Elec       q    Type
REMARK                         _______ _______ _______ _____ _____    ______ ____
ROOT
ATOM      1  N   UNL     1       8.432   5.330  20.340  0.00  0.00    +0.000 N 
ATOM      2  C   UNL     1       7.674   5.136  19.249  0.00  0.00    +0.000 A 
ATOM      3  N   UNL     1       8.173   4.826  18.075  0.00  0.00    +0.000 NA
ATOM      4  C   UNL     1       7.147   4.680  17.185  0.00  0.00    +0.000 A 
ATOM      5  C   UNL     1       5.879   4.876  17.665  0.00  0.00    +0.000 A 
ATOM      6  S   UNL     1       5.961   5.326  19.305  0.00  0.00    +0.000 S 
ATOM      7  C   UNL     1       4.650   4.826  16.811  0.00  0.00    +0.000 C 
ATOM      8  C   UNL     1       4.961   4.085  15.492  0.00  0.00    +0.000 C 
ATOM      9  C   UNL     1       6.372   4.293  14.953  0.00  0.00    +0.000 C 
ATOM     10  O   UNL     1       6.611   4.233  13.747  0.00  0.00    +0.000 OA
ATOM     11  N   UNL     1       7.384   4.426  15.864  0.00  0.00    +0.000 N 
ATOM     12  H   UNL     1       9.426   5.439  20.177  0.00  0.00    +0.000 HD
ATOM     13  H   UNL     1       8.062   5.903  21.088  0.00  0.00    +0.000 HD
ATOM     14  H   UNL     1       8.342   4.438  15.543  0.00  0.00    +0.000 HD
ENDROOT
BRANCH   7  15
ATOM     15  C   UNL     1       3.438   4.209  17.497  0.00  0.00    +0.000 A 
ATOM     16  C   UNL     1       3.345   2.811  17.621  0.00  0.00    +0.000 A 
ATOM     17  F   UNL     1       4.324   2.032  17.140  0.00  0.00    +0.000 F 
ATOM     18  C   UNL     1       2.258   2.188  18.227  0.00  0.00    +0.000 A 
ATOM     19  C   UNL     1       1.220   2.956  18.737  0.00  0.00    +0.000 A 
ATOM     20  C   UNL     1       1.281   4.345  18.634  0.00  0.00    +0.000 A 
ATOM     21  C   UNL     1       2.379   4.968  18.020  0.00  0.00    +0.000 A 
ATOM     22 CL   UNL     1       2.350   6.694  17.945  0.00  0.00    +0.000 Cl
ENDBRANCH   7  15
TORSDOF 1
ENDMDL
MODEL 2
REMARK VINA RESULT:      -8.4      2.149      3.216
REMARK  Name = 
REMARK  1 active torsions:
REMARK  status: ('A' for Active; 'I' for Inactive)
REMARK    1  A    between atoms: C_7  and  C_8
REMARK                            x       y       z     vdW  Elec       q    Type
REMARK                         _______ _______ _______ _____ _____    ______ ____
ROOT
ATOM      1  N   UNL     1       7.117   5.111  13.489  0.00  0.00    +0.000 N 
ATOM      2  C   UNL     1       6.867   4.988  14.802  0.00  0.00    +0.000 A 
ATOM      3  N   UNL     1       7.571   5.600  15.726  0.00  0.00    +0.000 NA
ATOM      4  C   UNL     1       7.057   5.286  16.952  0.00  0.00    +0.000 A 
ATOM      5  C   UNL     1       5.976   4.445  16.972  0.00  0.00    +0.000 A 
ATOM      6  S   UNL     1       5.606   3.965  15.381  0.00  0.00    +0.000 S 
ATOM      7  C   UNL     1       5.336   3.944  18.230  0.00  0.00    +0.000 C 
ATOM      8  C   UNL     1       5.742   4.845  19.417  0.00  0.00    +0.000 C 
ATOM      9  C   UNL     1       7.154   5.414  19.341  0.00  0.00    +0.000 C 
ATOM     10  O   UNL     1       7.791   5.683  20.360  0.00  0.00    +0.000 OA
ATOM     11  N   UNL     1       7.643   5.731  18.103  0.00  0.00    +0.000 N 
ATOM     12  H   UNL     1       8.008   5.526  13.242  0.00  0.00    +0.000 HD
ATOM     13  H   UNL     1       6.811   4.371  12.870  0.00  0.00    +0.000 HD
ATOM     14  H   UNL     1       8.521   6.225  18.027  0.00  0.00    +0.000 HD
ENDROOT
BRANCH   7  15
ATOM     15  C   UNL     1       3.820   3.814  18.151  0.00  0.00    +0.000 A 
ATOM     16  C   UNL     1       3.221   2.550  18.304  0.00  0.00    +0.000 A 
ATOM     17  F   UNL     1       3.987   1.471  18.522  0.00  0.00    +0.000 F 
ATOM     18  C   UNL     1       1.844   2.366  18.231  0.00  0.00    +0.000 A 
ATOM     19  C   UNL     1       1.014   3.455  18.004  0.00  0.00    +0.000 A 
ATOM     20  C   UNL     1       1.574   4.723  17.851  0.00  0.00    +0.000 A 
ATOM     21  C   UNL     1       2.964   4.903  17.924  0.00  0.00    +0.000 A 
ATOM     22 CL   UNL     1       3.550   6.515  17.718  0.00  0.00    +0.000 Cl
ENDBRANCH   7  15
TORSDOF 1
ENDMDL
MODEL 3
REMARK VINA RESULT:      -8.3      2.676      3.737
REMARK  Name = 
REMARK  1 active torsions:
REMARK  status: ('A' for Active; 'I' for Inactive)
REMARK    1  A    between atoms: C_7  and  C_8
REMARK                            x       y       z     vdW  Elec       q    Type
REMARK                         _______ _______ _______ _____ _____    ______ ____
ROOT
ATOM      1  N   UNL     1       7.120   5.112  13.472  0.00  0.00    +0.000 N 
ATOM      2  C   UNL     1       6.867   4.987  14.784  0.00  0.00    +0.000 A 
ATOM      3  N   UNL     1       7.569   5.596  15.711  0.00  0.00    +0.000 NA
ATOM      4  C   UNL     1       7.051   5.280  16.935  0.00  0.00    +0.000 A 
ATOM      5  C   UNL     1       5.970   4.440  16.951  0.00  0.00    +0.000 A 
ATOM      6  S   UNL     1       5.603   3.964  15.357  0.00  0.00    +0.000 S 
ATOM      7  C   UNL     1       5.325   3.937  18.205  0.00  0.00    +0.000 C 
ATOM      8  C   UNL     1       5.728   4.835  19.395  0.00  0.00    +0.000 C 
ATOM      9  C   UNL     1       7.142   5.403  19.324  0.00  0.00    +0.000 C 
ATOM     10  O   UNL     1       7.775   5.669  20.346  0.00  0.00    +0.000 OA
ATOM     11  N   UNL     1       7.635   5.722  18.089  0.00  0.00    +0.000 N 
ATOM     12  H   UNL     1       8.013   5.527  13.229  0.00  0.00    +0.000 HD
ATOM     13  H   UNL     1       6.815   4.374  12.850  0.00  0.00    +0.000 HD
ATOM     14  H   UNL     1       8.513   6.215  18.017  0.00  0.00    +0.000 HD
ENDROOT
BRANCH   7  15
ATOM     15  C   UNL     1       3.810   3.809  18.122  0.00  0.00    +0.000 A 
ATOM     16  C   UNL     1       3.028   4.952  17.873  0.00  0.00    +0.000 A 
ATOM     17  F   UNL     1       3.621   6.143  17.707  0.00  0.00    +0.000 F 
ATOM     18  C   UNL     1       1.639   4.902  17.796  0.00  0.00    +0.000 A 
ATOM     19  C   UNL     1       0.984   3.690  17.965  0.00  0.00    +0.000 A 
ATOM     20  C   UNL     1       1.728   2.537  18.210  0.00  0.00    +0.000 A 
ATOM     21  C   UNL     1       3.128   2.593  18.287  0.00  0.00    +0.000 A 
ATOM     22 CL   UNL     1       3.949   1.105  18.597  0.00  0.00    +0.000 Cl
ENDBRANCH   7  15
TORSDOF 1
ENDMDL
MODEL 4
REMARK VINA RESULT:      -8.1      2.727      3.762
REMARK  Name = 
REMARK  1 active torsions:
REMARK  status: ('A' for Active; 'I' for Inactive)
REMARK    1  A    between atoms: C_7  and  C_8
REMARK                            x       y       z     vdW  Elec       q    Type
REMARK                         _______ _______ _______ _____ _____    ______ ____
ROOT
ATOM      1  N   UNL     1       6.444   3.650  13.032  0.00  0.00    +0.000 N 
ATOM      2  C   UNL     1       6.445   4.091  14.300  0.00  0.00    +0.000 A 
ATOM      3  N   UNL     1       7.215   5.069  14.718  0.00  0.00    +0.000 NA
ATOM      4  C   UNL     1       6.968   5.288  16.044  0.00  0.00    +0.000 A 
ATOM      5  C   UNL     1       6.025   4.492  16.637  0.00  0.00    +0.000 A 
ATOM      6  S   UNL     1       5.447   3.362  15.501  0.00  0.00    +0.000 S 
ATOM      7  C   UNL     1       5.683   4.550  18.093  0.00  0.00    +0.000 C 
ATOM      8  C   UNL     1       6.171   5.889  18.690  0.00  0.00    +0.000 C 
ATOM      9  C   UNL     1       7.464   6.429  18.089  0.00  0.00    +0.000 C 
ATOM     10  O   UNL     1       8.228   7.135  18.747  0.00  0.00    +0.000 OA
ATOM     11  N   UNL     1       7.684   6.207  16.757  0.00  0.00    +0.000 N 
ATOM     12  H   UNL     1       7.217   3.958  12.453  0.00  0.00    +0.000 HD
ATOM     13  H   UNL     1       6.132   2.704  12.851  0.00  0.00    +0.000 HD
ATOM     14  H   UNL     1       8.464   6.657  16.301  0.00  0.00    +0.000 HD
ENDROOT
BRANCH   7  15
ATOM     15  C   UNL     1       4.207   4.336  18.399  0.00  0.00    +0.000 A 
ATOM     16  C   UNL     1       3.247   5.195  17.833  0.00  0.00    +0.000 A 
ATOM     17  F   UNL     1       3.638   6.192  17.026  0.00  0.00    +0.000 F 
ATOM     18  C   UNL     1       1.885   5.057  18.082  0.00  0.00    +0.000 A 
ATOM     19  C   UNL     1       1.437   4.040  18.914  0.00  0.00    +0.000 A 
ATOM     20  C   UNL     1       2.360   3.169  19.489  0.00  0.00    +0.000 A 
ATOM     21  C   UNL     1       3.733   3.313  19.235  0.00  0.00    +0.000 A 
ATOM     22 CL   UNL     1       4.788   2.180  20.002  0.00  0.00    +0.000 Cl
ENDBRANCH   7  15
TORSDOF 1
ENDMDL
MODEL 5
REMARK VINA RESULT:      -7.9      2.331      3.358
REMARK  Name = 
REMARK  1 active torsions:
REMARK  status: ('A' for Active; 'I' for Inactive)
REMARK    1  A    between atoms: C_7  and  C_8
REMARK                            x       y       z     vdW  Elec       q    Type
REMARK                         _______ _______ _______ _____ _____    ______ ____
ROOT
ATOM      1  N   UNL     1       6.336   3.659  13.118  0.00  0.00    +0.000 N 
ATOM      2  C   UNL     1       6.389   4.116  14.379  0.00  0.00    +0.000 A 
ATOM      3  N   UNL     1       7.161   5.111  14.749  0.00  0.00    +0.000 NA
ATOM      4  C   UNL     1       6.973   5.343  16.082  0.00  0.00    +0.000 A 
ATOM      5  C   UNL     1       6.072   4.539  16.729  0.00  0.00    +0.000 A 
ATOM      6  S   UNL     1       5.461   3.385  15.635  0.00  0.00    +0.000 S 
ATOM      7  C   UNL     1       5.799   4.611  18.199  0.00  0.00    +0.000 C 
ATOM      8  C   UNL     1       6.291   5.965  18.756  0.00  0.00    +0.000 C 
ATOM      9  C   UNL     1       7.544   6.519  18.088  0.00  0.00    +0.000 C 
ATOM     10  O   UNL     1       8.327   7.245  18.700  0.00  0.00    +0.000 OA
ATOM     11  N   UNL     1       7.706   6.283  16.750  0.00  0.00    +0.000 N 
ATOM     12  H   UNL     1       7.076   3.972  12.500  0.00  0.00    +0.000 HD
ATOM     13  H   UNL     1       6.032   2.706  12.964  0.00  0.00    +0.000 HD
ATOM     14  H   UNL     1       8.456   6.740  16.252  0.00  0.00    +0.000 HD
ENDROOT
BRANCH   7  15
ATOM     15  C   UNL     1       4.342   4.376  18.576  0.00  0.00    +0.000 A 
ATOM     16  C   UNL     1       3.986   3.215  19.287  0.00  0.00    +0.000 A 
ATOM     17  F   UNL     1       4.930   2.328  19.631  0.00  0.00    +0.000 F 
ATOM     18  C   UNL     1       2.671   2.939  19.652  0.00  0.00    +0.000 A 
ATOM     19  C   UNL     1       1.662   3.829  19.314  0.00  0.00    +0.000 A 
ATOM     20  C   UNL     1       1.979   4.991  18.611  0.00  0.00    +0.000 A 
ATOM     21  C   UNL     1       3.306   5.264  18.246  0.00  0.00    +0.000 A 
ATOM     22 CL   UNL     1       3.586   6.731  17.376  0.00  0.00    +0.000 Cl
ENDBRANCH   7  15
TORSDOF 1
ENDMDL
MODEL 6
REMARK VINA RESULT:      -7.6      2.921      3.619
REMARK  Name = 
REMARK  1 active torsions:
REMARK  status: ('A' for Active; 'I' for Inactive)
REMARK    1  A    between atoms: C_7  and  C_8
REMARK                            x       y       z     vdW  Elec       q    Type
REMARK                         _______ _______ _______ _____ _____    ______ ____
ROOT
ATOM      1  N   UNL     1       7.839   4.385  17.162  0.00  0.00    +0.000 N 
ATOM      2  C   UNL     1       6.662   4.947  17.479  0.00  0.00    +0.000 A 
ATOM      3  N   UNL     1       6.196   6.020  16.884  0.00  0.00    +0.000 NA
ATOM      4  C   UNL     1       4.977   6.327  17.418  0.00  0.00    +0.000 A 
ATOM      5  C   UNL     1       4.511   5.504  18.409  0.00  0.00    +0.000 A 
ATOM      6  S   UNL     1       5.678   4.310  18.744  0.00  0.00    +0.000 S 
ATOM      7  C   UNL     1       3.231   5.736  19.150  0.00  0.00    +0.000 C 
ATOM      8  C   UNL     1       2.332   6.702  18.348  0.00  0.00    +0.000 C 
ATOM      9  C   UNL     1       3.078   7.778  17.567  0.00  0.00    +0.000 C 
ATOM     10  O   UNL     1       2.562   8.870  17.330  0.00  0.00    +0.000 OA
ATOM     11  N   UNL     1       4.293   7.445  17.032  0.00  0.00    +0.000 N 
ATOM     12  H   UNL     1       8.460   4.946  16.590  0.00  0.00    +0.000 HD
ATOM     13  H   UNL     1       8.305   3.819  17.860  0.00  0.00    +0.000 HD
ATOM     14  H   UNL     1       4.753   8.089  16.406  0.00  0.00    +0.000 HD
ENDROOT
BRANCH   7  15
ATOM     15  C   UNL     1       2.470   4.462  19.497  0.00  0.00    +0.000 A 
ATOM     16  C   UNL     1       2.098   4.216  20.831  0.00  0.00    +0.000 A 
ATOM     17  F   UNL     1       2.411   5.104  21.786  0.00  0.00    +0.000 F 
ATOM     18  C   UNL     1       1.412   3.067  21.213  0.00  0.00    +0.000 A 
ATOM     19  C   UNL     1       1.070   2.120  20.258  0.00  0.00    +0.000 A 
ATOM     20  C   UNL     1       1.420   2.334  18.925  0.00  0.00    +0.000 A 
ATOM     21  C   UNL     1       2.113   3.493  18.546  0.00  0.00    +0.000 A 
ATOM     22 CL   UNL     1       2.499   3.655  16.870  0.00  0.00    +0.000 Cl
ENDBRANCH   7  15
TORSDOF 1
ENDMDL
MODEL 7
REMARK VINA RESULT:      -7.5      1.688      2.013
REMARK  Name = 
REMARK  1 active torsions:
REMARK  status: ('A' for Active; 'I' for Inactive)
REMARK    1  A    between atoms: C_7  and  C_8
REMARK                            x       y       z     vdW  Elec       q    Type
REMARK                         _______ _______ _______ _____ _____    ______ ____
ROOT
ATOM      1  N   UNL     1       8.282   5.484  20.282  0.00  0.00    +0.000 N 
ATOM      2  C   UNL     1       7.518   5.199  19.216  0.00  0.00    +0.000 A 
ATOM      3  N   UNL     1       8.013   4.853  18.051  0.00  0.00    +0.000 NA
ATOM      4  C   UNL     1       6.982   4.614  17.187  0.00  0.00    +0.000 A 
ATOM      5  C   UNL     1       5.714   4.774  17.679  0.00  0.00    +0.000 A 
ATOM      6  S   UNL     1       5.799   5.311  19.293  0.00  0.00    +0.000 S 
ATOM      7  C   UNL     1       4.475   4.622  16.851  0.00  0.00    +0.000 C 
ATOM      8  C   UNL     1       4.801   3.831  15.565  0.00  0.00    +0.000 C 
ATOM      9  C   UNL     1       6.192   4.077  14.992  0.00  0.00    +0.000 C 
ATOM     10  O   UNL     1       6.415   3.966  13.786  0.00  0.00    +0.000 OA
ATOM     11  N   UNL     1       7.211   4.303  15.877  0.00  0.00    +0.000 N 
ATOM     12  H   UNL     1       9.268   5.631  20.096  0.00  0.00    +0.000 HD
ATOM     13  H   UNL     1       7.896   6.077  21.007  0.00  0.00    +0.000 HD
ATOM     14  H   UNL     1       8.162   4.344  15.539  0.00  0.00    +0.000 HD
ENDROOT
BRANCH   7  15
ATOM     15  C   UNL     1       3.304   3.986  17.588  0.00  0.00    +0.000 A 
ATOM     16  C   UNL     1       2.224   4.787  18.001  0.00  0.00    +0.000 A 
ATOM     17  F   UNL     1       2.231   6.102  17.740  0.00  0.00    +0.000 F 
ATOM     18  C   UNL     1       1.131   4.267  18.688  0.00  0.00    +0.000 A 
ATOM     19  C   UNL     1       1.084   2.911  18.982  0.00  0.00    +0.000 A 
ATOM     20  C   UNL     1       2.136   2.088  18.584  0.00  0.00    +0.000 A 
ATOM     21  C   UNL     1       3.237   2.617  17.893  0.00  0.00    +0.000 A 
ATOM     22 CL   UNL     1       4.485   1.507  17.451  0.00  0.00    +0.000 Cl
ENDBRANCH   7  15
TORSDOF 1
ENDMDL
MODEL 8
REMARK VINA RESULT:      -7.0      3.244      4.082
REMARK  Name = 
REMARK  1 active torsions:
REMARK  status: ('A' for Active; 'I' for Inactive)
REMARK    1  A    between atoms: C_7  and  C_8
REMARK                            x       y       z     vdW  Elec       q    Type
REMARK                         _______ _______ _______ _____ _____    ______ ____
ROOT
ATOM      1  N   UNL     1       8.012   5.297  19.162  0.00  0.00    +0.000 N 
ATOM      2  C   UNL     1       6.724   5.092  18.842  0.00  0.00    +0.000 A 
ATOM      3  N   UNL     1       6.218   3.900  18.629  0.00  0.00    +0.000 NA
ATOM      4  C   UNL     1       4.889   4.029  18.345  0.00  0.00    +0.000 A 
ATOM      5  C   UNL     1       4.379   5.300  18.338  0.00  0.00    +0.000 A 
ATOM      6  S   UNL     1       5.632   6.412  18.644  0.00  0.00    +0.000 S 
ATOM      7  C   UNL     1       2.962   5.626  17.978  0.00  0.00    +0.000 C 
ATOM      8  C   UNL     1       2.091   4.355  18.084  0.00  0.00    +0.000 C 
ATOM      9  C   UNL     1       2.796   3.057  17.706  0.00  0.00    +0.000 C 
ATOM     10  O   UNL     1       2.172   2.101  17.246  0.00  0.00    +0.000 OA
ATOM     11  N   UNL     1       4.126   2.946  18.010  0.00  0.00    +0.000 N 
ATOM     12  H   UNL     1       8.635   4.509  19.023  0.00  0.00    +0.000 HD
ATOM     13  H   UNL     1       8.421   6.200  18.957  0.00  0.00    +0.000 HD
ATOM     14  H   UNL     1       4.590   2.058  17.890  0.00  0.00    +0.000 HD
ENDROOT
BRANCH   7  15
ATOM     15  C   UNL     1       2.355   6.760  18.793  0.00  0.00    +0.000 A 
ATOM     16  C   UNL     1       2.177   8.024  18.201  0.00  0.00    +0.000 A 
ATOM     17  F   UNL     1       2.538   8.220  16.925  0.00  0.00    +0.000 F 
ATOM     18  C   UNL     1       1.637   9.102  18.897  0.00  0.00    +0.000 A 
ATOM     19  C   UNL     1       1.252   8.944  20.221  0.00  0.00    +0.000 A 
ATOM     20  C   UNL     1       1.411   7.704  20.837  0.00  0.00    +0.000 A 
ATOM     21  C   UNL     1       1.957   6.620  20.132  0.00  0.00    +0.000 A 
ATOM     22 CL   UNL     1       2.112   5.131  20.994  0.00  0.00    +0.000 Cl
ENDBRANCH   7  15
TORSDOF 1
ENDMDL
MODEL 9
REMARK VINA RESULT:      -6.9      3.890      5.017
REMARK  Name = 
REMARK  1 active torsions:
REMARK  status: ('A' for Active; 'I' for Inactive)
REMARK    1  A    between atoms: C_7  and  C_8
REMARK                            x       y       z     vdW  Elec       q    Type
REMARK                         _______ _______ _______ _____ _____    ______ ____
ROOT
ATOM      1  N   UNL     1       0.860   1.513  18.568  0.00  0.00    +0.000 N 
ATOM      2  C   UNL     1       1.824   2.436  18.712  0.00  0.00    +0.000 A 
ATOM      3  N   UNL     1       3.084   2.209  18.424  0.00  0.00    +0.000 NA
ATOM      4  C   UNL     1       3.803   3.346  18.661  0.00  0.00    +0.000 A 
ATOM      5  C   UNL     1       3.109   4.431  19.127  0.00  0.00    +0.000 A 
ATOM      6  S   UNL     1       1.474   4.004  19.340  0.00  0.00    +0.000 S 
ATOM      7  C   UNL     1       3.750   5.730  19.505  0.00  0.00    +0.000 C 
ATOM      8  C   UNL     1       5.156   5.821  18.871  0.00  0.00    +0.000 C 
ATOM      9  C   UNL     1       5.901   4.495  18.762  0.00  0.00    +0.000 C 
ATOM     10  O   UNL     1       7.131   4.449  18.785  0.00  0.00    +0.000 OA
ATOM     11  N   UNL     1       5.161   3.371  18.513  0.00  0.00    +0.000 N 
ATOM     12  H   UNL     1       1.175   0.560  18.429  0.00  0.00    +0.000 HD
ATOM     13  H   UNL     1       0.020   1.603  19.126  0.00  0.00    +0.000 HD
ATOM     14  H   UNL     1       5.632   2.502  18.309  0.00  0.00    +0.000 HD
ENDROOT
BRANCH   7  15
ATOM     15  C   UNL     1       2.925   6.961  19.154  0.00  0.00    +0.000 A 
ATOM     16  C   UNL     1       2.014   7.478  20.092  0.00  0.00    +0.000 A 
ATOM     17  F   UNL     1       1.882   6.888  21.289  0.00  0.00    +0.000 F 
ATOM     18  C   UNL     1       1.225   8.593  19.827  0.00  0.00    +0.000 A 
ATOM     19  C   UNL     1       1.327   9.233  18.600  0.00  0.00    +0.000 A 
ATOM     20  C   UNL     1       2.222   8.749  17.647  0.00  0.00    +0.000 A 
ATOM     21  C   UNL     1       3.015   7.624  17.919  0.00  0.00    +0.000 A 
ATOM     22 CL   UNL     1       4.088   7.108  16.667  0.00  0.00    +0.000 Cl
ENDBRANCH   7  15
TORSDOF 1
ENDMDL
