MODEL 1
REMARK VINA RESULT:      -8.0      0.000      0.000
REMARK  Name = 
REMARK  7 active torsions:
REMARK  status: ('A' for Active; 'I' for Inactive)
REMARK    1  A    between atoms: C_1  and  C_2
REMARK    2  A    between atoms: C_2  and  C_3
REMARK    3  A    between atoms: C_2  and  N_4
REMARK    4  A    between atoms: C_6  and  C_7
REMARK    5  A    between atoms: C_7  and  N_8
REMARK    6  A    between atoms: C_14  and  C_15
REMARK    7  A    between atoms: N_23  and  C_24
REMARK                            x       y       z     vdW  Elec       q    Type
REMARK                         _______ _______ _______ _____ _____    ______ ____
ROOT
ATOM      1  N   UNL     1       2.856   6.775  17.977  0.00  0.00    +0.000 N 
ATOM      2  C   UNL     1       2.309   7.030  19.200  0.00  0.00    +0.000 C 
ATOM      3  O   UNL     1       2.320   6.195  20.109  0.00  0.00    +0.000 OA
ATOM      4  N   UNL     1       1.704   8.266  19.291  0.00  0.00    +0.000 N 
ATOM      5  C   UNL     1       1.313   8.725  20.626  0.00  0.00    +0.000 C 
ATOM      6  C   UNL     1      -0.032   9.431  20.619  0.00  0.00    +0.000 C 
ATOM      7  C   UNL     1      -0.109  10.547  19.572  0.00  0.00    +0.000 C 
ATOM      8  C   UNL     1       0.203   9.930  18.195  0.00  0.00    +0.000 C 
ATOM      9  C   UNL     1       1.527   9.173  18.134  0.00  0.00    +0.000 C 
ATOM     10  H   UNL     1       3.312   7.622  17.666  0.00  0.00    +0.000 HD
ENDROOT
BRANCH   7  11
ATOM     11  C   UNL     1       0.734  11.775  19.906  0.00  0.00    +0.000 A 
ATOM     12  N   UNL     1       1.738  12.162  19.096  0.00  0.00    +0.000 NA
ATOM     13  C   UNL     1       2.242  13.306  19.626  0.00  0.00    +0.000 A 
ATOM     14  C   UNL     1       3.286  14.112  19.150  0.00  0.00    +0.000 A 
ATOM     15  C   UNL     1       3.639  15.257  19.879  0.00  0.00    +0.000 A 
ATOM     16  C   UNL     1       2.966  15.595  21.048  0.00  0.00    +0.000 A 
ATOM     17  C   UNL     1       1.919  14.810  21.523  0.00  0.00    +0.000 A 
ATOM     18  C   UNL     1       1.581  13.665  20.785  0.00  0.00    +0.000 A 
ATOM     19  N   UNL     1       0.609  12.693  20.948  0.00  0.00    +0.000 N 
ATOM     20  C   UNL     1      -0.338  12.810  22.041  0.00  0.00    +0.000 C 
ENDBRANCH   7  11
BRANCH   1  21
ATOM     21  C   UNL     1       3.593   5.552  17.794  0.00  0.00    +0.000 C 
BRANCH  21  24
ATOM     22  N   UNL     1       6.469   4.916  15.572  0.00  0.00    +0.000 N 
ATOM     23  C   UNL     1       5.059   5.205  15.721  0.00  0.00    +0.000 C 
ATOM     24  C   UNL     1       4.943   5.759  17.131  0.00  0.00    +0.000 C 
ATOM     25  C   UNL     1       6.063   5.047  17.889  0.00  0.00    +0.000 C 
ATOM     26  C   UNL     1       7.062   4.689  16.811  0.00  0.00    +0.000 C 
ATOM     27  O   UNL     1       8.160   4.222  17.029  0.00  0.00    +0.000 OA
BRANCH  22  29
ATOM     28  C   UNL     1       5.857   3.723  13.478  0.00  0.00    +0.000 C 
ATOM     29  C   UNL     1       6.966   4.366  14.308  0.00  0.00    +0.000 C 
ATOM     30  C   UNL     1       7.727   5.415  13.495  0.00  0.00    +0.000 C 
ENDBRANCH  22  29
ENDBRANCH  21  24
ENDBRANCH   1  21
TORSDOF 4
ENDMDL
MODEL 2
REMARK VINA RESULT:      -7.8      3.530      5.717
REMARK  Name = 
REMARK  7 active torsions:
REMARK  status: ('A' for Active; 'I' for Inactive)
REMARK    1  A    between atoms: C_1  and  C_2
REMARK    2  A    between atoms: C_2  and  C_3
REMARK    3  A    between atoms: C_2  and  N_4
REMARK    4  A    between atoms: C_6  and  C_7
REMARK    5  A    between atoms: C_7  and  N_8
REMARK    6  A    between atoms: C_14  and  C_15
REMARK    7  A    between atoms: N_23  and  C_24
REMARK                            x       y       z     vdW  Elec       q    Type
REMARK                         _______ _______ _______ _____ _____    ______ ____
ROOT
ATOM      1  N   UNL     1       1.545   8.666  18.655  0.00  0.00    +0.000 N 
ATOM      2  C   UNL     1       1.450   9.994  18.359  0.00  0.00    +0.000 C 
ATOM      3  O   UNL     1       2.226  10.548  17.575  0.00  0.00    +0.000 OA
ATOM      4  N   UNL     1       0.457  10.648  19.058  0.00  0.00    +0.000 N 
ATOM      5  C   UNL     1       0.117  12.007  18.629  0.00  0.00    +0.000 C 
ATOM      6  C   UNL     1      -0.142  12.932  19.806  0.00  0.00    +0.000 C 
ATOM      7  C   UNL     1      -1.163  12.361  20.794  0.00  0.00    +0.000 C 
ATOM      8  C   UNL     1      -0.648  10.988  21.269  0.00  0.00    +0.000 C 
ATOM      9  C   UNL     1      -0.333  10.013  20.138  0.00  0.00    +0.000 C 
ATOM     10  H   UNL     1       0.605   8.302  18.721  0.00  0.00    +0.000 HD
ENDROOT
BRANCH   7  11
ATOM     11  C   UNL     1      -2.596  12.337  20.267  0.00  0.00    +0.000 A 
ATOM     12  N   UNL     1      -2.859  11.952  19.004  0.00  0.00    +0.000 NA
ATOM     13  C   UNL     1      -4.209  11.976  18.866  0.00  0.00    +0.000 A 
ATOM     14  C   UNL     1      -4.986  11.644  17.747  0.00  0.00    +0.000 A 
ATOM     15  C   UNL     1      -6.382  11.753  17.840  0.00  0.00    +0.000 A 
ATOM     16  C   UNL     1      -6.988  12.176  19.018  0.00  0.00    +0.000 A 
ATOM     17  C   UNL     1      -6.227  12.495  20.140  0.00  0.00    +0.000 A 
ATOM     18  C   UNL     1      -4.833  12.385  20.030  0.00  0.00    +0.000 A 
ATOM     19  N   UNL     1      -3.798  12.597  20.924  0.00  0.00    +0.000 N 
ATOM     20  C   UNL     1      -4.106  12.960  22.295  0.00  0.00    +0.000 C 
ENDBRANCH   7  11
BRANCH   1  21
ATOM     21  C   UNL     1       2.486   7.864  17.918  0.00  0.00    +0.000 C 
BRANCH  21  24
ATOM     22  N   UNL     1       2.656   4.390  19.152  0.00  0.00    +0.000 N 
ATOM     23  C   UNL     1       2.724   5.315  18.041  0.00  0.00    +0.000 C 
ATOM     24  C   UNL     1       2.987   6.660  18.697  0.00  0.00    +0.000 C 
ATOM     25  C   UNL     1       2.300   6.536  20.056  0.00  0.00    +0.000 C 
ATOM     26  C   UNL     1       2.282   5.047  20.321  0.00  0.00    +0.000 C 
ATOM     27  O   UNL     1       1.931   4.547  21.369  0.00  0.00    +0.000 OA
BRANCH  22  29
ATOM     28  C   UNL     1       0.939   2.650  18.700  0.00  0.00    +0.000 C 
ATOM     29  C   UNL     1       2.420   2.967  18.896  0.00  0.00    +0.000 C 
ATOM     30  C   UNL     1       3.254   2.458  17.719  0.00  0.00    +0.000 C 
ENDBRANCH  22  29
ENDBRANCH  21  24
ENDBRANCH   1  21
TORSDOF 4
ENDMDL
MODEL 3
REMARK VINA RESULT:      -7.8      2.096      2.689
REMARK  Name = 
REMARK  7 active torsions:
REMARK  status: ('A' for Active; 'I' for Inactive)
REMARK    1  A    between atoms: C_1  and  C_2
REMARK    2  A    between atoms: C_2  and  C_3
REMARK    3  A    between atoms: C_2  and  N_4
REMARK    4  A    between atoms: C_6  and  C_7
REMARK    5  A    between atoms: C_7  and  N_8
REMARK    6  A    between atoms: C_14  and  C_15
REMARK    7  A    between atoms: N_23  and  C_24
REMARK                            x       y       z     vdW  Elec       q    Type
REMARK                         _______ _______ _______ _____ _____    ______ ____
ROOT
ATOM      1  N   UNL     1       1.972   7.558  19.506  0.00  0.00    +0.000 N 
ATOM      2  C   UNL     1       1.436   8.324  20.500  0.00  0.00    +0.000 C 
ATOM      3  O   UNL     1       1.390   7.937  21.671  0.00  0.00    +0.000 OA
ATOM      4  N   UNL     1       0.913   9.520  20.058  0.00  0.00    +0.000 N 
ATOM      5  C   UNL     1       0.546  10.509  21.075  0.00  0.00    +0.000 C 
ATOM      6  C   UNL     1      -0.751  11.225  20.737  0.00  0.00    +0.000 C 
ATOM      7  C   UNL     1      -0.751  11.814  19.323  0.00  0.00    +0.000 C 
ATOM      8  C   UNL     1      -0.473  10.669  18.331  0.00  0.00    +0.000 C 
ATOM      9  C   UNL     1       0.800   9.880  18.626  0.00  0.00    +0.000 C 
ATOM     10  H   UNL     1       2.483   8.175  18.891  0.00  0.00    +0.000 HD
ENDROOT
BRANCH   7  11
ATOM     11  C   UNL     1       0.168  13.021  19.150  0.00  0.00    +0.000 A 
ATOM     12  N   UNL     1       1.343  12.905  18.502  0.00  0.00    +0.000 NA
ATOM     13  C   UNL     1       1.886  14.148  18.459  0.00  0.00    +0.000 A 
ATOM     14  C   UNL     1       3.092  14.564  17.879  0.00  0.00    +0.000 A 
ATOM     15  C   UNL     1       3.452  15.917  17.968  0.00  0.00    +0.000 A 
ATOM     16  C   UNL     1       2.628  16.834  18.612  0.00  0.00    +0.000 A 
ATOM     17  C   UNL     1       1.421  16.435  19.180  0.00  0.00    +0.000 A 
ATOM     18  C   UNL     1       1.077  15.078  19.087  0.00  0.00    +0.000 A 
ATOM     19  N   UNL     1      -0.024  14.354  19.510  0.00  0.00    +0.000 N 
ATOM     20  C   UNL     1      -1.129  15.048  20.145  0.00  0.00    +0.000 C 
ENDBRANCH   7  11
BRANCH   1  21
ATOM     21  C   UNL     1       2.629   6.329  19.864  0.00  0.00    +0.000 C 
BRANCH  21  24
ATOM     22  N   UNL     1       5.702   5.787  17.894  0.00  0.00    +0.000 N 
ATOM     23  C   UNL     1       4.997   5.656  19.151  0.00  0.00    +0.000 C 
ATOM     24  C   UNL     1       3.533   5.791  18.768  0.00  0.00    +0.000 C 
ATOM     25  C   UNL     1       3.565   6.716  17.552  0.00  0.00    +0.000 C 
ATOM     26  C   UNL     1       4.949   6.515  16.977  0.00  0.00    +0.000 C 
ATOM     27  O   UNL     1       5.322   6.982  15.922  0.00  0.00    +0.000 OA
BRANCH  22  29
ATOM     28  C   UNL     1       7.774   5.791  19.269  0.00  0.00    +0.000 C 
ATOM     29  C   UNL     1       7.165   5.696  17.872  0.00  0.00    +0.000 C 
ATOM     30  C   UNL     1       7.642   4.439  17.144  0.00  0.00    +0.000 C 
ENDBRANCH  22  29
ENDBRANCH  21  24
ENDBRANCH   1  21
TORSDOF 4
ENDMDL
MODEL 4
REMARK VINA RESULT:      -7.7      3.779      6.040
REMARK  Name = 
REMARK  7 active torsions:
REMARK  status: ('A' for Active; 'I' for Inactive)
REMARK    1  A    between atoms: C_1  and  C_2
REMARK    2  A    between atoms: C_2  and  C_3
REMARK    3  A    between atoms: C_2  and  N_4
REMARK    4  A    between atoms: C_6  and  C_7
REMARK    5  A    between atoms: C_7  and  N_8
REMARK    6  A    between atoms: C_14  and  C_15
REMARK    7  A    between atoms: N_23  and  C_24
REMARK                            x       y       z     vdW  Elec       q    Type
REMARK                         _______ _______ _______ _____ _____    ______ ____
ROOT
ATOM      1  N   UNL     1       1.531   8.600  19.646  0.00  0.00    +0.000 N 
ATOM      2  C   UNL     1       1.271   9.589  18.743  0.00  0.00    +0.000 C 
ATOM      3  O   UNL     1       1.886   9.681  17.677  0.00  0.00    +0.000 OA
ATOM      4  N   UNL     1       0.312  10.486  19.164  0.00  0.00    +0.000 N 
ATOM      5  C   UNL     1      -0.209  11.428  18.170  0.00  0.00    +0.000 C 
ATOM      6  C   UNL     1      -0.410  12.819  18.748  0.00  0.00    +0.000 C 
ATOM      7  C   UNL     1      -1.241  12.810  20.035  0.00  0.00    +0.000 C 
ATOM      8  C   UNL     1      -0.541  11.884  21.047  0.00  0.00    +0.000 C 
ATOM      9  C   UNL     1      -0.273  10.475  20.524  0.00  0.00    +0.000 C 
ATOM     10  H   UNL     1       0.646   8.301  20.031  0.00  0.00    +0.000 HD
ENDROOT
BRANCH   7  11
ATOM     11  C   UNL     1      -2.719  12.490  19.821  0.00  0.00    +0.000 A 
ATOM     12  N   UNL     1      -3.143  11.929  18.673  0.00  0.00    +0.000 NA
ATOM     13  C   UNL     1      -4.475  11.713  18.817  0.00  0.00    +0.000 A 
ATOM     14  C   UNL     1      -5.377  11.134  17.914  0.00  0.00    +0.000 A 
ATOM     15  C   UNL     1      -6.725  11.020  18.287  0.00  0.00    +0.000 A 
ATOM     16  C   UNL     1      -7.162  11.463  19.530  0.00  0.00    +0.000 A 
ATOM     17  C   UNL     1      -6.272  12.027  20.441  0.00  0.00    +0.000 A 
ATOM     18  C   UNL     1      -4.929  12.139  20.052  0.00  0.00    +0.000 A 
ATOM     19  N   UNL     1      -3.799  12.618  20.692  0.00  0.00    +0.000 N 
ATOM     20  C   UNL     1      -3.901  13.075  22.066  0.00  0.00    +0.000 C 
ENDBRANCH   7  11
BRANCH   1  21
ATOM     21  C   UNL     1       2.448   7.554  19.275  0.00  0.00    +0.000 C 
BRANCH  21  24
ATOM     22  N   UNL     1       2.103   3.890  19.539  0.00  0.00    +0.000 N 
ATOM     23  C   UNL     1       2.338   5.163  20.188  0.00  0.00    +0.000 C 
ATOM     24  C   UNL     1       1.797   6.184  19.201  0.00  0.00    +0.000 C 
ATOM     25  C   UNL     1       2.020   5.521  17.842  0.00  0.00    +0.000 C 
ATOM     26  C   UNL     1       2.042   4.042  18.157  0.00  0.00    +0.000 C 
ATOM     27  O   UNL     1       2.069   3.168  17.316  0.00  0.00    +0.000 OA
BRANCH  22  29
ATOM     28  C   UNL     1       4.005   2.427  20.189  0.00  0.00    +0.000 C 
ATOM     29  C   UNL     1       2.495   2.650  20.215  0.00  0.00    +0.000 C 
ATOM     30  C   UNL     1       1.950   2.588  21.643  0.00  0.00    +0.000 C 
ENDBRANCH  22  29
ENDBRANCH  21  24
ENDBRANCH   1  21
TORSDOF 4
ENDMDL
MODEL 5
REMARK VINA RESULT:      -7.6      1.682      2.274
REMARK  Name = 
REMARK  7 active torsions:
REMARK  status: ('A' for Active; 'I' for Inactive)
REMARK    1  A    between atoms: C_1  and  C_2
REMARK    2  A    between atoms: C_2  and  C_3
REMARK    3  A    between atoms: C_2  and  N_4
REMARK    4  A    between atoms: C_6  and  C_7
REMARK    5  A    between atoms: C_7  and  N_8
REMARK    6  A    between atoms: C_14  and  C_15
REMARK    7  A    between atoms: N_23  and  C_24
REMARK                            x       y       z     vdW  Elec       q    Type
REMARK                         _______ _______ _______ _____ _____    ______ ____
ROOT
ATOM      1  N   UNL     1       2.388   6.542  19.257  0.00  0.00    +0.000 N 
ATOM      2  C   UNL     1       1.690   7.238  20.200  0.00  0.00    +0.000 C 
ATOM      3  O   UNL     1       1.334   6.723  21.264  0.00  0.00    +0.000 OA
ATOM      4  N   UNL     1       1.382   8.528  19.822  0.00  0.00    +0.000 N 
ATOM      5  C   UNL     1       0.859   9.424  20.856  0.00  0.00    +0.000 C 
ATOM      6  C   UNL     1      -0.260  10.310  20.336  0.00  0.00    +0.000 C 
ATOM      7  C   UNL     1       0.124  11.058  19.056  0.00  0.00    +0.000 C 
ATOM      8  C   UNL     1       0.544  10.015  18.002  0.00  0.00    +0.000 C 
ATOM      9  C   UNL     1       1.644   9.064  18.467  0.00  0.00    +0.000 C 
ATOM     10  H   UNL     1       3.078   7.168  18.867  0.00  0.00    +0.000 HD
ENDROOT
BRANCH   7  11
ATOM     11  C   UNL     1       1.148  12.171  19.268  0.00  0.00    +0.000 A 
ATOM     12  N   UNL     1       2.104  12.412  18.350  0.00  0.00    +0.000 NA
ATOM     13  C   UNL     1       2.803  13.488  18.792  0.00  0.00    +0.000 A 
ATOM     14  C   UNL     1       3.886  14.143  18.191  0.00  0.00    +0.000 A 
ATOM     15  C   UNL     1       4.457  15.244  18.847  0.00  0.00    +0.000 A 
ATOM     16  C   UNL     1       3.958  15.684  20.068  0.00  0.00    +0.000 A 
ATOM     17  C   UNL     1       2.874  15.049  20.669  0.00  0.00    +0.000 A 
ATOM     18  C   UNL     1       2.317  13.948  20.002  0.00  0.00    +0.000 A 
ATOM     19  N   UNL     1       1.251  13.113  20.290  0.00  0.00    +0.000 N 
ATOM     20  C   UNL     1       0.446  13.369  21.470  0.00  0.00    +0.000 C 
ENDBRANCH   7  11
BRANCH   1  21
ATOM     21  C   UNL     1       2.843   5.215  19.579  0.00  0.00    +0.000 C 
BRANCH  21  24
ATOM     22  N   UNL     1       6.150   5.418  17.954  0.00  0.00    +0.000 N 
ATOM     23  C   UNL     1       5.363   5.436  19.169  0.00  0.00    +0.000 C 
ATOM     24  C   UNL     1       4.052   4.782  18.768  0.00  0.00    +0.000 C 
ATOM     25  C   UNL     1       3.906   5.149  17.291  0.00  0.00    +0.000 C 
ATOM     26  C   UNL     1       5.328   5.383  16.832  0.00  0.00    +0.000 C 
ATOM     27  O   UNL     1       5.647   5.571  15.677  0.00  0.00    +0.000 OA
BRANCH  22  29
ATOM     28  C   UNL     1       7.545   7.433  17.531  0.00  0.00    +0.000 C 
ATOM     29  C   UNL     1       7.508   5.969  17.964  0.00  0.00    +0.000 C 
ATOM     30  C   UNL     1       8.187   5.776  19.321  0.00  0.00    +0.000 C 
ENDBRANCH  22  29
ENDBRANCH  21  24
ENDBRANCH   1  21
TORSDOF 4
ENDMDL
MODEL 6
REMARK VINA RESULT:      -7.5      3.446      5.926
REMARK  Name = 
REMARK  7 active torsions:
REMARK  status: ('A' for Active; 'I' for Inactive)
REMARK    1  A    between atoms: C_1  and  C_2
REMARK    2  A    between atoms: C_2  and  C_3
REMARK    3  A    between atoms: C_2  and  N_4
REMARK    4  A    between atoms: C_6  and  C_7
REMARK    5  A    between atoms: C_7  and  N_8
REMARK    6  A    between atoms: C_14  and  C_15
REMARK    7  A    between atoms: N_23  and  C_24
REMARK                            x       y       z     vdW  Elec       q    Type
REMARK                         _______ _______ _______ _____ _____    ______ ____
ROOT
ATOM      1  N   UNL     1       0.972   9.376  19.499  0.00  0.00    +0.000 N 
ATOM      2  C   UNL     1       0.929  10.739  19.539  0.00  0.00    +0.000 C 
ATOM      3  O   UNL     1       1.666  11.439  18.839  0.00  0.00    +0.000 OA
ATOM      4  N   UNL     1       0.038  11.238  20.466  0.00  0.00    +0.000 N 
ATOM      5  C   UNL     1      -0.258  12.672  20.409  0.00  0.00    +0.000 C 
ATOM      6  C   UNL     1      -0.363  13.292  21.791  0.00  0.00    +0.000 C 
ATOM      7  C   UNL     1      -1.327  12.534  22.709  0.00  0.00    +0.000 C 
ATOM      8  C   UNL     1      -0.853  11.070  22.791  0.00  0.00    +0.000 C 
ATOM      9  C   UNL     1      -0.692  10.388  21.434  0.00  0.00    +0.000 C 
ATOM     10  H   UNL     1       0.022   9.040  19.567  0.00  0.00    +0.000 HD
ENDROOT
BRANCH   7  11
ATOM     11  C   UNL     1      -2.798  12.689  22.333  0.00  0.00    +0.000 A 
ATOM     12  N   UNL     1      -3.172  12.792  21.043  0.00  0.00    +0.000 NA
ATOM     13  C   UNL     1      -4.528  12.849  21.037  0.00  0.00    +0.000 A 
ATOM     14  C   UNL     1      -5.401  12.942  19.945  0.00  0.00    +0.000 A 
ATOM     15  C   UNL     1      -6.782  12.995  20.188  0.00  0.00    +0.000 A 
ATOM     16  C   UNL     1      -7.281  12.949  21.485  0.00  0.00    +0.000 A 
ATOM     17  C   UNL     1      -6.423  12.842  22.577  0.00  0.00    +0.000 A 
ATOM     18  C   UNL     1      -5.046  12.796  22.318  0.00  0.00    +0.000 A 
ATOM     19  N   UNL     1      -3.936  12.676  23.137  0.00  0.00    +0.000 N 
ATOM     20  C   UNL     1      -4.123  12.508  24.567  0.00  0.00    +0.000 C 
ENDBRANCH   7  11
BRANCH   1  21
ATOM     21  C   UNL     1       1.800   8.744  18.504  0.00  0.00    +0.000 C 
BRANCH  21  24
ATOM     22  N   UNL     1       2.745   5.213  19.004  0.00  0.00    +0.000 N 
ATOM     23  C   UNL     1       2.592   6.340  18.109  0.00  0.00    +0.000 C 
ATOM     24  C   UNL     1       2.564   7.544  19.035  0.00  0.00    +0.000 C 
ATOM     25  C   UNL     1       1.941   6.995  20.318  0.00  0.00    +0.000 C 
ATOM     26  C   UNL     1       2.254   5.516  20.271  0.00  0.00    +0.000 C 
ATOM     27  O   UNL     1       2.037   4.745  21.182  0.00  0.00    +0.000 OA
BRANCH  22  29
ATOM     28  C   UNL     1       1.453   3.313  18.052  0.00  0.00    +0.000 C 
ATOM     29  C   UNL     1       2.823   3.857  18.454  0.00  0.00    +0.000 C 
ATOM     30  C   UNL     1       3.814   3.774  17.292  0.00  0.00    +0.000 C 
ENDBRANCH  22  29
ENDBRANCH  21  24
ENDBRANCH   1  21
TORSDOF 4
ENDMDL
MODEL 7
REMARK VINA RESULT:      -7.5      0.888      1.145
REMARK  Name = 
REMARK  7 active torsions:
REMARK  status: ('A' for Active; 'I' for Inactive)
REMARK    1  A    between atoms: C_1  and  C_2
REMARK    2  A    between atoms: C_2  and  C_3
REMARK    3  A    between atoms: C_2  and  N_4
REMARK    4  A    between atoms: C_6  and  C_7
REMARK    5  A    between atoms: C_7  and  N_8
REMARK    6  A    between atoms: C_14  and  C_15
REMARK    7  A    between atoms: N_23  and  C_24
REMARK                            x       y       z     vdW  Elec       q    Type
REMARK                         _______ _______ _______ _____ _____    ______ ____
ROOT
ATOM      1  N   UNL     1       2.781   6.894  18.199  0.00  0.00    +0.000 N 
ATOM      2  C   UNL     1       2.276   7.224  19.422  0.00  0.00    +0.000 C 
ATOM      3  O   UNL     1       2.352   6.461  20.389  0.00  0.00    +0.000 OA
ATOM      4  N   UNL     1       1.636   8.445  19.447  0.00  0.00    +0.000 N 
ATOM      5  C   UNL     1       1.285   8.992  20.760  0.00  0.00    +0.000 C 
ATOM      6  C   UNL     1      -0.082   9.655  20.758  0.00  0.00    +0.000 C 
ATOM      7  C   UNL     1      -0.238  10.687  19.636  0.00  0.00    +0.000 C 
ATOM      8  C   UNL     1       0.038   9.977  18.297  0.00  0.00    +0.000 C 
ATOM      9  C   UNL     1       1.383   9.257  18.235  0.00  0.00    +0.000 C 
ATOM     10  H   UNL     1       3.197   7.728  17.807  0.00  0.00    +0.000 HD
ENDROOT
BRANCH   7  11
ATOM     11  C   UNL     1       0.578  11.961  19.842  0.00  0.00    +0.000 A 
ATOM     12  N   UNL     1       1.594  11.992  20.725  0.00  0.00    +0.000 NA
ATOM     13  C   UNL     1       2.153  13.225  20.627  0.00  0.00    +0.000 A 
ATOM     14  C   UNL     1       3.251  13.753  21.320  0.00  0.00    +0.000 A 
ATOM     15  C   UNL     1       3.647  15.072  21.052  0.00  0.00    +0.000 A 
ATOM     16  C   UNL     1       2.971  15.844  20.113  0.00  0.00    +0.000 A 
ATOM     17  C   UNL     1       1.887  15.326  19.409  0.00  0.00    +0.000 A 
ATOM     18  C   UNL     1       1.500  14.007  19.692  0.00  0.00    +0.000 A 
ATOM     19  N   UNL     1       0.508  13.187  19.183  0.00  0.00    +0.000 N 
ATOM     20  C   UNL     1      -0.328  13.671  18.100  0.00  0.00    +0.000 C 
ENDBRANCH   7  11
BRANCH   1  21
ATOM     21  C   UNL     1       3.549   5.683  18.076  0.00  0.00    +0.000 C 
BRANCH  21  24
ATOM     22  N   UNL     1       6.337   4.988  15.760  0.00  0.00    +0.000 N 
ATOM     23  C   UNL     1       4.929   5.261  15.958  0.00  0.00    +0.000 C 
ATOM     24  C   UNL     1       4.866   5.879  17.345  0.00  0.00    +0.000 C 
ATOM     25  C   UNL     1       6.030   5.221  18.084  0.00  0.00    +0.000 C 
ATOM     26  C   UNL     1       6.987   4.828  16.980  0.00  0.00    +0.000 C 
ATOM     27  O   UNL     1       8.102   4.389  17.171  0.00  0.00    +0.000 OA
BRANCH  22  29
ATOM     28  C   UNL     1       5.626   3.854  13.664  0.00  0.00    +0.000 C 
ATOM     29  C   UNL     1       6.787   4.387  14.502  0.00  0.00    +0.000 C 
ATOM     30  C   UNL     1       7.656   5.352  13.693  0.00  0.00    +0.000 C 
ENDBRANCH  22  29
ENDBRANCH  21  24
ENDBRANCH   1  21
TORSDOF 4
ENDMDL
MODEL 8
REMARK VINA RESULT:      -7.5      3.116      4.974
REMARK  Name = 
REMARK  7 active torsions:
REMARK  status: ('A' for Active; 'I' for Inactive)
REMARK    1  A    between atoms: C_1  and  C_2
REMARK    2  A    between atoms: C_2  and  C_3
REMARK    3  A    between atoms: C_2  and  N_4
REMARK    4  A    between atoms: C_6  and  C_7
REMARK    5  A    between atoms: C_7  and  N_8
REMARK    6  A    between atoms: C_14  and  C_15
REMARK    7  A    between atoms: N_23  and  C_24
REMARK                            x       y       z     vdW  Elec       q    Type
REMARK                         _______ _______ _______ _____ _____    ______ ____
ROOT
ATOM      1  N   UNL     1       1.461   8.996  18.709  0.00  0.00    +0.000 N 
ATOM      2  C   UNL     1       1.462  10.358  18.769  0.00  0.00    +0.000 C 
ATOM      3  O   UNL     1       2.214  11.044  18.070  0.00  0.00    +0.000 OA
ATOM      4  N   UNL     1       0.597  10.872  19.712  0.00  0.00    +0.000 N 
ATOM      5  C   UNL     1       0.347  12.316  19.677  0.00  0.00    +0.000 C 
ATOM      6  C   UNL     1       0.276  12.919  21.069  0.00  0.00    +0.000 C 
ATOM      7  C   UNL     1      -0.703  12.180  21.986  0.00  0.00    +0.000 C 
ATOM      8  C   UNL     1      -0.277  10.701  22.042  0.00  0.00    +0.000 C 
ATOM      9  C   UNL     1      -0.151  10.033  20.675  0.00  0.00    +0.000 C 
ATOM     10  H   UNL     1       0.501   8.690  18.782  0.00  0.00    +0.000 HD
ENDROOT
BRANCH   7  11
ATOM     11  C   UNL     1      -2.172  12.388  21.626  0.00  0.00    +0.000 A 
ATOM     12  N   UNL     1      -2.573  12.393  20.341  0.00  0.00    +0.000 NA
ATOM     13  C   UNL     1      -3.923  12.532  20.357  0.00  0.00    +0.000 A 
ATOM     14  C   UNL     1      -4.817  12.575  19.279  0.00  0.00    +0.000 A 
ATOM     15  C   UNL     1      -6.186  12.733  19.544  0.00  0.00    +0.000 A 
ATOM     16  C   UNL     1      -6.652  12.838  20.850  0.00  0.00    +0.000 A 
ATOM     17  C   UNL     1      -5.775  12.782  21.930  0.00  0.00    +0.000 A 
ATOM     18  C   UNL     1      -4.409  12.629  21.648  0.00  0.00    +0.000 A 
ATOM     19  N   UNL     1      -3.288  12.519  22.452  0.00  0.00    +0.000 N 
ATOM     20  C   UNL     1      -3.447  12.496  23.894  0.00  0.00    +0.000 C 
ENDBRANCH   7  11
BRANCH   1  21
ATOM     21  C   UNL     1       2.257   8.351  17.698  0.00  0.00    +0.000 C 
BRANCH  21  24
ATOM     22  N   UNL     1       4.378   5.332  17.623  0.00  0.00    +0.000 N 
ATOM     23  C   UNL     1       4.242   6.757  17.406  0.00  0.00    +0.000 C 
ATOM     24  C   UNL     1       3.011   7.136  18.211  0.00  0.00    +0.000 C 
ATOM     25  C   UNL     1       2.150   5.874  18.166  0.00  0.00    +0.000 C 
ATOM     26  C   UNL     1       3.149   4.760  17.941  0.00  0.00    +0.000 C 
ATOM     27  O   UNL     1       2.871   3.580  17.976  0.00  0.00    +0.000 OA
BRANCH  22  29
ATOM     28  C   UNL     1       5.558   4.843  15.490  0.00  0.00    +0.000 C 
ATOM     29  C   UNL     1       5.487   4.607  16.997  0.00  0.00    +0.000 C 
ATOM     30  C   UNL     1       6.823   4.924  17.671  0.00  0.00    +0.000 C 
ENDBRANCH  22  29
ENDBRANCH  21  24
ENDBRANCH   1  21
TORSDOF 4
ENDMDL
MODEL 9
REMARK VINA RESULT:      -7.4      3.480      5.735
REMARK  Name = 
REMARK  7 active torsions:
REMARK  status: ('A' for Active; 'I' for Inactive)
REMARK    1  A    between atoms: C_1  and  C_2
REMARK    2  A    between atoms: C_2  and  C_3
REMARK    3  A    between atoms: C_2  and  N_4
REMARK    4  A    between atoms: C_6  and  C_7
REMARK    5  A    between atoms: C_7  and  N_8
REMARK    6  A    between atoms: C_14  and  C_15
REMARK    7  A    between atoms: N_23  and  C_24
REMARK                            x       y       z     vdW  Elec       q    Type
REMARK                         _______ _______ _______ _____ _____    ______ ____
ROOT
ATOM      1  N   UNL     1       1.348   8.883  19.040  0.00  0.00    +0.000 N 
ATOM      2  C   UNL     1       1.309  10.241  18.919  0.00  0.00    +0.000 C 
ATOM      3  O   UNL     1       2.027  10.848  18.119  0.00  0.00    +0.000 OA
ATOM      4  N   UNL     1       0.447  10.852  19.804  0.00  0.00    +0.000 N 
ATOM      5  C   UNL     1       0.152  12.270  19.584  0.00  0.00    +0.000 C 
ATOM      6  C   UNL     1       0.088  13.052  20.885  0.00  0.00    +0.000 C 
ATOM      7  C   UNL     1      -0.851  12.414  21.913  0.00  0.00    +0.000 C 
ATOM      8  C   UNL     1      -0.379  10.968  22.156  0.00  0.00    +0.000 C 
ATOM      9  C   UNL     1      -0.258  10.128  20.887  0.00  0.00    +0.000 C 
ATOM     10  H   UNL     1       0.400   8.563  19.174  0.00  0.00    +0.000 HD
ENDROOT
BRANCH   7  11
ATOM     11  C   UNL     1      -2.332  12.531  21.562  0.00  0.00    +0.000 A 
ATOM     12  N   UNL     1      -2.740  12.512  20.279  0.00  0.00    +0.000 NA
ATOM     13  C   UNL     1      -4.095  12.568  20.303  0.00  0.00    +0.000 A 
ATOM     14  C   UNL     1      -4.997  12.557  19.229  0.00  0.00    +0.000 A 
ATOM     15  C   UNL     1      -6.371  12.630  19.502  0.00  0.00    +0.000 A 
ATOM     16  C   UNL     1      -6.836  12.705  20.811  0.00  0.00    +0.000 A 
ATOM     17  C   UNL     1      -5.950  12.703  21.886  0.00  0.00    +0.000 A 
ATOM     18  C   UNL     1      -4.580  12.634  21.596  0.00  0.00    +0.000 A 
ATOM     19  N   UNL     1      -3.449  12.593  22.394  0.00  0.00    +0.000 N 
ATOM     20  C   UNL     1      -3.599  12.559  23.837  0.00  0.00    +0.000 C 
ENDBRANCH   7  11
BRANCH   1  21
ATOM     21  C   UNL     1       2.146   8.132  18.105  0.00  0.00    +0.000 C 
BRANCH  21  24
ATOM     22  N   UNL     1       2.513   4.564  18.969  0.00  0.00    +0.000 N 
ATOM     23  C   UNL     1       2.446   5.592  17.953  0.00  0.00    +0.000 C 
ATOM     24  C   UNL     1       2.750   6.876  18.707  0.00  0.00    +0.000 C 
ATOM     25  C   UNL     1       2.212   6.602  20.111  0.00  0.00    +0.000 C 
ATOM     26  C   UNL     1       2.252   5.095  20.229  0.00  0.00    +0.000 C 
ATOM     27  O   UNL     1       2.024   4.486  21.253  0.00  0.00    +0.000 OA
BRANCH  22  29
ATOM     28  C   UNL     1       3.324   2.224  19.197  0.00  0.00    +0.000 C 
ATOM     29  C   UNL     1       2.279   3.165  18.600  0.00  0.00    +0.000 C 
ATOM     30  C   UNL     1       0.862   2.715  18.957  0.00  0.00    +0.000 C 
ENDBRANCH  22  29
ENDBRANCH  21  24
ENDBRANCH   1  21
TORSDOF 4
ENDMDL
