MODEL 1
REMARK VINA RESULT:      -6.9      0.000      0.000
REMARK  Name = 
REMARK  8 active torsions:
REMARK  status: ('A' for Active; 'I' for Inactive)
REMARK    1  A    between atoms: C_1  and  C_2
REMARK    2  A    between atoms: C_2  and  O_3
REMARK    3  A    between atoms: O_3  and  C_4
REMARK    4  A    between atoms: C_4  and  C_6
REMARK    5  A    between atoms: C_11  and  C_12
REMARK    6  A    between atoms: N_14  and  C_15
REMARK    7  A    between atoms: C_16  and  O_17
REMARK    8  A    between atoms: O_17  and  C_18
REMARK                            x       y       z     vdW  Elec       q    Type
REMARK                         _______ _______ _______ _____ _____    ______ ____
ROOT
ATOM      1  C   UNL     1       3.507   4.123  17.559  0.00  0.00    +0.000 A 
ATOM      2  C   UNL     1       3.894   3.321  16.483  0.00  0.00    +0.000 A 
ATOM      3  N   UNL     1       4.989   3.499  15.710  0.00  0.00    +0.000 NA
ATOM      4  C   UNL     1       5.700   4.587  16.061  0.00  0.00    +0.000 A 
ATOM      5  C   UNL     1       5.465   5.445  17.125  0.00  0.00    +0.000 A 
ATOM      6  C   UNL     1       6.506   6.414  17.025  0.00  0.00    +0.000 A 
ATOM      7  C   UNL     1       6.767   7.604  17.874  0.00  0.00    +0.000 C 
ATOM      8  N   UNL     1       7.314   6.184  15.976  0.00  0.00    +0.000 NA
ATOM      9  N   UNL     1       6.789   5.084  15.401  0.00  0.00    +0.000 N 
ATOM     10  C   UNL     1       7.324   4.579  14.162  0.00  0.00    +0.000 C 
ATOM     11  C   UNL     1       4.344   5.184  17.950  0.00  0.00    +0.000 A 
ENDROOT
BRANCH   1  12
ATOM     12  C   UNL     1       2.175   3.887  18.157  0.00  0.00    +0.000 C 
ATOM     13  O   UNL     1       1.122   4.208  17.638  0.00  0.00    +0.000 OA
BRANCH  12  14
ATOM     14  O   UNL     1       2.318   3.243  19.344  0.00  0.00    +0.000 OA
BRANCH  14  16
ATOM     15  C   UNL     1       1.366   2.702  21.518  0.00  0.00    +0.000 C 
ATOM     16  C   UNL     1       1.512   3.745  20.422  0.00  0.00    +0.000 C 
ENDBRANCH  14  16
ENDBRANCH  12  14
ENDBRANCH   1  12
BRANCH  11  17
ATOM     17  O   UNL     1       4.093   6.050  18.989  0.00  0.00    +0.000 OA
BRANCH  17  18
ATOM     18  C   UNL     1       3.169   7.062  18.846  0.00  0.00    +0.000 A 
ATOM     19  C   UNL     1       3.010   7.858  17.708  0.00  0.00    +0.000 A 
ATOM     20  C   UNL     1       2.091   8.913  17.720  0.00  0.00    +0.000 A 
ATOM     21  C   UNL     1       1.298   9.136  18.845  0.00  0.00    +0.000 A 
ATOM     22 CL   UNL     1       0.176  10.441  18.856  0.00  0.00    +0.000 Cl
ATOM     23  C   UNL     1       1.409   8.309  19.961  0.00  0.00    +0.000 A 
ATOM     24  C   UNL     1       2.345   7.273  19.959  0.00  0.00    +0.000 A 
ENDBRANCH  17  18
ENDBRANCH  11  17
TORSDOF 5
ENDMDL
MODEL 2
REMARK VINA RESULT:      -6.8      2.258      4.785
REMARK  Name = 
REMARK  8 active torsions:
REMARK  status: ('A' for Active; 'I' for Inactive)
REMARK    1  A    between atoms: C_1  and  C_2
REMARK    2  A    between atoms: C_2  and  O_3
REMARK    3  A    between atoms: O_3  and  C_4
REMARK    4  A    between atoms: C_4  and  C_6
REMARK    5  A    between atoms: C_11  and  C_12
REMARK    6  A    between atoms: N_14  and  C_15
REMARK    7  A    between atoms: C_16  and  O_17
REMARK    8  A    between atoms: O_17  and  C_18
REMARK                            x       y       z     vdW  Elec       q    Type
REMARK                         _______ _______ _______ _____ _____    ______ ____
ROOT
ATOM      1  C   UNL     1       4.995   5.491  17.623  0.00  0.00    +0.000 A 
ATOM      2  C   UNL     1       6.012   4.629  18.036  0.00  0.00    +0.000 A 
ATOM      3  N   UNL     1       5.866   3.552  18.841  0.00  0.00    +0.000 NA
ATOM      4  C   UNL     1       4.597   3.385  19.258  0.00  0.00    +0.000 A 
ATOM      5  C   UNL     1       3.484   4.130  18.899  0.00  0.00    +0.000 A 
ATOM      6  C   UNL     1       2.416   3.532  19.632  0.00  0.00    +0.000 A 
ATOM      7  C   UNL     1       0.981   3.909  19.678  0.00  0.00    +0.000 C 
ATOM      8  N   UNL     1       2.836   2.507  20.393  0.00  0.00    +0.000 NA
ATOM      9  N   UNL     1       4.162   2.456  20.162  0.00  0.00    +0.000 N 
ATOM     10  C   UNL     1       4.999   1.539  20.893  0.00  0.00    +0.000 C 
ATOM     11  C   UNL     1       3.670   5.208  18.002  0.00  0.00    +0.000 A 
ENDROOT
BRANCH   1  12
ATOM     12  C   UNL     1       5.381   6.727  16.907  0.00  0.00    +0.000 C 
ATOM     13  O   UNL     1       5.063   6.986  15.762  0.00  0.00    +0.000 OA
BRANCH  12  14
ATOM     14  O   UNL     1       6.112   7.520  17.733  0.00  0.00    +0.000 OA
BRANCH  14  16
ATOM     15  C   UNL     1       8.072   8.955  17.893  0.00  0.00    +0.000 C 
ATOM     16  C   UNL     1       7.508   7.628  17.413  0.00  0.00    +0.000 C 
ENDBRANCH  14  16
ENDBRANCH  12  14
ENDBRANCH   1  12
BRANCH  11  17
ATOM     17  O   UNL     1       2.571   5.965  17.666  0.00  0.00    +0.000 OA
BRANCH  17  18
ATOM     18  C   UNL     1       2.237   7.077  18.409  0.00  0.00    +0.000 A 
ATOM     19  C   UNL     1       2.112   7.114  19.800  0.00  0.00    +0.000 A 
ATOM     20  C   UNL     1       1.682   8.287  20.430  0.00  0.00    +0.000 A 
ATOM     21  C   UNL     1       1.428   9.432  19.676  0.00  0.00    +0.000 A 
ATOM     22 CL   UNL     1       0.890  10.868  20.455  0.00  0.00    +0.000 Cl
ATOM     23  C   UNL     1       1.608   9.420  18.294  0.00  0.00    +0.000 A 
ATOM     24  C   UNL     1       2.013   8.242  17.663  0.00  0.00    +0.000 A 
ENDBRANCH  17  18
ENDBRANCH  11  17
TORSDOF 5
ENDMDL
MODEL 3
REMARK VINA RESULT:      -6.6      0.286      1.026
REMARK  Name = 
REMARK  8 active torsions:
REMARK  status: ('A' for Active; 'I' for Inactive)
REMARK    1  A    between atoms: C_1  and  C_2
REMARK    2  A    between atoms: C_2  and  O_3
REMARK    3  A    between atoms: O_3  and  C_4
REMARK    4  A    between atoms: C_4  and  C_6
REMARK    5  A    between atoms: C_11  and  C_12
REMARK    6  A    between atoms: N_14  and  C_15
REMARK    7  A    between atoms: C_16  and  O_17
REMARK    8  A    between atoms: O_17  and  C_18
REMARK                            x       y       z     vdW  Elec       q    Type
REMARK                         _______ _______ _______ _____ _____    ______ ____
ROOT
ATOM      1  C   UNL     1       3.544   4.113  17.423  0.00  0.00    +0.000 A 
ATOM      2  C   UNL     1       3.857   3.382  16.276  0.00  0.00    +0.000 A 
ATOM      3  N   UNL     1       4.939   3.566  15.485  0.00  0.00    +0.000 NA
ATOM      4  C   UNL     1       5.717   4.583  15.899  0.00  0.00    +0.000 A 
ATOM      5  C   UNL     1       5.557   5.362  17.035  0.00  0.00    +0.000 A 
ATOM      6  C   UNL     1       6.646   6.282  16.980  0.00  0.00    +0.000 A 
ATOM      7  C   UNL     1       6.995   7.383  17.913  0.00  0.00    +0.000 C 
ATOM      8  N   UNL     1       7.412   6.096  15.891  0.00  0.00    +0.000 NA
ATOM      9  N   UNL     1       6.813   5.075  15.247  0.00  0.00    +0.000 N 
ATOM     10  C   UNL     1       7.286   4.645  13.955  0.00  0.00    +0.000 C 
ATOM     11  C   UNL     1       4.448   5.093  17.871  0.00  0.00    +0.000 A 
ENDROOT
BRANCH   1  12
ATOM     12  C   UNL     1       2.217   3.898  18.042  0.00  0.00    +0.000 C 
ATOM     13  O   UNL     1       1.165   4.271  17.559  0.00  0.00    +0.000 OA
BRANCH  12  14
ATOM     14  O   UNL     1       2.365   3.207  19.202  0.00  0.00    +0.000 OA
BRANCH  14  16
ATOM     15  C   UNL     1       1.788   3.175  21.567  0.00  0.00    +0.000 C 
ATOM     16  C   UNL     1       1.285   3.337  20.142  0.00  0.00    +0.000 C 
ENDBRANCH  14  16
ENDBRANCH  12  14
ENDBRANCH   1  12
BRANCH  11  17
ATOM     17  O   UNL     1       4.272   5.884  18.983  0.00  0.00    +0.000 OA
BRANCH  17  18
ATOM     18  C   UNL     1       3.316   6.877  18.991  0.00  0.00    +0.000 A 
ATOM     19  C   UNL     1       2.419   7.130  20.032  0.00  0.00    +0.000 A 
ATOM     20  C   UNL     1       1.437   8.114  19.881  0.00  0.00    +0.000 A 
ATOM     21  C   UNL     1       1.387   8.878  18.716  0.00  0.00    +0.000 A 
ATOM     22 CL   UNL     1       0.171  10.082  18.533  0.00  0.00    +0.000 Cl
ATOM     23  C   UNL     1       2.316   8.672  17.698  0.00  0.00    +0.000 A 
ATOM     24  C   UNL     1       3.280   7.672  17.838  0.00  0.00    +0.000 A 
ENDBRANCH  17  18
ENDBRANCH  11  17
TORSDOF 5
ENDMDL
MODEL 4
REMARK VINA RESULT:      -6.3      1.765      2.075
REMARK  Name = 
REMARK  8 active torsions:
REMARK  status: ('A' for Active; 'I' for Inactive)
REMARK    1  A    between atoms: C_1  and  C_2
REMARK    2  A    between atoms: C_2  and  O_3
REMARK    3  A    between atoms: O_3  and  C_4
REMARK    4  A    between atoms: C_4  and  C_6
REMARK    5  A    between atoms: C_11  and  C_12
REMARK    6  A    between atoms: N_14  and  C_15
REMARK    7  A    between atoms: C_16  and  O_17
REMARK    8  A    between atoms: O_17  and  C_18
REMARK                            x       y       z     vdW  Elec       q    Type
REMARK                         _______ _______ _______ _____ _____    ______ ____
ROOT
ATOM      1  C   UNL     1       3.020   4.018  18.825  0.00  0.00    +0.000 A 
ATOM      2  C   UNL     1       4.084   3.207  19.224  0.00  0.00    +0.000 A 
ATOM      3  N   UNL     1       5.398   3.468  19.039  0.00  0.00    +0.000 NA
ATOM      4  C   UNL     1       5.609   4.622  18.378  0.00  0.00    +0.000 A 
ATOM      5  C   UNL     1       4.661   5.544  17.962  0.00  0.00    +0.000 A 
ATOM      6  C   UNL     1       5.425   6.559  17.315  0.00  0.00    +0.000 A 
ATOM      7  C   UNL     1       4.963   7.800  16.643  0.00  0.00    +0.000 C 
ATOM      8  N   UNL     1       6.741   6.282  17.318  0.00  0.00    +0.000 NA
ATOM      9  N   UNL     1       6.817   5.095  17.949  0.00  0.00    +0.000 N 
ATOM     10  C   UNL     1       8.077   4.402  18.058  0.00  0.00    +0.000 C 
ATOM     11  C   UNL     1       3.300   5.264  18.235  0.00  0.00    +0.000 A 
ENDROOT
BRANCH   1  12
ATOM     12  C   UNL     1       1.650   3.471  18.937  0.00  0.00    +0.000 C 
ATOM     13  O   UNL     1       1.184   2.627  18.195  0.00  0.00    +0.000 OA
BRANCH  12  14
ATOM     14  O   UNL     1       1.021   4.036  20.000  0.00  0.00    +0.000 OA
BRANCH  14  16
ATOM     15  C   UNL     1       1.485   2.459  21.796  0.00  0.00    +0.000 C 
ATOM     16  C   UNL     1       1.678   3.871  21.268  0.00  0.00    +0.000 C 
ENDBRANCH  14  16
ENDBRANCH  12  14
ENDBRANCH   1  12
BRANCH  11  17
ATOM     17  O   UNL     1       2.356   6.164  17.798  0.00  0.00    +0.000 OA
BRANCH  17  18
ATOM     18  C   UNL     1       2.011   7.247  18.578  0.00  0.00    +0.000 A 
ATOM     19  C   UNL     1       1.991   7.265  19.975  0.00  0.00    +0.000 A 
ATOM     20  C   UNL     1       1.538   8.403  20.650  0.00  0.00    +0.000 A 
ATOM     21  C   UNL     1       1.156   9.535  19.932  0.00  0.00    +0.000 A 
ATOM     22 CL   UNL     1       0.590  10.928  20.769  0.00  0.00    +0.000 Cl
ATOM     23  C   UNL     1       1.229   9.545  18.541  0.00  0.00    +0.000 A 
ATOM     24  C   UNL     1       1.657   8.400  17.866  0.00  0.00    +0.000 A 
ENDBRANCH  17  18
ENDBRANCH  11  17
TORSDOF 5
ENDMDL
MODEL 5
REMARK VINA RESULT:      -6.3      2.325      4.737
REMARK  Name = 
REMARK  8 active torsions:
REMARK  status: ('A' for Active; 'I' for Inactive)
REMARK    1  A    between atoms: C_1  and  C_2
REMARK    2  A    between atoms: C_2  and  O_3
REMARK    3  A    between atoms: O_3  and  C_4
REMARK    4  A    between atoms: C_4  and  C_6
REMARK    5  A    between atoms: C_11  and  C_12
REMARK    6  A    between atoms: N_14  and  C_15
REMARK    7  A    between atoms: C_16  and  O_17
REMARK    8  A    between atoms: O_17  and  C_18
REMARK                            x       y       z     vdW  Elec       q    Type
REMARK                         _______ _______ _______ _____ _____    ______ ____
ROOT
ATOM      1  C   UNL     1       4.805   5.314  17.739  0.00  0.00    +0.000 A 
ATOM      2  C   UNL     1       5.820   4.452  18.157  0.00  0.00    +0.000 A 
ATOM      3  N   UNL     1       5.682   3.414  19.013  0.00  0.00    +0.000 NA
ATOM      4  C   UNL     1       4.426   3.290  19.479  0.00  0.00    +0.000 A 
ATOM      5  C   UNL     1       3.314   4.038  19.123  0.00  0.00    +0.000 A 
ATOM      6  C   UNL     1       2.261   3.493  19.917  0.00  0.00    +0.000 A 
ATOM      7  C   UNL     1       0.835   3.898  19.993  0.00  0.00    +0.000 C 
ATOM      8  N   UNL     1       2.689   2.495  20.709  0.00  0.00    +0.000 NA
ATOM      9  N   UNL     1       4.005   2.410  20.437  0.00  0.00    +0.000 N 
ATOM     10  C   UNL     1       4.851   1.510  21.180  0.00  0.00    +0.000 C 
ATOM     11  C   UNL     1       3.488   5.073  18.173  0.00  0.00    +0.000 A 
ENDROOT
BRANCH   1  12
ATOM     12  C   UNL     1       5.187   6.509  16.956  0.00  0.00    +0.000 C 
ATOM     13  O   UNL     1       5.596   7.547  17.442  0.00  0.00    +0.000 OA
BRANCH  12  14
ATOM     14  O   UNL     1       5.034   6.252  15.631  0.00  0.00    +0.000 OA
BRANCH  14  16
ATOM     15  C   UNL     1       5.584   4.303  14.280  0.00  0.00    +0.000 C 
ATOM     16  C   UNL     1       6.109   5.526  15.014  0.00  0.00    +0.000 C 
ENDBRANCH  14  16
ENDBRANCH  12  14
ENDBRANCH   1  12
BRANCH  11  17
ATOM     17  O   UNL     1       2.392   5.834  17.840  0.00  0.00    +0.000 OA
BRANCH  17  18
ATOM     18  C   UNL     1       2.117   6.998  18.525  0.00  0.00    +0.000 A 
ATOM     19  C   UNL     1       1.999   7.113  19.913  0.00  0.00    +0.000 A 
ATOM     20  C   UNL     1       1.631   8.336  20.482  0.00  0.00    +0.000 A 
ATOM     21  C   UNL     1       1.433   9.453  19.670  0.00  0.00    +0.000 A 
ATOM     22 CL   UNL     1       0.971  10.953  20.376  0.00  0.00    +0.000 Cl
ATOM     23  C   UNL     1       1.608   9.361  18.291  0.00  0.00    +0.000 A 
ATOM     24  C   UNL     1       1.950   8.133  17.721  0.00  0.00    +0.000 A 
ENDBRANCH  17  18
ENDBRANCH  11  17
TORSDOF 5
ENDMDL
MODEL 6
REMARK VINA RESULT:      -6.2      1.732      2.443
REMARK  Name = 
REMARK  8 active torsions:
REMARK  status: ('A' for Active; 'I' for Inactive)
REMARK    1  A    between atoms: C_1  and  C_2
REMARK    2  A    between atoms: C_2  and  O_3
REMARK    3  A    between atoms: O_3  and  C_4
REMARK    4  A    between atoms: C_4  and  C_6
REMARK    5  A    between atoms: C_11  and  C_12
REMARK    6  A    between atoms: N_14  and  C_15
REMARK    7  A    between atoms: C_16  and  O_17
REMARK    8  A    between atoms: O_17  and  C_18
REMARK                            x       y       z     vdW  Elec       q    Type
REMARK                         _______ _______ _______ _____ _____    ______ ____
ROOT
ATOM      1  C   UNL     1       3.265   4.566  19.499  0.00  0.00    +0.000 A 
ATOM      2  C   UNL     1       4.402   3.867  19.910  0.00  0.00    +0.000 A 
ATOM      3  N   UNL     1       5.643   3.987  19.387  0.00  0.00    +0.000 NA
ATOM      4  C   UNL     1       5.693   4.861  18.364  0.00  0.00    +0.000 A 
ATOM      5  C   UNL     1       4.663   5.654  17.879  0.00  0.00    +0.000 A 
ATOM      6  C   UNL     1       5.259   6.372  16.800  0.00  0.00    +0.000 A 
ATOM      7  C   UNL     1       4.647   7.360  15.877  0.00  0.00    +0.000 C 
ATOM      8  N   UNL     1       6.550   6.041  16.622  0.00  0.00    +0.000 NA
ATOM      9  N   UNL     1       6.776   5.111  17.570  0.00  0.00    +0.000 N 
ATOM     10  C   UNL     1       8.041   4.423  17.634  0.00  0.00    +0.000 C 
ATOM     11  C   UNL     1       3.396   5.546  18.498  0.00  0.00    +0.000 A 
ENDROOT
BRANCH   1  12
ATOM     12  C   UNL     1       1.958   4.155  20.057  0.00  0.00    +0.000 C 
ATOM     13  O   UNL     1       1.641   4.274  21.225  0.00  0.00    +0.000 OA
BRANCH  12  14
ATOM     14  O   UNL     1       1.178   3.656  19.063  0.00  0.00    +0.000 OA
BRANCH  14  16
ATOM     15  C   UNL     1       2.304   2.003  17.676  0.00  0.00    +0.000 C 
ATOM     16  C   UNL     1       1.322   2.250  18.809  0.00  0.00    +0.000 C 
ENDBRANCH  14  16
ENDBRANCH  12  14
ENDBRANCH   1  12
BRANCH  11  17
ATOM     17  O   UNL     1       2.367   6.311  17.999  0.00  0.00    +0.000 OA
BRANCH  17  18
ATOM     18  C   UNL     1       2.013   7.492  18.616  0.00  0.00    +0.000 A 
ATOM     19  C   UNL     1       1.822   7.662  19.990  0.00  0.00    +0.000 A 
ATOM     20  C   UNL     1       1.379   8.894  20.483  0.00  0.00    +0.000 A 
ATOM     21  C   UNL     1       1.178   9.964  19.613  0.00  0.00    +0.000 A 
ATOM     22 CL   UNL     1       0.624  11.473  20.226  0.00  0.00    +0.000 Cl
ATOM     23  C   UNL     1       1.424   9.818  18.249  0.00  0.00    +0.000 A 
ATOM     24  C   UNL     1       1.841   8.582  17.753  0.00  0.00    +0.000 A 
ENDBRANCH  17  18
ENDBRANCH  11  17
TORSDOF 5
ENDMDL
MODEL 7
REMARK VINA RESULT:      -6.2      2.255      4.634
REMARK  Name = 
REMARK  8 active torsions:
REMARK  status: ('A' for Active; 'I' for Inactive)
REMARK    1  A    between atoms: C_1  and  C_2
REMARK    2  A    between atoms: C_2  and  O_3
REMARK    3  A    between atoms: O_3  and  C_4
REMARK    4  A    between atoms: C_4  and  C_6
REMARK    5  A    between atoms: C_11  and  C_12
REMARK    6  A    between atoms: N_14  and  C_15
REMARK    7  A    between atoms: C_16  and  O_17
REMARK    8  A    between atoms: O_17  and  C_18
REMARK                            x       y       z     vdW  Elec       q    Type
REMARK                         _______ _______ _______ _____ _____    ______ ____
ROOT
ATOM      1  C   UNL     1       4.164   5.628  17.213  0.00  0.00    +0.000 A 
ATOM      2  C   UNL     1       4.041   4.381  16.600  0.00  0.00    +0.000 A 
ATOM      3  N   UNL     1       3.264   3.358  17.023  0.00  0.00    +0.000 NA
ATOM      4  C   UNL     1       2.604   3.644  18.162  0.00  0.00    +0.000 A 
ATOM      5  C   UNL     1       2.595   4.846  18.854  0.00  0.00    +0.000 A 
ATOM      6  C   UNL     1       1.750   4.593  19.975  0.00  0.00    +0.000 A 
ATOM      7  C   UNL     1       1.373   5.496  21.091  0.00  0.00    +0.000 C 
ATOM      8  N   UNL     1       1.283   3.332  19.983  0.00  0.00    +0.000 NA
ATOM      9  N   UNL     1       1.834   2.778  18.886  0.00  0.00    +0.000 N 
ATOM     10  C   UNL     1       1.654   1.376  18.603  0.00  0.00    +0.000 C 
ATOM     11  C   UNL     1       3.370   5.912  18.340  0.00  0.00    +0.000 A 
ENDROOT
BRANCH   1  12
ATOM     12  C   UNL     1       5.213   6.545  16.716  0.00  0.00    +0.000 C 
ATOM     13  O   UNL     1       5.269   6.974  15.579  0.00  0.00    +0.000 OA
BRANCH  12  14
ATOM     14  O   UNL     1       6.070   6.844  17.727  0.00  0.00    +0.000 OA
BRANCH  14  16
ATOM     15  C   UNL     1       7.968   8.369  17.716  0.00  0.00    +0.000 C 
ATOM     16  C   UNL     1       7.448   6.988  17.348  0.00  0.00    +0.000 C 
ENDBRANCH  14  16
ENDBRANCH  12  14
ENDBRANCH   1  12
BRANCH  11  17
ATOM     17  O   UNL     1       3.384   7.096  19.041  0.00  0.00    +0.000 OA
BRANCH  17  18
ATOM     18  C   UNL     1       2.363   8.009  18.890  0.00  0.00    +0.000 A 
ATOM     19  C   UNL     1       1.918   8.532  17.672  0.00  0.00    +0.000 A 
ATOM     20  C   UNL     1       0.928   9.519  17.659  0.00  0.00    +0.000 A 
ATOM     21  C   UNL     1       0.348   9.943  18.855  0.00  0.00    +0.000 A 
ATOM     22 CL   UNL     1      -0.863  11.165  18.832  0.00  0.00    +0.000 Cl
ATOM     23  C   UNL     1       0.744   9.383  20.067  0.00  0.00    +0.000 A 
ATOM     24  C   UNL     1       1.751   8.416  20.082  0.00  0.00    +0.000 A 
ENDBRANCH  17  18
ENDBRANCH  11  17
TORSDOF 5
ENDMDL
MODEL 8
REMARK VINA RESULT:      -6.1      6.266      9.533
REMARK  Name = 
REMARK  8 active torsions:
REMARK  status: ('A' for Active; 'I' for Inactive)
REMARK    1  A    between atoms: C_1  and  C_2
REMARK    2  A    between atoms: C_2  and  O_3
REMARK    3  A    between atoms: O_3  and  C_4
REMARK    4  A    between atoms: C_4  and  C_6
REMARK    5  A    between atoms: C_11  and  C_12
REMARK    6  A    between atoms: N_14  and  C_15
REMARK    7  A    between atoms: C_16  and  O_17
REMARK    8  A    between atoms: O_17  and  C_18
REMARK                            x       y       z     vdW  Elec       q    Type
REMARK                         _______ _______ _______ _____ _____    ______ ____
ROOT
ATOM      1  C   UNL     1      -0.208  12.661  20.245  0.00  0.00    +0.000 A 
ATOM      2  C   UNL     1      -1.296  13.228  20.912  0.00  0.00    +0.000 A 
ATOM      3  N   UNL     1      -2.601  13.016  20.630  0.00  0.00    +0.000 NA
ATOM      4  C   UNL     1      -2.779  12.192  19.581  0.00  0.00    +0.000 A 
ATOM      5  C   UNL     1      -1.803  11.525  18.855  0.00  0.00    +0.000 A 
ATOM      6  C   UNL     1      -2.537  10.806  17.866  0.00  0.00    +0.000 A 
ATOM      7  C   UNL     1      -2.039   9.926  16.780  0.00  0.00    +0.000 C 
ATOM      8  N   UNL     1      -3.861  11.021  17.963  0.00  0.00    +0.000 NA
ATOM      9  N   UNL     1      -3.973  11.879  18.996  0.00  0.00    +0.000 N 
ATOM     10  C   UNL     1      -5.253  12.439  19.347  0.00  0.00    +0.000 C 
ATOM     11  C   UNL     1      -0.451  11.723  19.225  0.00  0.00    +0.000 A 
ENDROOT
BRANCH   1  12
ATOM     12  C   UNL     1       1.144  13.168  20.567  0.00  0.00    +0.000 C 
ATOM     13  O   UNL     1       1.912  12.632  21.344  0.00  0.00    +0.000 OA
BRANCH  12  14
ATOM     14  O   UNL     1       1.391  14.292  19.845  0.00  0.00    +0.000 OA
BRANCH  14  16
ATOM     15  C   UNL     1       2.752  15.519  18.242  0.00  0.00    +0.000 C 
ATOM     16  C   UNL     1       2.379  14.159  18.810  0.00  0.00    +0.000 C 
ENDBRANCH  14  16
ENDBRANCH  12  14
ENDBRANCH   1  12
BRANCH  11  17
ATOM     17  O   UNL     1       0.519  11.084  18.489  0.00  0.00    +0.000 OA
BRANCH  17  18
ATOM     18  C   UNL     1       1.008   9.860  18.891  0.00  0.00    +0.000 A 
ATOM     19  C   UNL     1       0.914   9.336  20.183  0.00  0.00    +0.000 A 
ATOM     20  C   UNL     1       1.528   8.116  20.485  0.00  0.00    +0.000 A 
ATOM     21  C   UNL     1       2.187   7.399  19.487  0.00  0.00    +0.000 A 
ATOM     22 CL   UNL     1       2.948   5.903  19.869  0.00  0.00    +0.000 Cl
ATOM     23  C   UNL     1       2.234   7.887  18.183  0.00  0.00    +0.000 A 
ATOM     24  C   UNL     1       1.643   9.117  17.887  0.00  0.00    +0.000 A 
ENDBRANCH  17  18
ENDBRANCH  11  17
TORSDOF 5
ENDMDL
MODEL 9
REMARK VINA RESULT:      -6.1      2.281      4.725
REMARK  Name = 
REMARK  8 active torsions:
REMARK  status: ('A' for Active; 'I' for Inactive)
REMARK    1  A    between atoms: C_1  and  C_2
REMARK    2  A    between atoms: C_2  and  O_3
REMARK    3  A    between atoms: O_3  and  C_4
REMARK    4  A    between atoms: C_4  and  C_6
REMARK    5  A    between atoms: C_11  and  C_12
REMARK    6  A    between atoms: N_14  and  C_15
REMARK    7  A    between atoms: C_16  and  O_17
REMARK    8  A    between atoms: O_17  and  C_18
REMARK                            x       y       z     vdW  Elec       q    Type
REMARK                         _______ _______ _______ _____ _____    ______ ____
ROOT
ATOM      1  C   UNL     1       5.035   5.557  17.670  0.00  0.00    +0.000 A 
ATOM      2  C   UNL     1       6.062   4.739  18.144  0.00  0.00    +0.000 A 
ATOM      3  N   UNL     1       5.913   3.647  18.929  0.00  0.00    +0.000 NA
ATOM      4  C   UNL     1       4.628   3.415  19.256  0.00  0.00    +0.000 A 
ATOM      5  C   UNL     1       3.507   4.111  18.827  0.00  0.00    +0.000 A 
ATOM      6  C   UNL     1       2.422   3.454  19.480  0.00  0.00    +0.000 A 
ATOM      7  C   UNL     1       0.970   3.762  19.430  0.00  0.00    +0.000 C 
ATOM      8  N   UNL     1       2.838   2.442  20.260  0.00  0.00    +0.000 NA
ATOM      9  N   UNL     1       4.177   2.457  20.120  0.00  0.00    +0.000 N 
ATOM     10  C   UNL     1       5.006   1.572  20.899  0.00  0.00    +0.000 C 
ATOM     11  C   UNL     1       3.702   5.207  17.954  0.00  0.00    +0.000 A 
ENDROOT
BRANCH   1  12
ATOM     12  C   UNL     1       5.409   6.817  16.992  0.00  0.00    +0.000 C 
ATOM     13  O   UNL     1       5.050   7.128  15.871  0.00  0.00    +0.000 OA
BRANCH  12  14
ATOM     14  O   UNL     1       6.181   7.567  17.821  0.00  0.00    +0.000 OA
BRANCH  14  16
ATOM     15  C   UNL     1       8.101   9.061  17.901  0.00  0.00    +0.000 C 
ATOM     16  C   UNL     1       7.548   7.732  17.413  0.00  0.00    +0.000 C 
ENDBRANCH  14  16
ENDBRANCH  12  14
ENDBRANCH   1  12
BRANCH  11  17
ATOM     17  O   UNL     1       2.594   5.915  17.550  0.00  0.00    +0.000 OA
BRANCH  17  18
ATOM     18  C   UNL     1       2.195   7.040  18.239  0.00  0.00    +0.000 A 
ATOM     19  C   UNL     1       1.912   8.283  17.665  0.00  0.00    +0.000 A 
ATOM     20  C   UNL     1       1.599   9.372  18.484  0.00  0.00    +0.000 A 
ATOM     21  C   UNL     1       1.517   9.206  19.866  0.00  0.00    +0.000 A 
ATOM     22 CL   UNL     1       1.140  10.553  20.869  0.00  0.00    +0.000 Cl
ATOM     23  C   UNL     1       1.738   7.957  20.440  0.00  0.00    +0.000 A 
ATOM     24  C   UNL     1       2.076   6.875  19.625  0.00  0.00    +0.000 A 
ENDBRANCH  17  18
ENDBRANCH  11  17
TORSDOF 5
ENDMDL
