MODEL 1
REMARK VINA RESULT:      -7.4      0.000      0.000
REMARK  Name = 
REMARK  10 active torsions:
REMARK  status: ('A' for Active; 'I' for Inactive)
REMARK    1  A    between atoms: C_1  and  O_2
REMARK    2  A    between atoms: O_2  and  C_3
REMARK    3  A    between atoms: C_8  and  N_9
REMARK    4  A    between atoms: N_15  and  C_16
REMARK    5  A    between atoms: C_16  and  C_17
REMARK    6  A    between atoms: C_17  and  C_18
REMARK    7  A    between atoms: C_18  and  S_19
REMARK    8  A    between atoms: S_19  and  C_20
REMARK    9  A    between atoms: C_23  and  C_24
REMARK   10  A    between atoms: N_30  and  C_31
REMARK                            x       y       z     vdW  Elec       q    Type
REMARK                         _______ _______ _______ _____ _____    ______ ____
ROOT
ATOM      1  N   UNL     1       1.866   7.912  19.603  0.00  0.00    +0.000 N 
ATOM      2  C   UNL     1       2.070   8.827  18.488  0.00  0.00    +0.000 C 
ATOM      3  C   UNL     1       0.749   9.541  18.208  0.00  0.00    +0.000 C 
ATOM      4  C   UNL     1       0.172  10.270  19.445  0.00  0.00    +0.000 C 
ATOM      5  C   UNL     1       1.037  11.493  19.831  0.00  0.00    +0.000 C 
ATOM      6  C   UNL     1       0.962  12.601  18.777  0.00  0.00    +0.000 C 
ATOM      7  N   UNL     1      -0.407  13.062  18.502  0.00  0.00    +0.000 NA
ATOM      8  C   UNL     1      -1.253  11.925  18.098  0.00  0.00    +0.000 C 
ATOM      9  C   UNL     1      -1.255  10.764  19.103  0.00  0.00    +0.000 C 
ATOM     10  C   UNL     1       0.108   9.269  20.630  0.00  0.00    +0.000 C 
ATOM     11  C   UNL     1       1.426   8.520  20.859  0.00  0.00    +0.000 C 
ENDROOT
BRANCH   1  17
ATOM     12  C   UNL     1       3.238   6.101  18.577  0.00  0.00    +0.000 A 
ATOM     13  C   UNL     1       3.586   4.739  18.567  0.00  0.00    +0.000 A 
ATOM     14  C   UNL     1       3.091   3.867  19.533  0.00  0.00    +0.000 A 
ATOM     15  C   UNL     1       2.237   4.342  20.515  0.00  0.00    +0.000 A 
ATOM     16  C   UNL     1       1.868   5.690  20.520  0.00  0.00    +0.000 A 
ATOM     17  C   UNL     1       2.344   6.606  19.559  0.00  0.00    +0.000 A 
BRANCH  12  19
ATOM     18  C   UNL     1       4.832   6.566  16.852  0.00  0.00    +0.000 C 
ATOM     19  O   UNL     1       3.729   6.985  17.642  0.00  0.00    +0.000 OA
ENDBRANCH  12  19
ENDBRANCH   1  17
BRANCH   7  20
ATOM     20  C   UNL     1      -1.020  13.786  19.631  0.00  0.00    +0.000 C 
BRANCH  20  21
ATOM     21  C   UNL     1      -0.127  14.882  20.225  0.00  0.00    +0.000 C 
BRANCH  21  22
ATOM     22  C   UNL     1      -0.933  16.038  20.810  0.00  0.00    +0.000 C 
BRANCH  22  23
ATOM     23  S   UNL     1      -0.896  15.969  22.628  0.00  0.00    +0.000 S 
BRANCH  23  24
ATOM     24  C   UNL     1      -1.938  14.634  22.924  0.00  0.00    +0.000 A 
ATOM     25  N   UNL     1      -1.582  13.421  23.260  0.00  0.00    +0.000 NA
ATOM     26  N   UNL     1      -2.723  12.665  23.316  0.00  0.00    +0.000 NA
ATOM     27  C   UNL     1      -3.757  13.425  22.989  0.00  0.00    +0.000 A 
ATOM     28  N   UNL     1      -3.298  14.712  22.809  0.00  0.00    +0.000 N 
ATOM     29  C   UNL     1      -4.048  15.927  22.612  0.00  0.00    +0.000 C 
BRANCH  27  30
ATOM     30  C   UNL     1      -5.130  12.942  22.890  0.00  0.00    +0.000 A 
ATOM     31  C   UNL     1      -6.020  12.926  23.968  0.00  0.00    +0.000 A 
ATOM     32  C   UNL     1      -7.308  12.424  23.800  0.00  0.00    +0.000 A 
ATOM     33  C   UNL     1      -7.683  11.986  22.544  0.00  0.00    +0.000 A 
ATOM     34  N   UNL     1      -6.874  12.024  21.465  0.00  0.00    +0.000 NA
ATOM     35  C   UNL     1      -5.622  12.509  21.662  0.00  0.00    +0.000 A 
ENDBRANCH  27  30
ENDBRANCH  23  24
ENDBRANCH  22  23
ENDBRANCH  21  22
ENDBRANCH  20  21
ENDBRANCH   7  20
TORSDOF 8
ENDMDL
MODEL 2
REMARK VINA RESULT:      -7.4      3.368      6.673
REMARK  Name = 
REMARK  10 active torsions:
REMARK  status: ('A' for Active; 'I' for Inactive)
REMARK    1  A    between atoms: C_1  and  O_2
REMARK    2  A    between atoms: O_2  and  C_3
REMARK    3  A    between atoms: C_8  and  N_9
REMARK    4  A    between atoms: N_15  and  C_16
REMARK    5  A    between atoms: C_16  and  C_17
REMARK    6  A    between atoms: C_17  and  C_18
REMARK    7  A    between atoms: C_18  and  S_19
REMARK    8  A    between atoms: S_19  and  C_20
REMARK    9  A    between atoms: C_23  and  C_24
REMARK   10  A    between atoms: N_30  and  C_31
REMARK                            x       y       z     vdW  Elec       q    Type
REMARK                         _______ _______ _______ _____ _____    ______ ____
ROOT
ATOM      1  N   UNL     1       2.258   7.534  18.572  0.00  0.00    +0.000 N 
ATOM      2  C   UNL     1       2.288   8.661  17.650  0.00  0.00    +0.000 C 
ATOM      3  C   UNL     1       0.976   9.431  17.794  0.00  0.00    +0.000 C 
ATOM      4  C   UNL     1       0.691   9.889  19.243  0.00  0.00    +0.000 C 
ATOM      5  C   UNL     1       1.676  10.995  19.688  0.00  0.00    +0.000 C 
ATOM      6  C   UNL     1       1.455  12.301  18.919  0.00  0.00    +0.000 C 
ATOM      7  N   UNL     1       0.085  12.823  19.025  0.00  0.00    +0.000 NA
ATOM      8  C   UNL     1      -0.882  11.804  18.577  0.00  0.00    +0.000 C 
ATOM      9  C   UNL     1      -0.748  10.458  19.304  0.00  0.00    +0.000 C 
ATOM     10  C   UNL     1       0.806   8.662  20.187  0.00  0.00    +0.000 C 
ATOM     11  C   UNL     1       2.104   7.869  19.989  0.00  0.00    +0.000 C 
ENDROOT
BRANCH   1  17
ATOM     12  C   UNL     1       3.947   5.923  17.698  0.00  0.00    +0.000 A 
ATOM     13  C   UNL     1       4.214   4.626  17.223  0.00  0.00    +0.000 A 
ATOM     14  C   UNL     1       3.228   3.644  17.235  0.00  0.00    +0.000 A 
ATOM     15  C   UNL     1       1.963   3.944  17.712  0.00  0.00    +0.000 A 
ATOM     16  C   UNL     1       1.682   5.236  18.166  0.00  0.00    +0.000 A 
ATOM     17  C   UNL     1       2.649   6.262  18.169  0.00  0.00    +0.000 A 
BRANCH  12  19
ATOM     18  C   UNL     1       6.079   6.697  16.932  0.00  0.00    +0.000 C 
ATOM     19  O   UNL     1       4.910   6.907  17.711  0.00  0.00    +0.000 OA
ENDBRANCH  12  19
ENDBRANCH   1  17
BRANCH   7  20
ATOM     20  C   UNL     1      -0.259  13.299  20.378  0.00  0.00    +0.000 C 
BRANCH  20  21
ATOM     21  C   UNL     1      -1.398  14.325  20.405  0.00  0.00    +0.000 C 
BRANCH  21  22
ATOM     22  C   UNL     1      -0.974  15.683  19.854  0.00  0.00    +0.000 C 
BRANCH  22  23
ATOM     23  S   UNL     1       0.258  16.449  20.955  0.00  0.00    +0.000 S 
BRANCH  23  24
ATOM     24  C   UNL     1       1.558  16.705  19.860  0.00  0.00    +0.000 A 
ATOM     25  N   UNL     1       1.518  17.378  18.740  0.00  0.00    +0.000 NA
ATOM     26  N   UNL     1       2.750  17.260  18.153  0.00  0.00    +0.000 NA
ATOM     27  C   UNL     1       3.517  16.494  18.914  0.00  0.00    +0.000 A 
ATOM     28  N   UNL     1       2.808  16.186  20.056  0.00  0.00    +0.000 N 
ATOM     29  C   UNL     1       3.257  15.528  21.256  0.00  0.00    +0.000 C 
BRANCH  27  30
ATOM     30  C   UNL     1       4.881  16.106  18.575  0.00  0.00    +0.000 A 
ATOM     31  C   UNL     1       5.204  14.908  17.932  0.00  0.00    +0.000 A 
ATOM     32  C   UNL     1       6.535  14.596  17.665  0.00  0.00    +0.000 A 
ATOM     33  C   UNL     1       7.507  15.514  18.018  0.00  0.00    +0.000 A 
ATOM     34  N   UNL     1       7.239  16.701  18.600  0.00  0.00    +0.000 NA
ATOM     35  C   UNL     1       5.934  16.973  18.855  0.00  0.00    +0.000 A 
ENDBRANCH  27  30
ENDBRANCH  23  24
ENDBRANCH  22  23
ENDBRANCH  21  22
ENDBRANCH  20  21
ENDBRANCH   7  20
TORSDOF 8
ENDMDL
MODEL 3
REMARK VINA RESULT:      -7.3      3.482      6.919
REMARK  Name = 
REMARK  10 active torsions:
REMARK  status: ('A' for Active; 'I' for Inactive)
REMARK    1  A    between atoms: C_1  and  O_2
REMARK    2  A    between atoms: O_2  and  C_3
REMARK    3  A    between atoms: C_8  and  N_9
REMARK    4  A    between atoms: N_15  and  C_16
REMARK    5  A    between atoms: C_16  and  C_17
REMARK    6  A    between atoms: C_17  and  C_18
REMARK    7  A    between atoms: C_18  and  S_19
REMARK    8  A    between atoms: S_19  and  C_20
REMARK    9  A    between atoms: C_23  and  C_24
REMARK   10  A    between atoms: N_30  and  C_31
REMARK                            x       y       z     vdW  Elec       q    Type
REMARK                         _______ _______ _______ _____ _____    ______ ____
ROOT
ATOM      1  N   UNL     1       2.320   7.614  18.809  0.00  0.00    +0.000 N 
ATOM      2  C   UNL     1       2.368   8.753  17.902  0.00  0.00    +0.000 C 
ATOM      3  C   UNL     1       0.999   9.431  17.914  0.00  0.00    +0.000 C 
ATOM      4  C   UNL     1       0.535   9.849  19.330  0.00  0.00    +0.000 C 
ATOM      5  C   UNL     1       1.392  11.013  19.881  0.00  0.00    +0.000 C 
ATOM      6  C   UNL     1       1.162  12.311  19.102  0.00  0.00    +0.000 C 
ATOM      7  N   UNL     1      -0.244  12.739  19.069  0.00  0.00    +0.000 NA
ATOM      8  C   UNL     1      -1.088  11.663  18.516  0.00  0.00    +0.000 C 
ATOM      9  C   UNL     1      -0.938  10.320  19.245  0.00  0.00    +0.000 C 
ATOM     10  C   UNL     1       0.636   8.620  20.272  0.00  0.00    +0.000 C 
ATOM     11  C   UNL     1       1.998   7.919  20.204  0.00  0.00    +0.000 C 
ENDROOT
BRANCH   1  17
ATOM     12  C   UNL     1       2.475   5.136  19.031  0.00  0.00    +0.000 A 
ATOM     13  C   UNL     1       3.127   3.950  18.650  0.00  0.00    +0.000 A 
ATOM     14  C   UNL     1       4.112   3.961  17.667  0.00  0.00    +0.000 A 
ATOM     15  C   UNL     1       4.464   5.154  17.058  0.00  0.00    +0.000 A 
ATOM     16  C   UNL     1       3.837   6.342  17.446  0.00  0.00    +0.000 A 
ATOM     17  C   UNL     1       2.837   6.377  18.440  0.00  0.00    +0.000 A 
BRANCH  12  19
ATOM     18  C   UNL     1       0.859   3.914  20.306  0.00  0.00    +0.000 C 
ATOM     19  O   UNL     1       1.486   5.148  19.990  0.00  0.00    +0.000 OA
ENDBRANCH  12  19
ENDBRANCH   1  17
BRANCH   7  20
ATOM     20  C   UNL     1      -0.757  13.172  20.382  0.00  0.00    +0.000 C 
BRANCH  20  21
ATOM     21  C   UNL     1      -1.200  14.640  20.422  0.00  0.00    +0.000 C 
BRANCH  21  22
ATOM     22  C   UNL     1      -0.567  15.471  19.311  0.00  0.00    +0.000 C 
BRANCH  22  23
ATOM     23  S   UNL     1       0.183  16.977  20.006  0.00  0.00    +0.000 S 
BRANCH  23  24
ATOM     24  C   UNL     1       1.660  17.041  19.129  0.00  0.00    +0.000 A 
ATOM     25  N   UNL     1       1.865  17.635  17.982  0.00  0.00    +0.000 NA
ATOM     26  N   UNL     1       3.157  17.368  17.614  0.00  0.00    +0.000 NA
ATOM     27  C   UNL     1       3.713  16.592  18.531  0.00  0.00    +0.000 A 
ATOM     28  N   UNL     1       2.805  16.429  19.556  0.00  0.00    +0.000 N 
ATOM     29  C   UNL     1       2.991  15.819  20.848  0.00  0.00    +0.000 C 
BRANCH  27  30
ATOM     30  C   UNL     1       5.070  16.062  18.444  0.00  0.00    +0.000 A 
ATOM     31  C   UNL     1       5.380  14.835  17.851  0.00  0.00    +0.000 A 
ATOM     32  C   UNL     1       6.698  14.385  17.830  0.00  0.00    +0.000 A 
ATOM     33  C   UNL     1       7.677  15.197  18.372  0.00  0.00    +0.000 A 
ATOM     34  N   UNL     1       7.430  16.408  18.914  0.00  0.00    +0.000 NA
ATOM     35  C   UNL     1       6.136  16.815  18.928  0.00  0.00    +0.000 A 
ENDBRANCH  27  30
ENDBRANCH  23  24
ENDBRANCH  22  23
ENDBRANCH  21  22
ENDBRANCH  20  21
ENDBRANCH   7  20
TORSDOF 8
ENDMDL
MODEL 4
REMARK VINA RESULT:      -7.2      4.217      7.709
REMARK  Name = 
REMARK  10 active torsions:
REMARK  status: ('A' for Active; 'I' for Inactive)
REMARK    1  A    between atoms: C_1  and  O_2
REMARK    2  A    between atoms: O_2  and  C_3
REMARK    3  A    between atoms: C_8  and  N_9
REMARK    4  A    between atoms: N_15  and  C_16
REMARK    5  A    between atoms: C_16  and  C_17
REMARK    6  A    between atoms: C_17  and  C_18
REMARK    7  A    between atoms: C_18  and  S_19
REMARK    8  A    between atoms: S_19  and  C_20
REMARK    9  A    between atoms: C_23  and  C_24
REMARK   10  A    between atoms: N_30  and  C_31
REMARK                            x       y       z     vdW  Elec       q    Type
REMARK                         _______ _______ _______ _____ _____    ______ ____
ROOT
ATOM      1  N   UNL     1       2.297   7.240  18.565  0.00  0.00    +0.000 N 
ATOM      2  C   UNL     1       2.299   8.307  17.574  0.00  0.00    +0.000 C 
ATOM      3  C   UNL     1       1.028   9.134  17.761  0.00  0.00    +0.000 C 
ATOM      4  C   UNL     1       0.864   9.689  19.195  0.00  0.00    +0.000 C 
ATOM      5  C   UNL     1       1.917  10.782  19.499  0.00  0.00    +0.000 C 
ATOM      6  C   UNL     1       1.686  12.046  18.668  0.00  0.00    +0.000 C 
ATOM      7  N   UNL     1       0.345  12.627  18.837  0.00  0.00    +0.000 NA
ATOM      8  C   UNL     1      -0.686  11.621  18.522  0.00  0.00    +0.000 C 
ATOM      9  C   UNL     1      -0.546  10.317  19.321  0.00  0.00    +0.000 C 
ATOM     10  C   UNL     1       1.006   8.518  20.204  0.00  0.00    +0.000 C 
ATOM     11  C   UNL     1       2.258   7.665  19.965  0.00  0.00    +0.000 C 
ENDROOT
BRANCH   1  17
ATOM     12  C   UNL     1       3.920   5.470  17.895  0.00  0.00    +0.000 A 
ATOM     13  C   UNL     1       4.120   4.148  17.461  0.00  0.00    +0.000 A 
ATOM     14  C   UNL     1       3.054   3.257  17.367  0.00  0.00    +0.000 A 
ATOM     15  C   UNL     1       1.776   3.677  17.698  0.00  0.00    +0.000 A 
ATOM     16  C   UNL     1       1.564   4.996  18.109  0.00  0.00    +0.000 A 
ATOM     17  C   UNL     1       2.614   5.931  18.215  0.00  0.00    +0.000 A 
BRANCH  12  19
ATOM     18  C   UNL     1       5.643   6.741  16.825  0.00  0.00    +0.000 C 
ATOM     19  O   UNL     1       4.962   6.364  18.012  0.00  0.00    +0.000 OA
ENDBRANCH  12  19
ENDBRANCH   1  17
BRANCH   7  20
ATOM     20  C   UNL     1       0.117  13.196  20.178  0.00  0.00    +0.000 C 
BRANCH  20  21
ATOM     21  C   UNL     1      -0.196  14.697  20.170  0.00  0.00    +0.000 C 
BRANCH  21  22
ATOM     22  C   UNL     1       1.018  15.545  19.805  0.00  0.00    +0.000 C 
BRANCH  22  23
ATOM     23  S   UNL     1       2.479  14.979  20.732  0.00  0.00    +0.000 S 
BRANCH  23  24
ATOM     24  C   UNL     1       3.695  15.092  19.523  0.00  0.00    +0.000 A 
ATOM     25  N   UNL     1       3.512  15.145  18.229  0.00  0.00    +0.000 NA
ATOM     26  N   UNL     1       4.750  15.150  17.644  0.00  0.00    +0.000 NA
ATOM     27  C   UNL     1       5.673  15.075  18.592  0.00  0.00    +0.000 A 
ATOM     28  N   UNL     1       5.032  15.117  19.812  0.00  0.00    +0.000 N 
ATOM     29  C   UNL     1       5.595  15.235  21.133  0.00  0.00    +0.000 C 
BRANCH  27  30
ATOM     30  C   UNL     1       7.107  15.004  18.336  0.00  0.00    +0.000 A 
ATOM     31  C   UNL     1       7.809  13.801  18.218  0.00  0.00    +0.000 A 
ATOM     32  C   UNL     1       9.184  13.816  17.999  0.00  0.00    +0.000 A 
ATOM     33  C   UNL     1       9.814  15.040  17.867  0.00  0.00    +0.000 A 
ATOM     34  N   UNL     1       9.171  16.223  17.930  0.00  0.00    +0.000 NA
ATOM     35  C   UNL     1       7.834  16.177  18.153  0.00  0.00    +0.000 A 
ENDBRANCH  27  30
ENDBRANCH  23  24
ENDBRANCH  22  23
ENDBRANCH  21  22
ENDBRANCH  20  21
ENDBRANCH   7  20
TORSDOF 8
ENDMDL
MODEL 5
REMARK VINA RESULT:      -7.2      5.547      9.928
REMARK  Name = 
REMARK  10 active torsions:
REMARK  status: ('A' for Active; 'I' for Inactive)
REMARK    1  A    between atoms: C_1  and  O_2
REMARK    2  A    between atoms: O_2  and  C_3
REMARK    3  A    between atoms: C_8  and  N_9
REMARK    4  A    between atoms: N_15  and  C_16
REMARK    5  A    between atoms: C_16  and  C_17
REMARK    6  A    between atoms: C_17  and  C_18
REMARK    7  A    between atoms: C_18  and  S_19
REMARK    8  A    between atoms: S_19  and  C_20
REMARK    9  A    between atoms: C_23  and  C_24
REMARK   10  A    between atoms: N_30  and  C_31
REMARK                            x       y       z     vdW  Elec       q    Type
REMARK                         _______ _______ _______ _____ _____    ______ ____
ROOT
ATOM      1  N   UNL     1       6.937  15.886  18.878  0.00  0.00    +0.000 N 
ATOM      2  C   UNL     1       6.140  16.300  20.025  0.00  0.00    +0.000 C 
ATOM      3  C   UNL     1       4.779  16.772  19.515  0.00  0.00    +0.000 C 
ATOM      4  C   UNL     1       4.043  15.711  18.663  0.00  0.00    +0.000 C 
ATOM      5  C   UNL     1       3.581  14.516  19.530  0.00  0.00    +0.000 C 
ATOM      6  C   UNL     1       2.480  14.915  20.515  0.00  0.00    +0.000 C 
ATOM      7  N   UNL     1       1.300  15.511  19.870  0.00  0.00    +0.000 NA
ATOM      8  C   UNL     1       1.699  16.677  19.060  0.00  0.00    +0.000 C 
ATOM      9  C   UNL     1       2.794  16.370  18.028  0.00  0.00    +0.000 C 
ATOM     10  C   UNL     1       4.999  15.218  17.543  0.00  0.00    +0.000 C 
ATOM     11  C   UNL     1       6.379  14.803  18.067  0.00  0.00    +0.000 C 
ENDROOT
BRANCH   1  17
ATOM     12  C   UNL     1       9.387  15.498  19.127  0.00  0.00    +0.000 A 
ATOM     13  C   UNL     1      10.686  16.027  19.037  0.00  0.00    +0.000 A 
ATOM     14  C   UNL     1      10.902  17.311  18.542  0.00  0.00    +0.000 A 
ATOM     15  C   UNL     1       9.826  18.082  18.139  0.00  0.00    +0.000 A 
ATOM     16  C   UNL     1       8.528  17.573  18.245  0.00  0.00    +0.000 A 
ATOM     17  C   UNL     1       8.264  16.280  18.744  0.00  0.00    +0.000 A 
BRANCH  12  19
ATOM     18  C   UNL     1       9.912  13.164  19.044  0.00  0.00    +0.000 C 
ATOM     19  O   UNL     1       9.150  14.225  19.598  0.00  0.00    +0.000 OA
ENDBRANCH  12  19
ENDBRANCH   1  17
BRANCH   7  20
ATOM     20  C   UNL     1       0.532  14.554  19.052  0.00  0.00    +0.000 C 
BRANCH  20  21
ATOM     21  C   UNL     1       0.241  13.226  19.761  0.00  0.00    +0.000 C 
BRANCH  21  22
ATOM     22  C   UNL     1       0.532  12.016  18.877  0.00  0.00    +0.000 C 
BRANCH  22  23
ATOM     23  S   UNL     1       0.481  10.491  19.869  0.00  0.00    +0.000 S 
BRANCH  23  24
ATOM     24  C   UNL     1       1.438   9.441  18.899  0.00  0.00    +0.000 A 
ATOM     25  N   UNL     1       1.894   9.684  17.698  0.00  0.00    +0.000 NA
ATOM     26  N   UNL     1       2.536   8.551  17.273  0.00  0.00    +0.000 NA
ATOM     27  C   UNL     1       2.440   7.624  18.214  0.00  0.00    +0.000 A 
ATOM     28  N   UNL     1       1.811   8.190  19.303  0.00  0.00    +0.000 N 
ATOM     29  C   UNL     1       1.623   7.652  20.627  0.00  0.00    +0.000 C 
BRANCH  27  30
ATOM     30  C   UNL     1       2.963   6.269  18.087  0.00  0.00    +0.000 A 
ATOM     31  C   UNL     1       2.151   5.142  17.932  0.00  0.00    +0.000 A 
ATOM     32  C   UNL     1       2.725   3.876  17.843  0.00  0.00    +0.000 A 
ATOM     33  C   UNL     1       4.104   3.778  17.873  0.00  0.00    +0.000 A 
ATOM     34  N   UNL     1       4.928   4.841  17.976  0.00  0.00    +0.000 NA
ATOM     35  C   UNL     1       4.339   6.059  18.070  0.00  0.00    +0.000 A 
ENDBRANCH  27  30
ENDBRANCH  23  24
ENDBRANCH  22  23
ENDBRANCH  21  22
ENDBRANCH  20  21
ENDBRANCH   7  20
TORSDOF 8
ENDMDL
MODEL 6
REMARK VINA RESULT:      -7.2      3.133      6.031
REMARK  Name = 
REMARK  10 active torsions:
REMARK  status: ('A' for Active; 'I' for Inactive)
REMARK    1  A    between atoms: C_1  and  O_2
REMARK    2  A    between atoms: O_2  and  C_3
REMARK    3  A    between atoms: C_8  and  N_9
REMARK    4  A    between atoms: N_15  and  C_16
REMARK    5  A    between atoms: C_16  and  C_17
REMARK    6  A    between atoms: C_17  and  C_18
REMARK    7  A    between atoms: C_18  and  S_19
REMARK    8  A    between atoms: S_19  and  C_20
REMARK    9  A    between atoms: C_23  and  C_24
REMARK   10  A    between atoms: N_30  and  C_31
REMARK                            x       y       z     vdW  Elec       q    Type
REMARK                         _______ _______ _______ _____ _____    ______ ____
ROOT
ATOM      1  N   UNL     1       1.984   7.761  19.588  0.00  0.00    +0.000 N 
ATOM      2  C   UNL     1       2.127   8.709  18.491  0.00  0.00    +0.000 C 
ATOM      3  C   UNL     1       0.773   9.379  18.259  0.00  0.00    +0.000 C 
ATOM      4  C   UNL     1       0.201  10.057  19.527  0.00  0.00    +0.000 C 
ATOM      5  C   UNL     1       1.029  11.303  19.921  0.00  0.00    +0.000 C 
ATOM      6  C   UNL     1       0.888  12.431  18.896  0.00  0.00    +0.000 C 
ATOM      7  N   UNL     1      -0.503  12.847  18.664  0.00  0.00    +0.000 NA
ATOM      8  C   UNL     1      -1.317  11.688  18.253  0.00  0.00    +0.000 C 
ATOM      9  C   UNL     1      -1.251  10.505  19.231  0.00  0.00    +0.000 C 
ATOM     10  C   UNL     1       0.203   9.027  20.689  0.00  0.00    +0.000 C 
ATOM     11  C   UNL     1       1.553   8.323  20.869  0.00  0.00    +0.000 C 
ENDROOT
BRANCH   1  17
ATOM     12  C   UNL     1       3.523   6.072  18.593  0.00  0.00    +0.000 A 
ATOM     13  C   UNL     1       3.917   4.724  18.522  0.00  0.00    +0.000 A 
ATOM     14  C   UNL     1       3.347   3.767  19.357  0.00  0.00    +0.000 A 
ATOM     15  C   UNL     1       2.374   4.142  20.268  0.00  0.00    +0.000 A 
ATOM     16  C   UNL     1       1.960   5.475  20.332  0.00  0.00    +0.000 A 
ATOM     17  C   UNL     1       2.508   6.475  19.502  0.00  0.00    +0.000 A 
BRANCH  12  19
ATOM     18  C   UNL     1       4.747   6.611  16.608  0.00  0.00    +0.000 C 
ATOM     19  O   UNL     1       4.084   7.038  17.788  0.00  0.00    +0.000 OA
ENDBRANCH  12  19
ENDBRANCH   1  17
BRANCH   7  20
ATOM     20  C   UNL     1      -1.115  13.521  19.825  0.00  0.00    +0.000 C 
BRANCH  20  21
ATOM     21  C   UNL     1      -0.856  15.031  19.873  0.00  0.00    +0.000 C 
BRANCH  21  22
ATOM     22  C   UNL     1      -1.246  15.648  21.213  0.00  0.00    +0.000 C 
BRANCH  22  23
ATOM     23  S   UNL     1       0.116  16.676  21.848  0.00  0.00    +0.000 S 
BRANCH  23  24
ATOM     24  C   UNL     1       1.470  15.680  21.487  0.00  0.00    +0.000 A 
ATOM     25  N   UNL     1       1.813  14.574  22.094  0.00  0.00    +0.000 NA
ATOM     26  N   UNL     1       2.992  14.155  21.536  0.00  0.00    +0.000 NA
ATOM     27  C   UNL     1       3.364  15.029  20.613  0.00  0.00    +0.000 A 
ATOM     28  N   UNL     1       2.369  15.977  20.501  0.00  0.00    +0.000 N 
ATOM     29  C   UNL     1       2.221  17.030  19.529  0.00  0.00    +0.000 C 
BRANCH  27  30
ATOM     30  C   UNL     1       4.602  14.935  19.847  0.00  0.00    +0.000 A 
ATOM     31  C   UNL     1       4.639  14.679  18.473  0.00  0.00    +0.000 A 
ATOM     32  C   UNL     1       5.864  14.578  17.817  0.00  0.00    +0.000 A 
ATOM     33  C   UNL     1       7.019  14.775  18.550  0.00  0.00    +0.000 A 
ATOM     34  N   UNL     1       7.030  15.067  19.866  0.00  0.00    +0.000 NA
ATOM     35  C   UNL     1       5.823  15.150  20.480  0.00  0.00    +0.000 A 
ENDBRANCH  27  30
ENDBRANCH  23  24
ENDBRANCH  22  23
ENDBRANCH  21  22
ENDBRANCH  20  21
ENDBRANCH   7  20
TORSDOF 8
ENDMDL
MODEL 7
REMARK VINA RESULT:      -7.2      4.197     11.424
REMARK  Name = 
REMARK  10 active torsions:
REMARK  status: ('A' for Active; 'I' for Inactive)
REMARK    1  A    between atoms: C_1  and  O_2
REMARK    2  A    between atoms: O_2  and  C_3
REMARK    3  A    between atoms: C_8  and  N_9
REMARK    4  A    between atoms: N_15  and  C_16
REMARK    5  A    between atoms: C_16  and  C_17
REMARK    6  A    between atoms: C_17  and  C_18
REMARK    7  A    between atoms: C_18  and  S_19
REMARK    8  A    between atoms: S_19  and  C_20
REMARK    9  A    between atoms: C_23  and  C_24
REMARK   10  A    between atoms: N_30  and  C_31
REMARK                            x       y       z     vdW  Elec       q    Type
REMARK                         _______ _______ _______ _____ _____    ______ ____
ROOT
ATOM      1  N   UNL     1      -0.353  13.498  19.721  0.00  0.00    +0.000 N 
ATOM      2  C   UNL     1       1.005  12.970  19.735  0.00  0.00    +0.000 C 
ATOM      3  C   UNL     1       1.104  11.939  20.857  0.00  0.00    +0.000 C 
ATOM      4  C   UNL     1       0.054  10.808  20.745  0.00  0.00    +0.000 C 
ATOM      5  C   UNL     1       0.346   9.887  19.537  0.00  0.00    +0.000 C 
ATOM      6  C   UNL     1       1.630   9.076  19.733  0.00  0.00    +0.000 C 
ATOM      7  N   UNL     1       1.631   8.260  20.957  0.00  0.00    +0.000 NA
ATOM      8  C   UNL     1       1.388   9.112  22.135  0.00  0.00    +0.000 C 
ATOM      9  C   UNL     1       0.109   9.957  22.037  0.00  0.00    +0.000 C 
ATOM     10  C   UNL     1      -1.354  11.446  20.600  0.00  0.00    +0.000 C 
ATOM     11  C   UNL     1      -1.419  12.520  19.507  0.00  0.00    +0.000 C 
ENDROOT
BRANCH   1  17
ATOM     12  C   UNL     1      -1.223  15.657  20.613  0.00  0.00    +0.000 A 
ATOM     13  C   UNL     1      -1.505  17.013  20.369  0.00  0.00    +0.000 A 
ATOM     14  C   UNL     1      -1.146  17.613  19.165  0.00  0.00    +0.000 A 
ATOM     15  C   UNL     1      -0.508  16.866  18.188  0.00  0.00    +0.000 A 
ATOM     16  C   UNL     1      -0.243  15.512  18.413  0.00  0.00    +0.000 A 
ATOM     17  C   UNL     1      -0.593  14.865  19.616  0.00  0.00    +0.000 A 
BRANCH  12  19
ATOM     18  C   UNL     1      -0.785  15.375  22.949  0.00  0.00    +0.000 C 
ATOM     19  O   UNL     1      -1.555  15.047  21.802  0.00  0.00    +0.000 OA
ENDBRANCH  12  19
ENDBRANCH   1  17
BRANCH   7  20
ATOM     20  C   UNL     1       0.665   7.145  20.919  0.00  0.00    +0.000 C 
BRANCH  20  21
ATOM     21  C   UNL     1       1.182   5.902  20.186  0.00  0.00    +0.000 C 
BRANCH  21  22
ATOM     22  C   UNL     1       2.171   5.098  21.025  0.00  0.00    +0.000 C 
BRANCH  22  23
ATOM     23  S   UNL     1       2.343   3.416  20.349  0.00  0.00    +0.000 S 
BRANCH  23  24
ATOM     24  C   UNL     1       3.835   3.557  19.506  0.00  0.00    +0.000 A 
ATOM     25  N   UNL     1       5.035   3.498  20.022  0.00  0.00    +0.000 NA
ATOM     26  N   UNL     1       5.924   3.735  19.007  0.00  0.00    +0.000 NA
ATOM     27  C   UNL     1       5.250   3.961  17.890  0.00  0.00    +0.000 A 
ATOM     28  N   UNL     1       3.910   3.775  18.158  0.00  0.00    +0.000 N 
ATOM     29  C   UNL     1       2.795   3.736  17.246  0.00  0.00    +0.000 C 
BRANCH  27  30
ATOM     30  C   UNL     1       5.868   4.303  16.614  0.00  0.00    +0.000 A 
ATOM     31  C   UNL     1       5.615   3.611  15.426  0.00  0.00    +0.000 A 
ATOM     32  C   UNL     1       6.265   3.982  14.252  0.00  0.00    +0.000 A 
ATOM     33  C   UNL     1       7.125   5.064  14.292  0.00  0.00    +0.000 A 
ATOM     34  N   UNL     1       7.366   5.788  15.404  0.00  0.00    +0.000 NA
ATOM     35  C   UNL     1       6.725   5.397  16.534  0.00  0.00    +0.000 A 
ENDBRANCH  27  30
ENDBRANCH  23  24
ENDBRANCH  22  23
ENDBRANCH  21  22
ENDBRANCH  20  21
ENDBRANCH   7  20
TORSDOF 8
ENDMDL
MODEL 8
REMARK VINA RESULT:      -7.1      3.076      6.335
REMARK  Name = 
REMARK  10 active torsions:
REMARK  status: ('A' for Active; 'I' for Inactive)
REMARK    1  A    between atoms: C_1  and  O_2
REMARK    2  A    between atoms: O_2  and  C_3
REMARK    3  A    between atoms: C_8  and  N_9
REMARK    4  A    between atoms: N_15  and  C_16
REMARK    5  A    between atoms: C_16  and  C_17
REMARK    6  A    between atoms: C_17  and  C_18
REMARK    7  A    between atoms: C_18  and  S_19
REMARK    8  A    between atoms: S_19  and  C_20
REMARK    9  A    between atoms: C_23  and  C_24
REMARK   10  A    between atoms: N_30  and  C_31
REMARK                            x       y       z     vdW  Elec       q    Type
REMARK                         _______ _______ _______ _____ _____    ______ ____
ROOT
ATOM      1  N   UNL     1       2.184   7.937  18.923  0.00  0.00    +0.000 N 
ATOM      2  C   UNL     1       2.099   9.075  18.017  0.00  0.00    +0.000 C 
ATOM      3  C   UNL     1       0.674   9.624  18.074  0.00  0.00    +0.000 C 
ATOM      4  C   UNL     1       0.218   9.999  19.504  0.00  0.00    +0.000 C 
ATOM      5  C   UNL     1       0.981  11.237  20.030  0.00  0.00    +0.000 C 
ATOM      6  C   UNL     1       0.609  12.508  19.262  0.00  0.00    +0.000 C 
ATOM      7  N   UNL     1      -0.832  12.804  19.274  0.00  0.00    +0.000 NA
ATOM      8  C   UNL     1      -1.590  11.655  18.746  0.00  0.00    +0.000 C 
ATOM      9  C   UNL     1      -1.294  10.331  19.466  0.00  0.00    +0.000 C 
ATOM     10  C   UNL     1       0.462   8.785  20.440  0.00  0.00    +0.000 C 
ATOM     11  C   UNL     1       1.880   8.212  20.328  0.00  0.00    +0.000 C 
ENDROOT
BRANCH   1  17
ATOM     12  C   UNL     1       2.583   5.487  19.143  0.00  0.00    +0.000 A 
ATOM     13  C   UNL     1       3.330   4.366  18.737  0.00  0.00    +0.000 A 
ATOM     14  C   UNL     1       4.269   4.465  17.715  0.00  0.00    +0.000 A 
ATOM     15  C   UNL     1       4.481   5.683  17.090  0.00  0.00    +0.000 A 
ATOM     16  C   UNL     1       3.760   6.807  17.502  0.00  0.00    +0.000 A 
ATOM     17  C   UNL     1       2.802   6.753  18.535  0.00  0.00    +0.000 A 
BRANCH  12  19
ATOM     18  C   UNL     1       0.986   4.164  20.337  0.00  0.00    +0.000 C 
ATOM     19  O   UNL     1       1.637   5.410  20.141  0.00  0.00    +0.000 OA
ENDBRANCH  12  19
ENDBRANCH   1  17
BRANCH   7  20
ATOM     20  C   UNL     1      -1.341  13.189  20.604  0.00  0.00    +0.000 C 
BRANCH  20  21
ATOM     21  C   UNL     1      -1.943  14.599  20.653  0.00  0.00    +0.000 C 
BRANCH  21  22
ATOM     22  C   UNL     1      -0.976  15.665  20.145  0.00  0.00    +0.000 C 
BRANCH  22  23
ATOM     23  S   UNL     1       0.038  16.295  21.519  0.00  0.00    +0.000 S 
BRANCH  23  24
ATOM     24  C   UNL     1       1.500  15.425  21.270  0.00  0.00    +0.000 A 
ATOM     25  N   UNL     1       1.919  14.387  21.946  0.00  0.00    +0.000 NA
ATOM     26  N   UNL     1       3.159  14.063  21.464  0.00  0.00    +0.000 NA
ATOM     27  C   UNL     1       3.489  14.927  20.515  0.00  0.00    +0.000 A 
ATOM     28  N   UNL     1       2.413  15.764  20.310  0.00  0.00    +0.000 N 
ATOM     29  C   UNL     1       2.210  16.752  19.281  0.00  0.00    +0.000 C 
BRANCH  27  30
ATOM     30  C   UNL     1       4.767  14.923  19.811  0.00  0.00    +0.000 A 
ATOM     31  C   UNL     1       4.886  14.708  18.435  0.00  0.00    +0.000 A 
ATOM     32  C   UNL     1       6.145  14.693  17.839  0.00  0.00    +0.000 A 
ATOM     33  C   UNL     1       7.250  14.932  18.635  0.00  0.00    +0.000 A 
ATOM     34  N   UNL     1       7.179  15.188  19.957  0.00  0.00    +0.000 NA
ATOM     35  C   UNL     1       5.941  15.187  20.511  0.00  0.00    +0.000 A 
ENDBRANCH  27  30
ENDBRANCH  23  24
ENDBRANCH  22  23
ENDBRANCH  21  22
ENDBRANCH  20  21
ENDBRANCH   7  20
TORSDOF 8
ENDMDL
MODEL 9
REMARK VINA RESULT:      -7.0      3.549      7.143
REMARK  Name = 
REMARK  10 active torsions:
REMARK  status: ('A' for Active; 'I' for Inactive)
REMARK    1  A    between atoms: C_1  and  O_2
REMARK    2  A    between atoms: O_2  and  C_3
REMARK    3  A    between atoms: C_8  and  N_9
REMARK    4  A    between atoms: N_15  and  C_16
REMARK    5  A    between atoms: C_16  and  C_17
REMARK    6  A    between atoms: C_17  and  C_18
REMARK    7  A    between atoms: C_18  and  S_19
REMARK    8  A    between atoms: S_19  and  C_20
REMARK    9  A    between atoms: C_23  and  C_24
REMARK   10  A    between atoms: N_30  and  C_31
REMARK                            x       y       z     vdW  Elec       q    Type
REMARK                         _______ _______ _______ _____ _____    ______ ____
ROOT
ATOM      1  N   UNL     1      -3.094  12.171  19.360  0.00  0.00    +0.000 N 
ATOM      2  C   UNL     1      -4.347  12.653  19.923  0.00  0.00    +0.000 C 
ATOM      3  C   UNL     1      -4.317  12.415  21.431  0.00  0.00    +0.000 C 
ATOM      4  C   UNL     1      -3.095  13.058  22.129  0.00  0.00    +0.000 C 
ATOM      5  C   UNL     1      -3.194  14.602  22.125  0.00  0.00    +0.000 C 
ATOM      6  C   UNL     1      -4.336  15.104  23.013  0.00  0.00    +0.000 C 
ATOM      7  N   UNL     1      -4.246  14.643  24.406  0.00  0.00    +0.000 NA
ATOM      8  C   UNL     1      -4.184  13.170  24.450  0.00  0.00    +0.000 C 
ATOM      9  C   UNL     1      -3.055  12.571  23.598  0.00  0.00    +0.000 C 
ATOM     10  C   UNL     1      -1.805  12.605  21.394  0.00  0.00    +0.000 C 
ATOM     11  C   UNL     1      -1.876  12.799  19.875  0.00  0.00    +0.000 C 
ENDROOT
BRANCH   1  17
ATOM     12  C   UNL     1      -2.098  10.400  17.915  0.00  0.00    +0.000 A 
ATOM     13  C   UNL     1      -2.113   9.733  16.678  0.00  0.00    +0.000 A 
ATOM     14  C   UNL     1      -3.097  10.003  15.731  0.00  0.00    +0.000 A 
ATOM     15  C   UNL     1      -4.073  10.948  16.005  0.00  0.00    +0.000 A 
ATOM     16  C   UNL     1      -4.053  11.632  17.223  0.00  0.00    +0.000 A 
ATOM     17  C   UNL     1      -3.074  11.391  18.208  0.00  0.00    +0.000 A 
BRANCH  12  19
ATOM     18  C   UNL     1       0.213  10.094  18.459  0.00  0.00    +0.000 C 
ATOM     19  O   UNL     1      -1.144  10.137  18.874  0.00  0.00    +0.000 OA
ENDBRANCH  12  19
ENDBRANCH   1  17
BRANCH   7  20
ATOM     20  C   UNL     1      -3.112  15.229  25.147  0.00  0.00    +0.000 C 
BRANCH  20  21
ATOM     21  C   UNL     1      -2.966  16.744  24.961  0.00  0.00    +0.000 C 
BRANCH  21  22
ATOM     22  C   UNL     1      -1.508  17.187  24.901  0.00  0.00    +0.000 C 
BRANCH  22  23
ATOM     23  S   UNL     1      -1.104  17.790  23.232  0.00  0.00    +0.000 S 
BRANCH  23  24
ATOM     24  C   UNL     1      -0.167  16.480  22.631  0.00  0.00    +0.000 A 
ATOM     25  N   UNL     1       0.174  15.397  23.281  0.00  0.00    +0.000 NA
ATOM     26  N   UNL     1       0.981  14.664  22.451  0.00  0.00    +0.000 NA
ATOM     27  C   UNL     1       1.140  15.325  21.314  0.00  0.00    +0.000 A 
ATOM     28  N   UNL     1       0.353  16.455  21.367  0.00  0.00    +0.000 N 
ATOM     29  C   UNL     1       0.049  17.402  20.324  0.00  0.00    +0.000 C 
BRANCH  27  30
ATOM     30  C   UNL     1       1.982  14.870  20.213  0.00  0.00    +0.000 A 
ATOM     31  C   UNL     1       1.564  13.938  19.260  0.00  0.00    +0.000 A 
ATOM     32  C   UNL     1       2.437  13.534  18.252  0.00  0.00    +0.000 A 
ATOM     33  C   UNL     1       3.695  14.105  18.205  0.00  0.00    +0.000 A 
ATOM     34  N   UNL     1       4.125  15.040  19.077  0.00  0.00    +0.000 NA
ATOM     35  C   UNL     1       3.257  15.407  20.052  0.00  0.00    +0.000 A 
ENDBRANCH  27  30
ENDBRANCH  23  24
ENDBRANCH  22  23
ENDBRANCH  21  22
ENDBRANCH  20  21
ENDBRANCH   7  20
TORSDOF 8
ENDMDL
