MODEL 1
REMARK VINA RESULT:      -8.4      0.000      0.000
REMARK  Name = 
REMARK  10 active torsions:
REMARK  status: ('A' for Active; 'I' for Inactive)
REMARK    1  A    between atoms: C_1  and  C_2
REMARK    2  A    between atoms: N_4  and  C_5
REMARK    3  A    between atoms: C_5  and  C_6
REMARK    4  A    between atoms: C_5  and  C_7
REMARK    5  A    between atoms: C_7  and  C_8
REMARK    6  A    between atoms: C_11  and  C_12
REMARK    7  A    between atoms: C_13  and  C_14
REMARK    8  A    between atoms: N_21  and  C_22
REMARK    9  A    between atoms: C_22  and  C_23
REMARK   10  A    between atoms: C_23  and  O_24
REMARK                            x       y       z     vdW  Elec       q    Type
REMARK                         _______ _______ _______ _____ _____    ______ ____
ROOT
ATOM      1  C   UNL     1       7.673   7.967  17.835  0.00  0.00    +0.000 C 
ATOM      2  C   UNL     1       8.239   9.014  18.000  0.00  0.00    +0.000 C 
ENDROOT
BRANCH   2   3
ATOM      3  C   UNL     1       8.888  10.286  18.193  0.00  0.00    +0.000 A 
ATOM      4  C   UNL     1       8.432  11.404  17.499  0.00  0.00    +0.000 A 
ATOM      5  C   UNL     1       9.041  12.666  17.647  0.00  0.00    +0.000 A 
ATOM      6  C   UNL     1      10.135  12.780  18.520  0.00  0.00    +0.000 A 
ATOM      7  C   UNL     1      10.605  11.668  19.235  0.00  0.00    +0.000 A 
ATOM      8  C   UNL     1      11.694  12.113  20.033  0.00  0.00    +0.000 A 
ATOM      9  C   UNL     1      11.876  13.454  19.793  0.00  0.00    +0.000 A 
ATOM     10  N   UNL     1      10.936  13.856  18.873  0.00  0.00    +0.000 N 
ATOM     11  C   UNL     1       9.972  10.411  19.071  0.00  0.00    +0.000 A 
BRANCH  10  12
ATOM     12  C   UNL     1      10.796  15.241  18.437  0.00  0.00    +0.000 C 
BRANCH  12  13
ATOM     13  C   UNL     1      11.573  15.583  17.167  0.00  0.00    +0.000 C 
BRANCH  13  14
ATOM     14  O   UNL     1      10.731  16.085  16.137  0.00  0.00    +0.000 OA
ATOM     15  H   UNL     1      11.145  16.902  15.802  0.00  0.00    +0.000 HD
ENDBRANCH  13  14
ENDBRANCH  12  13
ENDBRANCH  10  12
ENDBRANCH   2   3
BRANCH   1  19
ATOM     16  C   UNL     1       5.375   4.415  17.370  0.00  0.00    +0.000 A 
ATOM     17  C   UNL     1       5.809   4.821  18.641  0.00  0.00    +0.000 A 
ATOM     18  C   UNL     1       6.599   5.967  18.796  0.00  0.00    +0.000 A 
ATOM     19  C   UNL     1       6.979   6.716  17.682  0.00  0.00    +0.000 A 
ATOM     20  C   UNL     1       6.636   6.261  16.406  0.00  0.00    +0.000 A 
ATOM     21  C   UNL     1       5.845   5.115  16.250  0.00  0.00    +0.000 A 
BRANCH  16  22
ATOM     22  C   UNL     1       4.390   3.272  17.214  0.00  0.00    +0.000 C 
BRANCH  22  23
ATOM     23  C   UNL     1       3.851   2.729  18.561  0.00  0.00    +0.000 C 
ATOM     24  C   UNL     1       3.658   1.211  18.499  0.00  0.00    +0.000 C 
BRANCH  23  28
ATOM     25  C   UNL     1       0.907   4.107  20.538  0.00  0.00    +0.000 C 
ATOM     26  C   UNL     1       2.230   3.433  20.296  0.00  0.00    +0.000 C 
ATOM     27  O   UNL     1       2.910   2.987  21.215  0.00  0.00    +0.000 OA
ATOM     28  N   UNL     1       2.603   3.375  18.970  0.00  0.00    +0.000 N 
ATOM     29  H   UNL     1       1.970   3.723  18.262  0.00  0.00    +0.000 HD
ENDBRANCH  23  28
ENDBRANCH  22  23
ENDBRANCH  16  22
ENDBRANCH   1  19
TORSDOF 8
ENDMDL
MODEL 2
REMARK VINA RESULT:      -8.0      0.823      1.057
REMARK  Name = 
REMARK  10 active torsions:
REMARK  status: ('A' for Active; 'I' for Inactive)
REMARK    1  A    between atoms: C_1  and  C_2
REMARK    2  A    between atoms: N_4  and  C_5
REMARK    3  A    between atoms: C_5  and  C_6
REMARK    4  A    between atoms: C_5  and  C_7
REMARK    5  A    between atoms: C_7  and  C_8
REMARK    6  A    between atoms: C_11  and  C_12
REMARK    7  A    between atoms: C_13  and  C_14
REMARK    8  A    between atoms: N_21  and  C_22
REMARK    9  A    between atoms: C_22  and  C_23
REMARK   10  A    between atoms: C_23  and  O_24
REMARK                            x       y       z     vdW  Elec       q    Type
REMARK                         _______ _______ _______ _____ _____    ______ ____
ROOT
ATOM      1  C   UNL     1       7.538   7.996  17.820  0.00  0.00    +0.000 C 
ATOM      2  C   UNL     1       8.131   9.028  17.981  0.00  0.00    +0.000 C 
ENDROOT
BRANCH   2   3
ATOM      3  C   UNL     1       8.820  10.282  18.154  0.00  0.00    +0.000 A 
ATOM      4  C   UNL     1       8.329  11.427  17.531  0.00  0.00    +0.000 A 
ATOM      5  C   UNL     1       8.974  12.674  17.662  0.00  0.00    +0.000 A 
ATOM      6  C   UNL     1      10.140  12.743  18.442  0.00  0.00    +0.000 A 
ATOM      7  C   UNL     1      10.645  11.603  19.085  0.00  0.00    +0.000 A 
ATOM      8  C   UNL     1      11.806  12.005  19.800  0.00  0.00    +0.000 A 
ATOM      9  C   UNL     1      11.994  13.350  19.581  0.00  0.00    +0.000 A 
ATOM     10  N   UNL     1      10.989  13.794  18.755  0.00  0.00    +0.000 N 
ATOM     11  C   UNL     1       9.975  10.363  18.940  0.00  0.00    +0.000 A 
BRANCH  10  12
ATOM     12  C   UNL     1      10.841  15.193  18.371  0.00  0.00    +0.000 C 
BRANCH  12  13
ATOM     13  C   UNL     1      11.655  15.598  17.143  0.00  0.00    +0.000 C 
BRANCH  13  14
ATOM     14  O   UNL     1      10.830  15.914  16.028  0.00  0.00    +0.000 OA
ATOM     15  H   UNL     1      10.006  16.298  16.381  0.00  0.00    +0.000 HD
ENDBRANCH  13  14
ENDBRANCH  12  13
ENDBRANCH  10  12
ENDBRANCH   2   3
BRANCH   1  19
ATOM     16  C   UNL     1       5.111   4.521  17.436  0.00  0.00    +0.000 A 
ATOM     17  C   UNL     1       5.948   4.685  18.550  0.00  0.00    +0.000 A 
ATOM     18  C   UNL     1       6.778   5.807  18.663  0.00  0.00    +0.000 A 
ATOM     19  C   UNL     1       6.796   6.774  17.657  0.00  0.00    +0.000 A 
ATOM     20  C   UNL     1       6.042   6.566  16.499  0.00  0.00    +0.000 A 
ATOM     21  C   UNL     1       5.210   5.444  16.386  0.00  0.00    +0.000 A 
BRANCH  16  22
ATOM     22  C   UNL     1       4.096   3.395  17.387  0.00  0.00    +0.000 C 
BRANCH  22  23
ATOM     23  C   UNL     1       2.643   3.855  17.670  0.00  0.00    +0.000 C 
ATOM     24  C   UNL     1       2.591   5.364  17.927  0.00  0.00    +0.000 C 
BRANCH  23  28
ATOM     25  C   UNL     1       1.604   2.636  21.120  0.00  0.00    +0.000 C 
ATOM     26  C   UNL     1       2.291   3.496  20.095  0.00  0.00    +0.000 C 
ATOM     27  O   UNL     1       3.011   4.438  20.412  0.00  0.00    +0.000 OA
ATOM     28  N   UNL     1       2.032   3.137  18.788  0.00  0.00    +0.000 N 
ATOM     29  H   UNL     1       1.465   2.320  18.603  0.00  0.00    +0.000 HD
ENDBRANCH  23  28
ENDBRANCH  22  23
ENDBRANCH  16  22
ENDBRANCH   1  19
TORSDOF 8
ENDMDL
MODEL 3
REMARK VINA RESULT:      -8.0      0.965      1.099
REMARK  Name = 
REMARK  10 active torsions:
REMARK  status: ('A' for Active; 'I' for Inactive)
REMARK    1  A    between atoms: C_1  and  C_2
REMARK    2  A    between atoms: N_4  and  C_5
REMARK    3  A    between atoms: C_5  and  C_6
REMARK    4  A    between atoms: C_5  and  C_7
REMARK    5  A    between atoms: C_7  and  C_8
REMARK    6  A    between atoms: C_11  and  C_12
REMARK    7  A    between atoms: C_13  and  C_14
REMARK    8  A    between atoms: N_21  and  C_22
REMARK    9  A    between atoms: C_22  and  C_23
REMARK   10  A    between atoms: C_23  and  O_24
REMARK                            x       y       z     vdW  Elec       q    Type
REMARK                         _______ _______ _______ _____ _____    ______ ____
ROOT
ATOM      1  C   UNL     1       7.556   8.155  17.628  0.00  0.00    +0.000 C 
ATOM      2  C   UNL     1       8.133   9.179  17.878  0.00  0.00    +0.000 C 
ENDROOT
BRANCH   2   3
ATOM      3  C   UNL     1       8.795  10.423  18.177  0.00  0.00    +0.000 A 
ATOM      4  C   UNL     1       8.296  11.611  17.650  0.00  0.00    +0.000 A 
ATOM      5  C   UNL     1       8.915  12.851  17.906  0.00  0.00    +0.000 A 
ATOM      6  C   UNL     1      10.064  12.869  18.714  0.00  0.00    +0.000 A 
ATOM      7  C   UNL     1      10.578  11.684  19.261  0.00  0.00    +0.000 A 
ATOM      8  C   UNL     1      11.716  12.039  20.034  0.00  0.00    +0.000 A 
ATOM      9  C   UNL     1      11.884  13.400  19.942  0.00  0.00    +0.000 A 
ATOM     10  N   UNL     1      10.887  13.901  19.138  0.00  0.00    +0.000 N 
ATOM     11  C   UNL     1       9.933  10.451  18.992  0.00  0.00    +0.000 A 
BRANCH  10  12
ATOM     12  C   UNL     1      10.721  15.327  18.878  0.00  0.00    +0.000 C 
BRANCH  12  13
ATOM     13  C   UNL     1       9.662  16.005  19.745  0.00  0.00    +0.000 C 
BRANCH  13  14
ATOM     14  O   UNL     1       8.504  16.365  19.001  0.00  0.00    +0.000 OA
ATOM     15  H   UNL     1       8.760  17.096  18.409  0.00  0.00    +0.000 HD
ENDBRANCH  13  14
ENDBRANCH  12  13
ENDBRANCH  10  12
ENDBRANCH   2   3
BRANCH   1  19
ATOM     16  C   UNL     1       5.339   4.556  17.126  0.00  0.00    +0.000 A 
ATOM     17  C   UNL     1       6.662   4.519  17.591  0.00  0.00    +0.000 A 
ATOM     18  C   UNL     1       7.410   5.695  17.720  0.00  0.00    +0.000 A 
ATOM     19  C   UNL     1       6.851   6.926  17.372  0.00  0.00    +0.000 A 
ATOM     20  C   UNL     1       5.571   6.959  16.814  0.00  0.00    +0.000 A 
ATOM     21  C   UNL     1       4.822   5.782  16.685  0.00  0.00    +0.000 A 
BRANCH  16  22
ATOM     22  C   UNL     1       4.476   3.309  17.138  0.00  0.00    +0.000 C 
BRANCH  22  23
ATOM     23  C   UNL     1       3.960   2.924  18.548  0.00  0.00    +0.000 C 
ATOM     24  C   UNL     1       3.626   1.431  18.616  0.00  0.00    +0.000 C 
BRANCH  23  28
ATOM     25  C   UNL     1       1.134   4.548  20.510  0.00  0.00    +0.000 C 
ATOM     26  C   UNL     1       2.353   3.700  20.264  0.00  0.00    +0.000 C 
ATOM     27  O   UNL     1       2.895   3.064  21.163  0.00  0.00    +0.000 OA
ATOM     28  N   UNL     1       2.800   3.715  18.959  0.00  0.00    +0.000 N 
ATOM     29  H   UNL     1       2.276   4.227  18.262  0.00  0.00    +0.000 HD
ENDBRANCH  23  28
ENDBRANCH  22  23
ENDBRANCH  16  22
ENDBRANCH   1  19
TORSDOF 8
ENDMDL
MODEL 4
REMARK VINA RESULT:      -7.9      1.472      1.848
REMARK  Name = 
REMARK  10 active torsions:
REMARK  status: ('A' for Active; 'I' for Inactive)
REMARK    1  A    between atoms: C_1  and  C_2
REMARK    2  A    between atoms: N_4  and  C_5
REMARK    3  A    between atoms: C_5  and  C_6
REMARK    4  A    between atoms: C_5  and  C_7
REMARK    5  A    between atoms: C_7  and  C_8
REMARK    6  A    between atoms: C_11  and  C_12
REMARK    7  A    between atoms: C_13  and  C_14
REMARK    8  A    between atoms: N_21  and  C_22
REMARK    9  A    between atoms: C_22  and  C_23
REMARK   10  A    between atoms: C_23  and  O_24
REMARK                            x       y       z     vdW  Elec       q    Type
REMARK                         _______ _______ _______ _____ _____    ______ ____
ROOT
ATOM      1  C   UNL     1       7.819   8.109  17.934  0.00  0.00    +0.000 C 
ATOM      2  C   UNL     1       8.430   9.108  18.204  0.00  0.00    +0.000 C 
ENDROOT
BRANCH   2   3
ATOM      3  C   UNL     1       9.185  10.299  18.502  0.00  0.00    +0.000 A 
ATOM      4  C   UNL     1       9.322  10.714  19.824  0.00  0.00    +0.000 A 
ATOM      5  C   UNL     1      10.042  11.877  20.163  0.00  0.00    +0.000 A 
ATOM      6  C   UNL     1      10.626  12.625  19.128  0.00  0.00    +0.000 A 
ATOM      7  C   UNL     1      10.506  12.220  17.790  0.00  0.00    +0.000 A 
ATOM      8  C   UNL     1      11.215  13.166  17.001  0.00  0.00    +0.000 A 
ATOM      9  C   UNL     1      11.737  14.117  17.846  0.00  0.00    +0.000 A 
ATOM     10  N   UNL     1      11.375  13.792  19.132  0.00  0.00    +0.000 N 
ATOM     11  C   UNL     1       9.781  11.043  17.477  0.00  0.00    +0.000 A 
BRANCH  10  12
ATOM     12  C   UNL     1      11.817  14.553  20.295  0.00  0.00    +0.000 C 
BRANCH  12  13
ATOM     13  C   UNL     1      11.139  15.914  20.452  0.00  0.00    +0.000 C 
BRANCH  13  14
ATOM     14  O   UNL     1      11.359  16.481  21.737  0.00  0.00    +0.000 OA
ATOM     15  H   UNL     1      10.716  17.207  21.843  0.00  0.00    +0.000 HD
ENDBRANCH  13  14
ENDBRANCH  12  13
ENDBRANCH  10  12
ENDBRANCH   2   3
BRANCH   1  19
ATOM     16  C   UNL     1       5.442   4.673  17.121  0.00  0.00    +0.000 A 
ATOM     17  C   UNL     1       6.723   4.538  17.678  0.00  0.00    +0.000 A 
ATOM     18  C   UNL     1       7.525   5.661  17.911  0.00  0.00    +0.000 A 
ATOM     19  C   UNL     1       7.066   6.936  17.577  0.00  0.00    +0.000 A 
ATOM     20  C   UNL     1       5.835   7.068  16.929  0.00  0.00    +0.000 A 
ATOM     21  C   UNL     1       5.031   5.944  16.696  0.00  0.00    +0.000 A 
BRANCH  16  22
ATOM     22  C   UNL     1       4.510   3.481  17.017  0.00  0.00    +0.000 C 
BRANCH  22  23
ATOM     23  C   UNL     1       3.965   2.998  18.385  0.00  0.00    +0.000 C 
ATOM     24  C   UNL     1       3.502   1.541  18.302  0.00  0.00    +0.000 C 
BRANCH  23  28
ATOM     25  C   UNL     1       1.324   4.680  20.546  0.00  0.00    +0.000 C 
ATOM     26  C   UNL     1       2.469   3.766  20.203  0.00  0.00    +0.000 C 
ATOM     27  O   UNL     1       2.986   3.030  21.037  0.00  0.00    +0.000 OA
ATOM     28  N   UNL     1       2.879   3.840  18.888  0.00  0.00    +0.000 N 
ATOM     29  H   UNL     1       2.376   4.436  18.245  0.00  0.00    +0.000 HD
ENDBRANCH  23  28
ENDBRANCH  22  23
ENDBRANCH  16  22
ENDBRANCH   1  19
TORSDOF 8
ENDMDL
MODEL 5
REMARK VINA RESULT:      -7.8      1.660      2.159
REMARK  Name = 
REMARK  10 active torsions:
REMARK  status: ('A' for Active; 'I' for Inactive)
REMARK    1  A    between atoms: C_1  and  C_2
REMARK    2  A    between atoms: N_4  and  C_5
REMARK    3  A    between atoms: C_5  and  C_6
REMARK    4  A    between atoms: C_5  and  C_7
REMARK    5  A    between atoms: C_7  and  C_8
REMARK    6  A    between atoms: C_11  and  C_12
REMARK    7  A    between atoms: C_13  and  C_14
REMARK    8  A    between atoms: N_21  and  C_22
REMARK    9  A    between atoms: C_22  and  C_23
REMARK   10  A    between atoms: C_23  and  O_24
REMARK                            x       y       z     vdW  Elec       q    Type
REMARK                         _______ _______ _______ _____ _____    ______ ____
ROOT
ATOM      1  C   UNL     1       7.900   8.055  18.073  0.00  0.00    +0.000 C 
ATOM      2  C   UNL     1       8.509   9.062  18.315  0.00  0.00    +0.000 C 
ENDROOT
BRANCH   2   3
ATOM      3  C   UNL     1       9.224  10.285  18.578  0.00  0.00    +0.000 A 
ATOM      4  C   UNL     1       9.428  10.693  19.894  0.00  0.00    +0.000 A 
ATOM      5  C   UNL     1      10.112  11.887  20.201  0.00  0.00    +0.000 A 
ATOM      6  C   UNL     1      10.591  12.672  19.140  0.00  0.00    +0.000 A 
ATOM      7  C   UNL     1      10.403  12.275  17.808  0.00  0.00    +0.000 A 
ATOM      8  C   UNL     1      11.013  13.261  16.986  0.00  0.00    +0.000 A 
ATOM      9  C   UNL     1      11.543  14.228  17.808  0.00  0.00    +0.000 A 
ATOM     10  N   UNL     1      11.281  13.874  19.110  0.00  0.00    +0.000 N 
ATOM     11  C   UNL     1       9.716  11.068  17.527  0.00  0.00    +0.000 A 
BRANCH  10  12
ATOM     12  C   UNL     1      11.763  14.644  20.251  0.00  0.00    +0.000 C 
BRANCH  12  13
ATOM     13  C   UNL     1      10.695  15.507  20.924  0.00  0.00    +0.000 C 
BRANCH  13  14
ATOM     14  O   UNL     1      11.238  16.349  21.933  0.00  0.00    +0.000 OA
ATOM     15  H   UNL     1      12.021  16.787  21.549  0.00  0.00    +0.000 HD
ENDBRANCH  13  14
ENDBRANCH  12  13
ENDBRANCH  10  12
ENDBRANCH   2   3
BRANCH   1  19
ATOM     16  C   UNL     1       5.402   4.681  17.374  0.00  0.00    +0.000 A 
ATOM     17  C   UNL     1       6.204   4.747  18.523  0.00  0.00    +0.000 A 
ATOM     18  C   UNL     1       7.058   5.835  18.739  0.00  0.00    +0.000 A 
ATOM     19  C   UNL     1       7.134   6.867  17.803  0.00  0.00    +0.000 A 
ATOM     20  C   UNL     1       6.415   6.758  16.610  0.00  0.00    +0.000 A 
ATOM     21  C   UNL     1       5.560   5.669  16.393  0.00  0.00    +0.000 A 
BRANCH  16  22
ATOM     22  C   UNL     1       4.361   3.589  17.215  0.00  0.00    +0.000 C 
BRANCH  22  23
ATOM     23  C   UNL     1       3.045   3.869  17.984  0.00  0.00    +0.000 C 
ATOM     24  C   UNL     1       2.651   5.344  17.870  0.00  0.00    +0.000 C 
BRANCH  23  28
ATOM     25  C   UNL     1       2.264   2.661  21.506  0.00  0.00    +0.000 C 
ATOM     26  C   UNL     1       2.018   2.987  20.058  0.00  0.00    +0.000 C 
ATOM     27  O   UNL     1       0.924   2.814  19.529  0.00  0.00    +0.000 OA
ATOM     28  N   UNL     1       3.121   3.479  19.392  0.00  0.00    +0.000 N 
ATOM     29  H   UNL     1       3.979   3.638  19.905  0.00  0.00    +0.000 HD
ENDBRANCH  23  28
ENDBRANCH  22  23
ENDBRANCH  16  22
ENDBRANCH   1  19
TORSDOF 8
ENDMDL
MODEL 6
REMARK VINA RESULT:      -7.6      1.578      1.649
REMARK  Name = 
REMARK  10 active torsions:
REMARK  status: ('A' for Active; 'I' for Inactive)
REMARK    1  A    between atoms: C_1  and  C_2
REMARK    2  A    between atoms: N_4  and  C_5
REMARK    3  A    between atoms: C_5  and  C_6
REMARK    4  A    between atoms: C_5  and  C_7
REMARK    5  A    between atoms: C_7  and  C_8
REMARK    6  A    between atoms: C_11  and  C_12
REMARK    7  A    between atoms: C_13  and  C_14
REMARK    8  A    between atoms: N_21  and  C_22
REMARK    9  A    between atoms: C_22  and  C_23
REMARK   10  A    between atoms: C_23  and  O_24
REMARK                            x       y       z     vdW  Elec       q    Type
REMARK                         _______ _______ _______ _____ _____    ______ ____
ROOT
ATOM      1  C   UNL     1       8.024   8.431  17.975  0.00  0.00    +0.000 C 
ATOM      2  C   UNL     1       8.602   9.442  18.270  0.00  0.00    +0.000 C 
ENDROOT
BRANCH   2   3
ATOM      3  C   UNL     1       9.280  10.653  18.656  0.00  0.00    +0.000 A 
ATOM      4  C   UNL     1      10.233  11.208  17.805  0.00  0.00    +0.000 A 
ATOM      5  C   UNL     1      10.930  12.386  18.143  0.00  0.00    +0.000 A 
ATOM      6  C   UNL     1      10.644  13.000  19.373  0.00  0.00    +0.000 A 
ATOM      7  C   UNL     1       9.682  12.462  20.241  0.00  0.00    +0.000 A 
ATOM      8  C   UNL     1       9.616  13.316  21.375  0.00  0.00    +0.000 A 
ATOM      9  C   UNL     1      10.523  14.332  21.193  0.00  0.00    +0.000 A 
ATOM     10  N   UNL     1      11.149  14.137  19.985  0.00  0.00    +0.000 N 
ATOM     11  C   UNL     1       8.993  11.279  19.874  0.00  0.00    +0.000 A 
BRANCH  10  12
ATOM     12  C   UNL     1      12.128  15.072  19.441  0.00  0.00    +0.000 C 
BRANCH  12  13
ATOM     13  C   UNL     1      11.773  15.623  18.061  0.00  0.00    +0.000 C 
BRANCH  13  14
ATOM     14  O   UNL     1      12.332  16.910  17.833  0.00  0.00    +0.000 OA
ATOM     15  H   UNL     1      13.262  16.777  17.574  0.00  0.00    +0.000 HD
ENDBRANCH  13  14
ENDBRANCH  12  13
ENDBRANCH  10  12
ENDBRANCH   2   3
BRANCH   1  19
ATOM     16  C   UNL     1       5.840   4.872  17.150  0.00  0.00    +0.000 A 
ATOM     17  C   UNL     1       6.792   4.900  18.180  0.00  0.00    +0.000 A 
ATOM     18  C   UNL     1       7.542   6.056  18.430  0.00  0.00    +0.000 A 
ATOM     19  C   UNL     1       7.363   7.196  17.646  0.00  0.00    +0.000 A 
ATOM     20  C   UNL     1       6.491   7.141  16.556  0.00  0.00    +0.000 A 
ATOM     21  C   UNL     1       5.739   5.985  16.305  0.00  0.00    +0.000 A 
BRANCH  16  22
ATOM     22  C   UNL     1       4.915   3.682  16.979  0.00  0.00    +0.000 C 
BRANCH  22  23
ATOM     23  C   UNL     1       3.691   3.705  17.930  0.00  0.00    +0.000 C 
ATOM     24  C   UNL     1       2.566   2.818  17.390  0.00  0.00    +0.000 C 
BRANCH  23  28
ATOM     25  C   UNL     1       2.371   6.904  19.509  0.00  0.00    +0.000 C 
ATOM     26  C   UNL     1       2.902   5.498  19.445  0.00  0.00    +0.000 C 
ATOM     27  O   UNL     1       3.067   4.818  20.453  0.00  0.00    +0.000 OA
ATOM     28  N   UNL     1       3.190   5.059  18.169  0.00  0.00    +0.000 N 
ATOM     29  H   UNL     1       2.986   5.658  17.381  0.00  0.00    +0.000 HD
ENDBRANCH  23  28
ENDBRANCH  22  23
ENDBRANCH  16  22
ENDBRANCH   1  19
TORSDOF 8
ENDMDL
MODEL 7
REMARK VINA RESULT:      -7.6      6.748      9.900
REMARK  Name = 
REMARK  10 active torsions:
REMARK  status: ('A' for Active; 'I' for Inactive)
REMARK    1  A    between atoms: C_1  and  C_2
REMARK    2  A    between atoms: N_4  and  C_5
REMARK    3  A    between atoms: C_5  and  C_6
REMARK    4  A    between atoms: C_5  and  C_7
REMARK    5  A    between atoms: C_7  and  C_8
REMARK    6  A    between atoms: C_11  and  C_12
REMARK    7  A    between atoms: C_13  and  C_14
REMARK    8  A    between atoms: N_21  and  C_22
REMARK    9  A    between atoms: C_22  and  C_23
REMARK   10  A    between atoms: C_23  and  O_24
REMARK                            x       y       z     vdW  Elec       q    Type
REMARK                         _______ _______ _______ _____ _____    ______ ____
ROOT
ATOM      1  C   UNL     1       1.466   8.358  19.930  0.00  0.00    +0.000 C 
ATOM      2  C   UNL     1       0.748   9.148  20.481  0.00  0.00    +0.000 C 
ENDROOT
BRANCH   2   3
ATOM      3  C   UNL     1      -0.115  10.113  21.113  0.00  0.00    +0.000 A 
ATOM      4  C   UNL     1      -0.414   9.986  22.467  0.00  0.00    +0.000 A 
ATOM      5  C   UNL     1      -1.261  10.900  23.126  0.00  0.00    +0.000 A 
ATOM      6  C   UNL     1      -1.808  11.958  22.383  0.00  0.00    +0.000 A 
ATOM      7  C   UNL     1      -1.513  12.109  21.020  0.00  0.00    +0.000 A 
ATOM      8  C   UNL     1      -2.197  13.270  20.569  0.00  0.00    +0.000 A 
ATOM      9  C   UNL     1      -2.892  13.793  21.634  0.00  0.00    +0.000 A 
ATOM     10  N   UNL     1      -2.661  12.995  22.729  0.00  0.00    +0.000 N 
ATOM     11  C   UNL     1      -0.655  11.178  20.382  0.00  0.00    +0.000 A 
BRANCH  10  12
ATOM     12  C   UNL     1      -3.191  13.297  24.054  0.00  0.00    +0.000 C 
BRANCH  12  13
ATOM     13  C   UNL     1      -4.669  12.955  24.233  0.00  0.00    +0.000 C 
BRANCH  13  14
ATOM     14  O   UNL     1      -4.860  11.723  24.917  0.00  0.00    +0.000 OA
ATOM     15  H   UNL     1      -4.209  11.695  25.643  0.00  0.00    +0.000 HD
ENDBRANCH  13  14
ENDBRANCH  12  13
ENDBRANCH  10  12
ENDBRANCH   2   3
BRANCH   1  19
ATOM     16  C   UNL     1       3.676   5.451  17.742  0.00  0.00    +0.000 A 
ATOM     17  C   UNL     1       3.088   5.121  18.973  0.00  0.00    +0.000 A 
ATOM     18  C   UNL     1       2.394   6.084  19.716  0.00  0.00    +0.000 A 
ATOM     19  C   UNL     1       2.289   7.394  19.248  0.00  0.00    +0.000 A 
ATOM     20  C   UNL     1       2.958   7.753  18.075  0.00  0.00    +0.000 A 
ATOM     21  C   UNL     1       3.652   6.791  17.331  0.00  0.00    +0.000 A 
BRANCH  16  22
ATOM     22  C   UNL     1       4.287   4.379  16.861  0.00  0.00    +0.000 C 
BRANCH  22  23
ATOM     23  C   UNL     1       5.769   4.646  16.495  0.00  0.00    +0.000 C 
ATOM     24  C   UNL     1       6.248   3.668  15.418  0.00  0.00    +0.000 C 
BRANCH  23  28
ATOM     25  C   UNL     1       8.212   5.457  19.296  0.00  0.00    +0.000 C 
ATOM     26  C   UNL     1       7.321   5.703  18.109  0.00  0.00    +0.000 C 
ATOM     27  O   UNL     1       7.201   6.816  17.605  0.00  0.00    +0.000 OA
ATOM     28  N   UNL     1       6.656   4.583  17.657  0.00  0.00    +0.000 N 
ATOM     29  H   UNL     1       6.839   3.689  18.094  0.00  0.00    +0.000 HD
ENDBRANCH  23  28
ENDBRANCH  22  23
ENDBRANCH  16  22
ENDBRANCH   1  19
TORSDOF 8
ENDMDL
MODEL 8
REMARK VINA RESULT:      -7.6      7.005      9.061
REMARK  Name = 
REMARK  10 active torsions:
REMARK  status: ('A' for Active; 'I' for Inactive)
REMARK    1  A    between atoms: C_1  and  C_2
REMARK    2  A    between atoms: N_4  and  C_5
REMARK    3  A    between atoms: C_5  and  C_6
REMARK    4  A    between atoms: C_5  and  C_7
REMARK    5  A    between atoms: C_7  and  C_8
REMARK    6  A    between atoms: C_11  and  C_12
REMARK    7  A    between atoms: C_13  and  C_14
REMARK    8  A    between atoms: N_21  and  C_22
REMARK    9  A    between atoms: C_22  and  C_23
REMARK   10  A    between atoms: C_23  and  O_24
REMARK                            x       y       z     vdW  Elec       q    Type
REMARK                         _______ _______ _______ _____ _____    ______ ____
ROOT
ATOM      1  C   UNL     1       2.630   7.422  18.321  0.00  0.00    +0.000 C 
ATOM      2  C   UNL     1       1.924   8.188  18.920  0.00  0.00    +0.000 C 
ENDROOT
BRANCH   2   3
ATOM      3  C   UNL     1       1.105   9.126  19.645  0.00  0.00    +0.000 A 
ATOM      4  C   UNL     1       0.654  10.280  19.010  0.00  0.00    +0.000 A 
ATOM      5  C   UNL     1      -0.140  11.231  19.682  0.00  0.00    +0.000 A 
ATOM      6  C   UNL     1      -0.474  10.993  21.025  0.00  0.00    +0.000 A 
ATOM      7  C   UNL     1      -0.037   9.832  21.681  0.00  0.00    +0.000 A 
ATOM      8  C   UNL     1      -0.552   9.879  23.004  0.00  0.00    +0.000 A 
ATOM      9  C   UNL     1      -1.270  11.044  23.138  0.00  0.00    +0.000 A 
ATOM     10  N   UNL     1      -1.217  11.720  21.942  0.00  0.00    +0.000 N 
ATOM     11  C   UNL     1       0.757   8.889  20.981  0.00  0.00    +0.000 A 
BRANCH  10  12
ATOM     12  C   UNL     1      -1.931  12.970  21.708  0.00  0.00    +0.000 C 
BRANCH  12  13
ATOM     13  C   UNL     1      -3.301  12.799  21.055  0.00  0.00    +0.000 C 
BRANCH  13  14
ATOM     14  O   UNL     1      -3.249  12.950  19.642  0.00  0.00    +0.000 OA
ATOM     15  H   UNL     1      -2.506  12.406  19.323  0.00  0.00    +0.000 HD
ENDBRANCH  13  14
ENDBRANCH  12  13
ENDBRANCH  10  12
ENDBRANCH   2   3
BRANCH   1  19
ATOM     16  C   UNL     1       5.280   4.748  16.337  0.00  0.00    +0.000 A 
ATOM     17  C   UNL     1       5.468   6.135  16.244  0.00  0.00    +0.000 A 
ATOM     18  C   UNL     1       4.576   7.021  16.861  0.00  0.00    +0.000 A 
ATOM     19  C   UNL     1       3.476   6.534  17.568  0.00  0.00    +0.000 A 
ATOM     20  C   UNL     1       3.227   5.159  17.578  0.00  0.00    +0.000 A 
ATOM     21  C   UNL     1       4.120   4.272  16.961  0.00  0.00    +0.000 A 
BRANCH  16  22
ATOM     22  C   UNL     1       6.328   3.786  15.809  0.00  0.00    +0.000 C 
BRANCH  22  23
ATOM     23  C   UNL     1       6.636   3.969  14.301  0.00  0.00    +0.000 C 
ATOM     24  C   UNL     1       7.369   5.290  14.052  0.00  0.00    +0.000 C 
BRANCH  23  28
ATOM     25  C   UNL     1       4.144   3.325  11.499  0.00  0.00    +0.000 C 
ATOM     26  C   UNL     1       5.456   3.283  12.235  0.00  0.00    +0.000 C 
ATOM     27  O   UNL     1       6.448   2.734  11.765  0.00  0.00    +0.000 OA
ATOM     28  N   UNL     1       5.435   3.900  13.468  0.00  0.00    +0.000 N 
ATOM     29  H   UNL     1       4.593   4.371  13.771  0.00  0.00    +0.000 HD
ENDBRANCH  23  28
ENDBRANCH  22  23
ENDBRANCH  16  22
ENDBRANCH   1  19
TORSDOF 8
ENDMDL
MODEL 9
REMARK VINA RESULT:      -7.5      1.675      2.191
REMARK  Name = 
REMARK  10 active torsions:
REMARK  status: ('A' for Active; 'I' for Inactive)
REMARK    1  A    between atoms: C_1  and  C_2
REMARK    2  A    between atoms: N_4  and  C_5
REMARK    3  A    between atoms: C_5  and  C_6
REMARK    4  A    between atoms: C_5  and  C_7
REMARK    5  A    between atoms: C_7  and  C_8
REMARK    6  A    between atoms: C_11  and  C_12
REMARK    7  A    between atoms: C_13  and  C_14
REMARK    8  A    between atoms: N_21  and  C_22
REMARK    9  A    between atoms: C_22  and  C_23
REMARK   10  A    between atoms: C_23  and  O_24
REMARK                            x       y       z     vdW  Elec       q    Type
REMARK                         _______ _______ _______ _____ _____    ______ ____
ROOT
ATOM      1  C   UNL     1       7.744   8.335  17.795  0.00  0.00    +0.000 C 
ATOM      2  C   UNL     1       8.324   9.352  18.067  0.00  0.00    +0.000 C 
ENDROOT
BRANCH   2   3
ATOM      3  C   UNL     1       8.990  10.589  18.388  0.00  0.00    +0.000 A 
ATOM      4  C   UNL     1      10.031  10.589  19.314  0.00  0.00    +0.000 A 
ATOM      5  C   UNL     1      10.704  11.776  19.667  0.00  0.00    +0.000 A 
ATOM      6  C   UNL     1      10.303  12.977  19.062  0.00  0.00    +0.000 A 
ATOM      7  C   UNL     1       9.262  12.997  18.121  0.00  0.00    +0.000 A 
ATOM      8  C   UNL     1       9.114  14.342  17.688  0.00  0.00    +0.000 A 
ATOM      9  C   UNL     1      10.036  15.108  18.362  0.00  0.00    +0.000 A 
ATOM     10  N   UNL     1      10.750  14.282  19.197  0.00  0.00    +0.000 N 
ATOM     11  C   UNL     1       8.604  11.789  17.780  0.00  0.00    +0.000 A 
BRANCH  10  12
ATOM     12  C   UNL     1      11.862  14.754  20.015  0.00  0.00    +0.000 C 
BRANCH  12  13
ATOM     13  C   UNL     1      11.662  16.150  20.604  0.00  0.00    +0.000 C 
BRANCH  13  14
ATOM     14  O   UNL     1      11.146  16.108  21.929  0.00  0.00    +0.000 OA
ATOM     15  H   UNL     1      11.275  15.198  22.257  0.00  0.00    +0.000 HD
ENDBRANCH  13  14
ENDBRANCH  12  13
ENDBRANCH  10  12
ENDBRANCH   2   3
BRANCH   1  19
ATOM     16  C   UNL     1       5.482   4.780  17.197  0.00  0.00    +0.000 A 
ATOM     17  C   UNL     1       6.756   4.723  17.781  0.00  0.00    +0.000 A 
ATOM     18  C   UNL     1       7.522   5.884  17.944  0.00  0.00    +0.000 A 
ATOM     19  C   UNL     1       7.032   7.117  17.512  0.00  0.00    +0.000 A 
ATOM     20  C   UNL     1       5.809   7.166  16.839  0.00  0.00    +0.000 A 
ATOM     21  C   UNL     1       5.042   6.004  16.676  0.00  0.00    +0.000 A 
BRANCH  16  22
ATOM     22  C   UNL     1       4.586   3.556  17.166  0.00  0.00    +0.000 C 
BRANCH  22  23
ATOM     23  C   UNL     1       4.251   2.996  18.572  0.00  0.00    +0.000 C 
ATOM     24  C   UNL     1       3.341   1.769  18.466  0.00  0.00    +0.000 C 
BRANCH  23  28
ATOM     25  C   UNL     1       1.990   5.650  20.094  0.00  0.00    +0.000 C 
ATOM     26  C   UNL     1       2.466   4.631  19.095  0.00  0.00    +0.000 C 
ATOM     27  O   UNL     1       1.844   4.390  18.065  0.00  0.00    +0.000 OA
ATOM     28  N   UNL     1       3.640   3.998  19.446  0.00  0.00    +0.000 N 
ATOM     29  H   UNL     1       4.122   4.280  20.289  0.00  0.00    +0.000 HD
ENDBRANCH  23  28
ENDBRANCH  22  23
ENDBRANCH  16  22
ENDBRANCH   1  19
TORSDOF 8
ENDMDL
