MODEL 1
REMARK VINA RESULT:      -7.9      0.000      0.000
REMARK  Name = 
REMARK  9 active torsions:
REMARK  status: ('A' for Active; 'I' for Inactive)
REMARK    1  A    between atoms: C_1  and  C_2
REMARK    2  A    between atoms: C_2  and  O_3
REMARK    3  A    between atoms: O_3  and  C_4
REMARK    4  A    between atoms: C_4  and  C_6
REMARK    5  A    between atoms: C_19  and  N_20
REMARK    6  A    between atoms: N_20  and  C_21
REMARK    7  A    between atoms: C_26  and  O_27
REMARK    8  A    between atoms: O_27  and  C_28
REMARK    9  A    between atoms: C_28  and  C_29
REMARK                            x       y       z     vdW  Elec       q    Type
REMARK                         _______ _______ _______ _____ _____    ______ ____
ROOT
ATOM      1  C   UNL     1       3.023   4.483  19.820  0.00  0.00    +0.000 A 
ATOM      2  C   UNL     1       2.365   4.911  20.960  0.00  0.00    +0.000 A 
ATOM      3  N   UNL     1       1.788   6.123  21.096  0.00  0.00    +0.000 NA
ATOM      4  C   UNL     1       1.827   6.986  20.061  0.00  0.00    +0.000 A 
ATOM      5  C   UNL     1       2.399   6.611  18.821  0.00  0.00    +0.000 A 
ATOM      6  C   UNL     1       2.329   7.530  17.749  0.00  0.00    +0.000 A 
ATOM      7  C   UNL     1       1.896   8.837  17.935  0.00  0.00    +0.000 A 
ATOM      8  C   UNL     1       1.416   9.239  19.174  0.00  0.00    +0.000 A 
ATOM      9  C   UNL     1       1.020  10.569  19.379  0.00  0.00    +0.000 A 
ATOM     10  C   UNL     1       0.481  10.974  20.598  0.00  0.00    +0.000 A 
ATOM     11  C   UNL     1       0.327  10.051  21.623  0.00  0.00    +0.000 A 
ATOM     12  C   UNL     1       0.750   8.733  21.441  0.00  0.00    +0.000 A 
ATOM     13  C   UNL     1       1.326   8.297  20.225  0.00  0.00    +0.000 A 
ATOM     14  C   UNL     1       3.045   5.338  18.709  0.00  0.00    +0.000 A 
ENDROOT
BRANCH   1  15
ATOM     15  C   UNL     1       3.633   3.144  19.798  0.00  0.00    +0.000 C 
ATOM     16  O   UNL     1       4.834   2.942  19.701  0.00  0.00    +0.000 OA
BRANCH  15  17
ATOM     17  O   UNL     1       2.655   2.206  19.844  0.00  0.00    +0.000 OA
BRANCH  17  19
ATOM     18  C   UNL     1       0.556   2.381  18.754  0.00  0.00    +0.000 C 
ATOM     19  C   UNL     1       1.992   1.915  18.607  0.00  0.00    +0.000 C 
ENDBRANCH  17  19
ENDBRANCH  15  17
ENDBRANCH   1  15
BRANCH  14  20
ATOM     20  N   UNL     1       3.801   4.984  17.545  0.00  0.00    +0.000 N 
ATOM     21  H   UNL     1       3.646   4.011  17.256  0.00  0.00    +0.000 HD
BRANCH  20  22
ATOM     22  C   UNL     1       5.133   5.370  17.231  0.00  0.00    +0.000 A 
ATOM     23  C   UNL     1       5.878   6.123  18.167  0.00  0.00    +0.000 A 
ATOM     24  C   UNL     1       7.161   6.587  17.892  0.00  0.00    +0.000 A 
ATOM     25  C   UNL     1       7.751   6.270  16.680  0.00  0.00    +0.000 A 
ATOM     26  C   UNL     1       7.056   5.496  15.753  0.00  0.00    +0.000 A 
ATOM     27  C   UNL     1       5.745   5.050  16.003  0.00  0.00    +0.000 A 
BRANCH  27  28
ATOM     28  O   UNL     1       5.246   4.282  14.981  0.00  0.00    +0.000 OA
BRANCH  28  29
ATOM     29  C   UNL     1       6.116   3.915  13.912  0.00  0.00    +0.000 C 
ATOM     30  C   UNL     1       5.254   3.568  12.706  0.00  0.00    +0.000 C 
ENDBRANCH  28  29
ENDBRANCH  27  28
ENDBRANCH  20  22
ENDBRANCH  14  20
TORSDOF 7
ENDMDL
MODEL 2
REMARK VINA RESULT:      -7.8      0.943      1.211
REMARK  Name = 
REMARK  9 active torsions:
REMARK  status: ('A' for Active; 'I' for Inactive)
REMARK    1  A    between atoms: C_1  and  C_2
REMARK    2  A    between atoms: C_2  and  O_3
REMARK    3  A    between atoms: O_3  and  C_4
REMARK    4  A    between atoms: C_4  and  C_6
REMARK    5  A    between atoms: C_19  and  N_20
REMARK    6  A    between atoms: N_20  and  C_21
REMARK    7  A    between atoms: C_26  and  O_27
REMARK    8  A    between atoms: O_27  and  C_28
REMARK    9  A    between atoms: C_28  and  C_29
REMARK                            x       y       z     vdW  Elec       q    Type
REMARK                         _______ _______ _______ _____ _____    ______ ____
ROOT
ATOM      1  C   UNL     1       2.917   4.440  20.046  0.00  0.00    +0.000 A 
ATOM      2  C   UNL     1       1.968   4.775  20.997  0.00  0.00    +0.000 A 
ATOM      3  N   UNL     1       1.356   5.975  21.072  0.00  0.00    +0.000 NA
ATOM      4  C   UNL     1       1.659   6.921  20.160  0.00  0.00    +0.000 A 
ATOM      5  C   UNL     1       2.551   6.648  19.095  0.00  0.00    +0.000 A 
ATOM      6  C   UNL     1       2.756   7.655  18.124  0.00  0.00    +0.000 A 
ATOM      7  C   UNL     1       2.268   8.943  18.293  0.00  0.00    +0.000 A 
ATOM      8  C   UNL     1       1.464   9.244  19.385  0.00  0.00    +0.000 A 
ATOM      9  C   UNL     1       1.006  10.554  19.584  0.00  0.00    +0.000 A 
ATOM     10  C   UNL     1       0.151  10.859  20.641  0.00  0.00    +0.000 A 
ATOM     11  C   UNL     1      -0.258   9.853  21.507  0.00  0.00    +0.000 A 
ATOM     12  C   UNL     1       0.220   8.553  21.338  0.00  0.00    +0.000 A 
ATOM     13  C   UNL     1       1.110   8.217  20.291  0.00  0.00    +0.000 A 
ATOM     14  C   UNL     1       3.224   5.385  19.057  0.00  0.00    +0.000 A 
ENDROOT
BRANCH   1  15
ATOM     15  C   UNL     1       3.533   3.104  20.079  0.00  0.00    +0.000 C 
ATOM     16  O   UNL     1       4.736   2.907  20.141  0.00  0.00    +0.000 OA
BRANCH  15  17
ATOM     17  O   UNL     1       2.562   2.162  19.974  0.00  0.00    +0.000 OA
BRANCH  17  19
ATOM     18  C   UNL     1       2.705   1.954  17.617  0.00  0.00    +0.000 C 
ATOM     19  C   UNL     1       1.766   2.195  18.784  0.00  0.00    +0.000 C 
ENDBRANCH  17  19
ENDBRANCH  15  17
ENDBRANCH   1  15
BRANCH  14  20
ATOM     20  N   UNL     1       4.271   5.125  18.115  0.00  0.00    +0.000 N 
ATOM     21  H   UNL     1       4.287   4.147  17.804  0.00  0.00    +0.000 HD
BRANCH  20  22
ATOM     22  C   UNL     1       5.596   5.642  18.135  0.00  0.00    +0.000 A 
ATOM     23  C   UNL     1       6.393   5.470  19.289  0.00  0.00    +0.000 A 
ATOM     24  C   UNL     1       7.672   6.010  19.394  0.00  0.00    +0.000 A 
ATOM     25  C   UNL     1       8.204   6.705  18.321  0.00  0.00    +0.000 A 
ATOM     26  C   UNL     1       7.456   6.858  17.155  0.00  0.00    +0.000 A 
ATOM     27  C   UNL     1       6.149   6.348  17.048  0.00  0.00    +0.000 A 
BRANCH  27  28
ATOM     28  O   UNL     1       5.594   6.579  15.815  0.00  0.00    +0.000 OA
BRANCH  28  29
ATOM     29  C   UNL     1       5.316   5.466  14.969  0.00  0.00    +0.000 C 
ATOM     30  C   UNL     1       6.646   4.905  14.482  0.00  0.00    +0.000 C 
ENDBRANCH  28  29
ENDBRANCH  27  28
ENDBRANCH  20  22
ENDBRANCH  14  20
TORSDOF 7
ENDMDL
MODEL 3
REMARK VINA RESULT:      -7.6      1.080      1.276
REMARK  Name = 
REMARK  9 active torsions:
REMARK  status: ('A' for Active; 'I' for Inactive)
REMARK    1  A    between atoms: C_1  and  C_2
REMARK    2  A    between atoms: C_2  and  O_3
REMARK    3  A    between atoms: O_3  and  C_4
REMARK    4  A    between atoms: C_4  and  C_6
REMARK    5  A    between atoms: C_19  and  N_20
REMARK    6  A    between atoms: N_20  and  C_21
REMARK    7  A    between atoms: C_26  and  O_27
REMARK    8  A    between atoms: O_27  and  C_28
REMARK    9  A    between atoms: C_28  and  C_29
REMARK                            x       y       z     vdW  Elec       q    Type
REMARK                         _______ _______ _______ _____ _____    ______ ____
ROOT
ATOM      1  C   UNL     1       2.270   5.228  19.941  0.00  0.00    +0.000 A 
ATOM      2  C   UNL     1       1.513   5.820  20.937  0.00  0.00    +0.000 A 
ATOM      3  N   UNL     1       1.140   7.117  20.940  0.00  0.00    +0.000 NA
ATOM      4  C   UNL     1       1.501   7.904  19.906  0.00  0.00    +0.000 A 
ATOM      5  C   UNL     1       2.201   7.372  18.796  0.00  0.00    +0.000 A 
ATOM      6  C   UNL     1       2.471   8.231  17.706  0.00  0.00    +0.000 A 
ATOM      7  C   UNL     1       2.246   9.599  17.780  0.00  0.00    +0.000 A 
ATOM      8  C   UNL     1       1.640  10.142  18.906  0.00  0.00    +0.000 A 
ATOM      9  C   UNL     1       1.451  11.529  19.005  0.00  0.00    +0.000 A 
ATOM     10  C   UNL     1       0.792  12.083  20.100  0.00  0.00    +0.000 A 
ATOM     11  C   UNL     1       0.311  11.254  21.105  0.00  0.00    +0.000 A 
ATOM     12  C   UNL     1       0.525   9.877  21.033  0.00  0.00    +0.000 A 
ATOM     13  C   UNL     1       1.214   9.286  19.948  0.00  0.00    +0.000 A 
ATOM     14  C   UNL     1       2.626   6.005  18.830  0.00  0.00    +0.000 A 
ENDROOT
BRANCH   1  15
ATOM     15  C   UNL     1       2.635   3.807  20.059  0.00  0.00    +0.000 C 
ATOM     16  O   UNL     1       3.355   3.357  20.937  0.00  0.00    +0.000 OA
BRANCH  15  17
ATOM     17  O   UNL     1       2.095   3.119  19.022  0.00  0.00    +0.000 OA
BRANCH  17  19
ATOM     18  C   UNL     1       3.669   1.839  17.794  0.00  0.00    +0.000 C 
ATOM     19  C   UNL     1       2.565   1.779  18.832  0.00  0.00    +0.000 C 
ENDBRANCH  17  19
ENDBRANCH  15  17
ENDBRANCH   1  15
BRANCH  14  20
ATOM     20  N   UNL     1       3.495   5.468  17.826  0.00  0.00    +0.000 N 
ATOM     21  H   UNL     1       3.085   4.661  17.342  0.00  0.00    +0.000 HD
BRANCH  20  22
ATOM     22  C   UNL     1       4.907   5.315  17.899  0.00  0.00    +0.000 A 
ATOM     23  C   UNL     1       5.571   5.565  19.121  0.00  0.00    +0.000 A 
ATOM     24  C   UNL     1       6.957   5.497  19.239  0.00  0.00    +0.000 A 
ATOM     25  C   UNL     1       7.714   5.134  18.137  0.00  0.00    +0.000 A 
ATOM     26  C   UNL     1       7.083   4.844  16.928  0.00  0.00    +0.000 A 
ATOM     27  C   UNL     1       5.687   4.943  16.786  0.00  0.00    +0.000 A 
BRANCH  27  28
ATOM     28  O   UNL     1       5.260   4.591  15.530  0.00  0.00    +0.000 OA
BRANCH  28  29
ATOM     29  C   UNL     1       6.188   4.649  14.449  0.00  0.00    +0.000 C 
ATOM     30  C   UNL     1       5.724   3.669  13.381  0.00  0.00    +0.000 C 
ENDBRANCH  28  29
ENDBRANCH  27  28
ENDBRANCH  20  22
ENDBRANCH  14  20
TORSDOF 7
ENDMDL
MODEL 4
REMARK VINA RESULT:      -7.5      1.971      6.792
REMARK  Name = 
REMARK  9 active torsions:
REMARK  status: ('A' for Active; 'I' for Inactive)
REMARK    1  A    between atoms: C_1  and  C_2
REMARK    2  A    between atoms: C_2  and  O_3
REMARK    3  A    between atoms: O_3  and  C_4
REMARK    4  A    between atoms: C_4  and  C_6
REMARK    5  A    between atoms: C_19  and  N_20
REMARK    6  A    between atoms: N_20  and  C_21
REMARK    7  A    between atoms: C_26  and  O_27
REMARK    8  A    between atoms: O_27  and  C_28
REMARK    9  A    between atoms: C_28  and  C_29
REMARK                            x       y       z     vdW  Elec       q    Type
REMARK                         _______ _______ _______ _____ _____    ______ ____
ROOT
ATOM      1  C   UNL     1       2.238   4.333  18.960  0.00  0.00    +0.000 A 
ATOM      2  C   UNL     1       2.478   3.317  18.052  0.00  0.00    +0.000 A 
ATOM      3  N   UNL     1       3.450   3.347  17.116  0.00  0.00    +0.000 NA
ATOM      4  C   UNL     1       4.266   4.419  17.054  0.00  0.00    +0.000 A 
ATOM      5  C   UNL     1       4.158   5.471  17.996  0.00  0.00    +0.000 A 
ATOM      6  C   UNL     1       5.101   6.523  17.929  0.00  0.00    +0.000 A 
ATOM      7  C   UNL     1       5.987   6.644  16.867  0.00  0.00    +0.000 A 
ATOM      8  C   UNL     1       6.036   5.659  15.888  0.00  0.00    +0.000 A 
ATOM      9  C   UNL     1       6.897   5.800  14.790  0.00  0.00    +0.000 A 
ATOM     10  C   UNL     1       7.001   4.793  13.832  0.00  0.00    +0.000 A 
ATOM     11  C   UNL     1       6.249   3.634  13.966  0.00  0.00    +0.000 A 
ATOM     12  C   UNL     1       5.364   3.500  15.037  0.00  0.00    +0.000 A 
ATOM     13  C   UNL     1       5.215   4.514  16.012  0.00  0.00    +0.000 A 
ATOM     14  C   UNL     1       3.094   5.443  18.953  0.00  0.00    +0.000 A 
ENDROOT
BRANCH   1  15
ATOM     15  C   UNL     1       1.132   4.196  19.921  0.00  0.00    +0.000 C 
ATOM     16  O   UNL     1       0.501   5.137  20.376  0.00  0.00    +0.000 OA
BRANCH  15  17
ATOM     17  O   UNL     1       0.981   2.887  20.246  0.00  0.00    +0.000 OA
BRANCH  17  19
ATOM     18  C   UNL     1       2.835   2.448  21.659  0.00  0.00    +0.000 C 
ATOM     19  C   UNL     1       1.321   2.520  21.589  0.00  0.00    +0.000 C 
ENDBRANCH  17  19
ENDBRANCH  15  17
ENDBRANCH   1  15
BRANCH  14  20
ATOM     20  N   UNL     1       2.824   6.565  19.802  0.00  0.00    +0.000 N 
ATOM     21  H   UNL     1       2.581   6.284  20.760  0.00  0.00    +0.000 HD
BRANCH  20  22
ATOM     22  C   UNL     1       2.126   7.756  19.462  0.00  0.00    +0.000 A 
ATOM     23  C   UNL     1       2.123   8.201  18.121  0.00  0.00    +0.000 A 
ATOM     24  C   UNL     1       1.515   9.393  17.737  0.00  0.00    +0.000 A 
ATOM     25  C   UNL     1       0.854  10.153  18.687  0.00  0.00    +0.000 A 
ATOM     26  C   UNL     1       0.807   9.720  20.011  0.00  0.00    +0.000 A 
ATOM     27  C   UNL     1       1.447   8.536  20.419  0.00  0.00    +0.000 A 
BRANCH  27  28
ATOM     28  O   UNL     1       1.261   8.270  21.753  0.00  0.00    +0.000 OA
BRANCH  28  29
ATOM     29  C   UNL     1       1.186   9.363  22.665  0.00  0.00    +0.000 C 
ATOM     30  C   UNL     1      -0.237   9.423  23.206  0.00  0.00    +0.000 C 
ENDBRANCH  28  29
ENDBRANCH  27  28
ENDBRANCH  20  22
ENDBRANCH  14  20
TORSDOF 7
ENDMDL
MODEL 5
REMARK VINA RESULT:      -7.2      1.985      4.701
REMARK  Name = 
REMARK  9 active torsions:
REMARK  status: ('A' for Active; 'I' for Inactive)
REMARK    1  A    between atoms: C_1  and  C_2
REMARK    2  A    between atoms: C_2  and  O_3
REMARK    3  A    between atoms: O_3  and  C_4
REMARK    4  A    between atoms: C_4  and  C_6
REMARK    5  A    between atoms: C_19  and  N_20
REMARK    6  A    between atoms: N_20  and  C_21
REMARK    7  A    between atoms: C_26  and  O_27
REMARK    8  A    between atoms: O_27  and  C_28
REMARK    9  A    between atoms: C_28  and  C_29
REMARK                            x       y       z     vdW  Elec       q    Type
REMARK                         _______ _______ _______ _____ _____    ______ ____
ROOT
ATOM      1  C   UNL     1       3.662   7.148  17.935  0.00  0.00    +0.000 A 
ATOM      2  C   UNL     1       3.255   8.264  17.225  0.00  0.00    +0.000 A 
ATOM      3  N   UNL     1       2.322   9.140  17.652  0.00  0.00    +0.000 NA
ATOM      4  C   UNL     1       1.746   8.946  18.856  0.00  0.00    +0.000 A 
ATOM      5  C   UNL     1       2.156   7.883  19.697  0.00  0.00    +0.000 A 
ATOM      6  C   UNL     1       1.574   7.789  20.982  0.00  0.00    +0.000 A 
ATOM      7  C   UNL     1       0.494   8.579  21.355  0.00  0.00    +0.000 A 
ATOM      8  C   UNL     1       0.027   9.566  20.497  0.00  0.00    +0.000 A 
ATOM      9  C   UNL     1      -1.092  10.335  20.850  0.00  0.00    +0.000 A 
ATOM     10  C   UNL     1      -1.536  11.368  20.027  0.00  0.00    +0.000 A 
ATOM     11  C   UNL     1      -0.862  11.645  18.845  0.00  0.00    +0.000 A 
ATOM     12  C   UNL     1       0.231  10.863  18.469  0.00  0.00    +0.000 A 
ATOM     13  C   UNL     1       0.690   9.790  19.268  0.00  0.00    +0.000 A 
ATOM     14  C   UNL     1       3.115   6.939  19.209  0.00  0.00    +0.000 A 
ENDROOT
BRANCH   1  15
ATOM     15  C   UNL     1       4.674   6.251  17.354  0.00  0.00    +0.000 C 
ATOM     16  O   UNL     1       4.633   5.825  16.211  0.00  0.00    +0.000 OA
BRANCH  15  17
ATOM     17  O   UNL     1       5.597   5.947  18.301  0.00  0.00    +0.000 OA
BRANCH  17  19
ATOM     18  C   UNL     1       7.804   5.792  19.154  0.00  0.00    +0.000 C 
ATOM     19  C   UNL     1       6.971   6.108  17.926  0.00  0.00    +0.000 C 
ENDBRANCH  17  19
ENDBRANCH  15  17
ENDBRANCH   1  15
BRANCH  14  20
ATOM     20  N   UNL     1       3.425   5.746  19.938  0.00  0.00    +0.000 N 
ATOM     21  H   UNL     1       4.380   5.414  19.760  0.00  0.00    +0.000 HD
BRANCH  20  22
ATOM     22  C   UNL     1       2.570   4.636  20.179  0.00  0.00    +0.000 A 
ATOM     23  C   UNL     1       2.314   4.231  21.508  0.00  0.00    +0.000 A 
ATOM     24  C   UNL     1       1.540   3.113  21.807  0.00  0.00    +0.000 A 
ATOM     25  C   UNL     1       0.964   2.391  20.775  0.00  0.00    +0.000 A 
ATOM     26  C   UNL     1       1.167   2.790  19.454  0.00  0.00    +0.000 A 
ATOM     27  C   UNL     1       1.976   3.896  19.137  0.00  0.00    +0.000 A 
BRANCH  27  28
ATOM     28  O   UNL     1       2.028   4.140  17.787  0.00  0.00    +0.000 OA
BRANCH  28  29
ATOM     29  C   UNL     1       2.611   3.157  16.935  0.00  0.00    +0.000 C 
ATOM     30  C   UNL     1       3.933   2.725  17.555  0.00  0.00    +0.000 C 
ENDBRANCH  28  29
ENDBRANCH  27  28
ENDBRANCH  20  22
ENDBRANCH  14  20
TORSDOF 7
ENDMDL
MODEL 6
REMARK VINA RESULT:      -7.1      1.327      1.565
REMARK  Name = 
REMARK  9 active torsions:
REMARK  status: ('A' for Active; 'I' for Inactive)
REMARK    1  A    between atoms: C_1  and  C_2
REMARK    2  A    between atoms: C_2  and  O_3
REMARK    3  A    between atoms: O_3  and  C_4
REMARK    4  A    between atoms: C_4  and  C_6
REMARK    5  A    between atoms: C_19  and  N_20
REMARK    6  A    between atoms: N_20  and  C_21
REMARK    7  A    between atoms: C_26  and  O_27
REMARK    8  A    between atoms: O_27  and  C_28
REMARK    9  A    between atoms: C_28  and  C_29
REMARK                            x       y       z     vdW  Elec       q    Type
REMARK                         _______ _______ _______ _____ _____    ______ ____
ROOT
ATOM      1  C   UNL     1       2.360   5.460  19.757  0.00  0.00    +0.000 A 
ATOM      2  C   UNL     1       1.528   5.948  20.750  0.00  0.00    +0.000 A 
ATOM      3  N   UNL     1       1.078   7.219  20.809  0.00  0.00    +0.000 NA
ATOM      4  C   UNL     1       1.432   8.084  19.838  0.00  0.00    +0.000 A 
ATOM      5  C   UNL     1       2.207   7.660  18.731  0.00  0.00    +0.000 A 
ATOM      6  C   UNL     1       2.470   8.595  17.705  0.00  0.00    +0.000 A 
ATOM      7  C   UNL     1       2.159   9.941  17.845  0.00  0.00    +0.000 A 
ATOM      8  C   UNL     1       1.477  10.382  18.972  0.00  0.00    +0.000 A 
ATOM      9  C   UNL     1       1.201  11.747  19.140  0.00  0.00    +0.000 A 
ATOM     10  C   UNL     1       0.465  12.197  20.234  0.00  0.00    +0.000 A 
ATOM     11  C   UNL     1      -0.006  11.285  21.169  0.00  0.00    +0.000 A 
ATOM     12  C   UNL     1       0.294   9.929  21.029  0.00  0.00    +0.000 A 
ATOM     13  C   UNL     1       1.060   9.443  19.945  0.00  0.00    +0.000 A 
ATOM     14  C   UNL     1       2.713   6.321  18.708  0.00  0.00    +0.000 A 
ENDROOT
BRANCH   1  15
ATOM     15  C   UNL     1       2.804   4.058  19.812  0.00  0.00    +0.000 C 
ATOM     16  O   UNL     1       2.844   3.316  18.844  0.00  0.00    +0.000 OA
BRANCH  15  17
ATOM     17  O   UNL     1       3.097   3.732  21.096  0.00  0.00    +0.000 OA
BRANCH  17  19
ATOM     18  C   UNL     1       1.269   2.430  21.858  0.00  0.00    +0.000 C 
ATOM     19  C   UNL     1       2.745   2.408  21.514  0.00  0.00    +0.000 C 
ENDBRANCH  17  19
ENDBRANCH  15  17
ENDBRANCH   1  15
BRANCH  14  20
ATOM     20  N   UNL     1       3.653   5.895  17.715  0.00  0.00    +0.000 N 
ATOM     21  H   UNL     1       3.319   5.084  17.179  0.00  0.00    +0.000 HD
BRANCH  20  22
ATOM     22  C   UNL     1       5.068   5.837  17.835  0.00  0.00    +0.000 A 
ATOM     23  C   UNL     1       5.652   5.679  19.112  0.00  0.00    +0.000 A 
ATOM     24  C   UNL     1       7.032   5.682  19.302  0.00  0.00    +0.000 A 
ATOM     25  C   UNL     1       7.867   5.804  18.205  0.00  0.00    +0.000 A 
ATOM     26  C   UNL     1       7.320   5.922  16.928  0.00  0.00    +0.000 A 
ATOM     27  C   UNL     1       5.928   5.956  16.725  0.00  0.00    +0.000 A 
BRANCH  27  28
ATOM     28  O   UNL     1       5.592   6.051  15.398  0.00  0.00    +0.000 OA
BRANCH  28  29
ATOM     29  C   UNL     1       5.277   4.857  14.684  0.00  0.00    +0.000 C 
ATOM     30  C   UNL     1       6.538   4.394  13.967  0.00  0.00    +0.000 C 
ENDBRANCH  28  29
ENDBRANCH  27  28
ENDBRANCH  20  22
ENDBRANCH  14  20
TORSDOF 7
ENDMDL
MODEL 7
REMARK VINA RESULT:      -7.1      4.600      9.073
REMARK  Name = 
REMARK  9 active torsions:
REMARK  status: ('A' for Active; 'I' for Inactive)
REMARK    1  A    between atoms: C_1  and  C_2
REMARK    2  A    between atoms: C_2  and  O_3
REMARK    3  A    between atoms: O_3  and  C_4
REMARK    4  A    between atoms: C_4  and  C_6
REMARK    5  A    between atoms: C_19  and  N_20
REMARK    6  A    between atoms: N_20  and  C_21
REMARK    7  A    between atoms: C_26  and  O_27
REMARK    8  A    between atoms: O_27  and  C_28
REMARK    9  A    between atoms: C_28  and  C_29
REMARK                            x       y       z     vdW  Elec       q    Type
REMARK                         _______ _______ _______ _____ _____    ______ ____
ROOT
ATOM      1  C   UNL     1       0.117  10.199  21.634  0.00  0.00    +0.000 A 
ATOM      2  C   UNL     1       0.714   9.153  22.316  0.00  0.00    +0.000 A 
ATOM      3  N   UNL     1       1.435   8.175  21.728  0.00  0.00    +0.000 NA
ATOM      4  C   UNL     1       1.615   8.207  20.393  0.00  0.00    +0.000 A 
ATOM      5  C   UNL     1       1.119   9.284  19.617  0.00  0.00    +0.000 A 
ATOM      6  C   UNL     1       1.418   9.301  18.235  0.00  0.00    +0.000 A 
ATOM      7  C   UNL     1       2.005   8.215  17.601  0.00  0.00    +0.000 A 
ATOM      8  C   UNL     1       2.414   7.114  18.343  0.00  0.00    +0.000 A 
ATOM      9  C   UNL     1       2.965   5.996  17.702  0.00  0.00    +0.000 A 
ATOM     10  C   UNL     1       3.434   4.910  18.438  0.00  0.00    +0.000 A 
ATOM     11  C   UNL     1       3.360   4.934  19.824  0.00  0.00    +0.000 A 
ATOM     12  C   UNL     1       2.781   6.027  20.470  0.00  0.00    +0.000 A 
ATOM     13  C   UNL     1       2.271   7.134  19.751  0.00  0.00    +0.000 A 
ATOM     14  C   UNL     1       0.320  10.288  20.250  0.00  0.00    +0.000 A 
ENDROOT
BRANCH   1  15
ATOM     15  C   UNL     1      -0.665  11.196  22.383  0.00  0.00    +0.000 C 
ATOM     16  O   UNL     1      -1.632  10.924  23.078  0.00  0.00    +0.000 OA
BRANCH  15  17
ATOM     17  O   UNL     1      -0.174  12.434  22.126  0.00  0.00    +0.000 OA
BRANCH  17  19
ATOM     18  C   UNL     1      -0.012  14.775  22.466  0.00  0.00    +0.000 C 
ATOM     19  C   UNL     1      -0.773  13.519  22.845  0.00  0.00    +0.000 C 
ENDBRANCH  17  19
ENDBRANCH  15  17
ENDBRANCH   1  15
BRANCH  14  20
ATOM     20  N   UNL     1      -0.361  11.291  19.487  0.00  0.00    +0.000 N 
ATOM     21  H   UNL     1      -0.273  12.227  19.900  0.00  0.00    +0.000 HD
BRANCH  20  22
ATOM     22  C   UNL     1      -1.619  11.173  18.835  0.00  0.00    +0.000 A 
ATOM     23  C   UNL     1      -1.775  10.239  17.786  0.00  0.00    +0.000 A 
ATOM     24  C   UNL     1      -2.961  10.123  17.066  0.00  0.00    +0.000 A 
ATOM     25  C   UNL     1      -4.042  10.917  17.409  0.00  0.00    +0.000 A 
ATOM     26  C   UNL     1      -3.931  11.820  18.465  0.00  0.00    +0.000 A 
ATOM     27  C   UNL     1      -2.728  11.973  19.178  0.00  0.00    +0.000 A 
BRANCH  27  28
ATOM     28  O   UNL     1      -2.831  12.890  20.193  0.00  0.00    +0.000 OA
BRANCH  28  29
ATOM     29  C   UNL     1      -4.012  12.899  20.992  0.00  0.00    +0.000 C 
ATOM     30  C   UNL     1      -4.326  14.347  21.346  0.00  0.00    +0.000 C 
ENDBRANCH  28  29
ENDBRANCH  27  28
ENDBRANCH  20  22
ENDBRANCH  14  20
TORSDOF 7
ENDMDL
MODEL 8
REMARK VINA RESULT:      -7.1      1.041      1.221
REMARK  Name = 
REMARK  9 active torsions:
REMARK  status: ('A' for Active; 'I' for Inactive)
REMARK    1  A    between atoms: C_1  and  C_2
REMARK    2  A    between atoms: C_2  and  O_3
REMARK    3  A    between atoms: O_3  and  C_4
REMARK    4  A    between atoms: C_4  and  C_6
REMARK    5  A    between atoms: C_19  and  N_20
REMARK    6  A    between atoms: N_20  and  C_21
REMARK    7  A    between atoms: C_26  and  O_27
REMARK    8  A    between atoms: O_27  and  C_28
REMARK    9  A    between atoms: C_28  and  C_29
REMARK                            x       y       z     vdW  Elec       q    Type
REMARK                         _______ _______ _______ _____ _____    ______ ____
ROOT
ATOM      1  C   UNL     1       2.725   5.397  19.429  0.00  0.00    +0.000 A 
ATOM      2  C   UNL     1       1.957   5.611  20.560  0.00  0.00    +0.000 A 
ATOM      3  N   UNL     1       1.359   6.781  20.864  0.00  0.00    +0.000 NA
ATOM      4  C   UNL     1       1.488   7.821  20.015  0.00  0.00    +0.000 A 
ATOM      5  C   UNL     1       2.179   7.678  18.788  0.00  0.00    +0.000 A 
ATOM      6  C   UNL     1       2.202   8.782  17.904  0.00  0.00    +0.000 A 
ATOM      7  C   UNL     1       1.741  10.034  18.287  0.00  0.00    +0.000 A 
ATOM      8  C   UNL     1       1.141  10.203  19.528  0.00  0.00    +0.000 A 
ATOM      9  C   UNL     1       0.715  11.475  19.938  0.00  0.00    +0.000 A 
ATOM     10  C   UNL     1       0.058  11.651  21.154  0.00  0.00    +0.000 A 
ATOM     11  C   UNL     1      -0.184  10.554  21.970  0.00  0.00    +0.000 A 
ATOM     12  C   UNL     1       0.267   9.290  21.587  0.00  0.00    +0.000 A 
ATOM     13  C   UNL     1       0.961   9.082  20.372  0.00  0.00    +0.000 A 
ATOM     14  C   UNL     1       2.845   6.443  18.503  0.00  0.00    +0.000 A 
ENDROOT
BRANCH   1  15
ATOM     15  C   UNL     1       3.348   4.080  19.216  0.00  0.00    +0.000 C 
ATOM     16  O   UNL     1       4.266   3.642  19.891  0.00  0.00    +0.000 OA
BRANCH  15  17
ATOM     17  O   UNL     1       2.778   3.485  18.139  0.00  0.00    +0.000 OA
BRANCH  17  19
ATOM     18  C   UNL     1       0.810   2.343  18.807  0.00  0.00    +0.000 C 
ATOM     19  C   UNL     1       2.244   2.171  18.343  0.00  0.00    +0.000 C 
ENDBRANCH  17  19
ENDBRANCH  15  17
ENDBRANCH   1  15
BRANCH  14  20
ATOM     20  N   UNL     1       3.711   6.305  17.371  0.00  0.00    +0.000 N 
ATOM     21  H   UNL     1       3.446   5.520  16.765  0.00  0.00    +0.000 HD
BRANCH  20  22
ATOM     22  C   UNL     1       5.123   6.478  17.339  0.00  0.00    +0.000 A 
ATOM     23  C   UNL     1       5.676   7.740  17.653  0.00  0.00    +0.000 A 
ATOM     24  C   UNL     1       7.044   7.990  17.576  0.00  0.00    +0.000 A 
ATOM     25  C   UNL     1       7.901   6.962  17.219  0.00  0.00    +0.000 A 
ATOM     26  C   UNL     1       7.387   5.696  16.942  0.00  0.00    +0.000 A 
ATOM     27  C   UNL     1       6.005   5.439  16.982  0.00  0.00    +0.000 A 
BRANCH  27  28
ATOM     28  O   UNL     1       5.705   4.129  16.704  0.00  0.00    +0.000 OA
BRANCH  28  29
ATOM     29  C   UNL     1       5.090   3.817  15.456  0.00  0.00    +0.000 C 
ATOM     30  C   UNL     1       6.147   3.950  14.368  0.00  0.00    +0.000 C 
ENDBRANCH  28  29
ENDBRANCH  27  28
ENDBRANCH  20  22
ENDBRANCH  14  20
TORSDOF 7
ENDMDL
MODEL 9
REMARK VINA RESULT:      -7.0      1.370      2.484
REMARK  Name = 
REMARK  9 active torsions:
REMARK  status: ('A' for Active; 'I' for Inactive)
REMARK    1  A    between atoms: C_1  and  C_2
REMARK    2  A    between atoms: C_2  and  O_3
REMARK    3  A    between atoms: O_3  and  C_4
REMARK    4  A    between atoms: C_4  and  C_6
REMARK    5  A    between atoms: C_19  and  N_20
REMARK    6  A    between atoms: N_20  and  C_21
REMARK    7  A    between atoms: C_26  and  O_27
REMARK    8  A    between atoms: O_27  and  C_28
REMARK    9  A    between atoms: C_28  and  C_29
REMARK                            x       y       z     vdW  Elec       q    Type
REMARK                         _______ _______ _______ _____ _____    ______ ____
ROOT
ATOM      1  C   UNL     1       3.277   4.169  20.051  0.00  0.00    +0.000 A 
ATOM      2  C   UNL     1       2.178   4.760  20.650  0.00  0.00    +0.000 A 
ATOM      3  N   UNL     1       1.714   5.989  20.345  0.00  0.00    +0.000 NA
ATOM      4  C   UNL     1       2.335   6.702  19.383  0.00  0.00    +0.000 A 
ATOM      5  C   UNL     1       3.414   6.151  18.650  0.00  0.00    +0.000 A 
ATOM      6  C   UNL     1       3.962   6.918  17.596  0.00  0.00    +0.000 A 
ATOM      7  C   UNL     1       3.606   8.245  17.395  0.00  0.00    +0.000 A 
ATOM      8  C   UNL     1       2.609   8.821  18.172  0.00  0.00    +0.000 A 
ATOM      9  C   UNL     1       2.277  10.174  18.004  0.00  0.00    +0.000 A 
ATOM     10  C   UNL     1       1.239  10.750  18.733  0.00  0.00    +0.000 A 
ATOM     11  C   UNL     1       0.519   9.977  19.635  0.00  0.00    +0.000 A 
ATOM     12  C   UNL     1       0.865   8.640  19.834  0.00  0.00    +0.000 A 
ATOM     13  C   UNL     1       1.930   8.032  19.130  0.00  0.00    +0.000 A 
ATOM     14  C   UNL     1       3.920   4.864  19.017  0.00  0.00    +0.000 A 
ENDROOT
BRANCH   1  15
ATOM     15  C   UNL     1       3.703   2.828  20.485  0.00  0.00    +0.000 C 
ATOM     16  O   UNL     1       4.809   2.575  20.934  0.00  0.00    +0.000 OA
BRANCH  15  17
ATOM     17  O   UNL     1       2.701   1.944  20.250  0.00  0.00    +0.000 OA
BRANCH  17  19
ATOM     18  C   UNL     1       3.568   1.237  18.159  0.00  0.00    +0.000 C 
ATOM     19  C   UNL     1       2.334   1.745  18.880  0.00  0.00    +0.000 C 
ENDBRANCH  17  19
ENDBRANCH  15  17
ENDBRANCH   1  15
BRANCH  14  20
ATOM     20  N   UNL     1       5.122   4.341  18.438  0.00  0.00    +0.000 N 
ATOM     21  H   UNL     1       5.929   4.425  19.067  0.00  0.00    +0.000 HD
BRANCH  20  22
ATOM     22  C   UNL     1       5.552   4.462  17.088  0.00  0.00    +0.000 A 
ATOM     23  C   UNL     1       4.657   4.143  16.042  0.00  0.00    +0.000 A 
ATOM     24  C   UNL     1       5.039   4.177  14.703  0.00  0.00    +0.000 A 
ATOM     25  C   UNL     1       6.324   4.574  14.375  0.00  0.00    +0.000 A 
ATOM     26  C   UNL     1       7.217   4.932  15.384  0.00  0.00    +0.000 A 
ATOM     27  C   UNL     1       6.856   4.868  16.742  0.00  0.00    +0.000 A 
BRANCH  27  28
ATOM     28  O   UNL     1       7.863   5.286  17.575  0.00  0.00    +0.000 OA
BRANCH  28  29
ATOM     29  C   UNL     1       7.629   6.405  18.426  0.00  0.00    +0.000 C 
ATOM     30  C   UNL     1       7.618   7.657  17.559  0.00  0.00    +0.000 C 
ENDBRANCH  28  29
ENDBRANCH  27  28
ENDBRANCH  20  22
ENDBRANCH  14  20
TORSDOF 7
ENDMDL
