MODEL 1
REMARK VINA RESULT:      -7.1      0.000      0.000
REMARK  Name = 
REMARK  4 active torsions:
REMARK  status: ('A' for Active; 'I' for Inactive)
REMARK    1  A    between atoms: C_2  and  C_3
REMARK    2  A    between atoms: C_3  and  N_4
REMARK    3  A    between atoms: C_5  and  C_7
REMARK    4  A    between atoms: C_11  and  C_12
REMARK                            x       y       z     vdW  Elec       q    Type
REMARK                         _______ _______ _______ _____ _____    ______ ____
ROOT
ATOM      1  C   UNL     1       6.423   5.393  17.560  0.00  0.00    +0.000 A 
ATOM      2  S   UNL     1       7.833   5.862  18.419  0.00  0.00    +0.000 S 
ATOM      3  N   UNL     1       7.188   5.475  19.904  0.00  0.00    +0.000 NA
ATOM      4  N   UNL     1       5.959   4.999  19.820  0.00  0.00    +0.000 NA
ATOM      5  C   UNL     1       5.508   4.929  18.499  0.00  0.00    +0.000 A 
ENDROOT
BRANCH   5   6
ATOM      6  C   UNL     1       4.183   4.380  18.219  0.00  0.00    +0.000 A 
ATOM      7  C   UNL     1       3.072   5.237  18.176  0.00  0.00    +0.000 A 
ATOM      8  C   UNL     1       1.790   4.737  17.918  0.00  0.00    +0.000 A 
ATOM      9  C   UNL     1       1.602   3.374  17.700  0.00  0.00    +0.000 A 
ATOM     10  C   UNL     1       2.690   2.508  17.759  0.00  0.00    +0.000 A 
ATOM     11  C   UNL     1       3.967   3.007  18.035  0.00  0.00    +0.000 A 
ENDBRANCH   5   6
BRANCH   1  13
ATOM     12  N   UNL     1       7.128   4.756  15.368  0.00  0.00    +0.000 N 
ATOM     13  C   UNL     1       6.325   5.576  16.134  0.00  0.00    +0.000 C 
ATOM     14  O   UNL     1       5.554   6.380  15.612  0.00  0.00    +0.000 OA
ATOM     15  H   UNL     1       7.763   4.109  15.817  0.00  0.00    +0.000 HD
BRANCH  12  16
ATOM     16  C   UNL     1       7.097   4.782  13.926  0.00  0.00    +0.000 C 
BRANCH  16  18
ATOM     17  C   UNL     1       5.541   3.589  12.359  0.00  0.00    +0.000 C 
ATOM     18  C   UNL     1       6.291   3.607  13.468  0.00  0.00    +0.000 C 
ENDBRANCH  16  18
ENDBRANCH  12  16
ENDBRANCH   1  13
TORSDOF 4
ENDMDL
MODEL 2
REMARK VINA RESULT:      -7.0      0.097      1.172
REMARK  Name = 
REMARK  4 active torsions:
REMARK  status: ('A' for Active; 'I' for Inactive)
REMARK    1  A    between atoms: C_2  and  C_3
REMARK    2  A    between atoms: C_3  and  N_4
REMARK    3  A    between atoms: C_5  and  C_7
REMARK    4  A    between atoms: C_11  and  C_12
REMARK                            x       y       z     vdW  Elec       q    Type
REMARK                         _______ _______ _______ _____ _____    ______ ____
ROOT
ATOM      1  C   UNL     1       6.392   5.415  17.517  0.00  0.00    +0.000 A 
ATOM      2  S   UNL     1       7.821   5.865  18.356  0.00  0.00    +0.000 S 
ATOM      3  N   UNL     1       7.192   5.486  19.851  0.00  0.00    +0.000 NA
ATOM      4  N   UNL     1       5.955   5.026  19.783  0.00  0.00    +0.000 NA
ATOM      5  C   UNL     1       5.485   4.963  18.470  0.00  0.00    +0.000 A 
ENDROOT
BRANCH   5   6
ATOM      6  C   UNL     1       4.148   4.433  18.209  0.00  0.00    +0.000 A 
ATOM      7  C   UNL     1       3.976   3.054  18.005  0.00  0.00    +0.000 A 
ATOM      8  C   UNL     1       2.708   2.521  17.744  0.00  0.00    +0.000 A 
ATOM      9  C   UNL     1       1.597   3.358  17.685  0.00  0.00    +0.000 A 
ATOM     10  C   UNL     1       1.753   4.729  17.865  0.00  0.00    +0.000 A 
ATOM     11  C   UNL     1       3.023   5.262  18.107  0.00  0.00    +0.000 A 
ENDBRANCH   5   6
BRANCH   1  13
ATOM     12  N   UNL     1       7.094   4.805  15.318  0.00  0.00    +0.000 N 
ATOM     13  C   UNL     1       6.276   5.600  16.093  0.00  0.00    +0.000 C 
ATOM     14  O   UNL     1       5.480   6.385  15.582  0.00  0.00    +0.000 OA
ATOM     15  H   UNL     1       7.750   4.173  15.758  0.00  0.00    +0.000 HD
BRANCH  12  16
ATOM     16  C   UNL     1       7.048   4.834  13.876  0.00  0.00    +0.000 C 
BRANCH  16  18
ATOM     17  C   UNL     1       5.293   3.636  12.541  0.00  0.00    +0.000 C 
ATOM     18  C   UNL     1       6.304   3.620  13.419  0.00  0.00    +0.000 C 
ENDBRANCH  16  18
ENDBRANCH  12  16
ENDBRANCH   1  13
TORSDOF 4
ENDMDL
MODEL 3
REMARK VINA RESULT:      -6.7      3.351      5.594
REMARK  Name = 
REMARK  4 active torsions:
REMARK  status: ('A' for Active; 'I' for Inactive)
REMARK    1  A    between atoms: C_2  and  C_3
REMARK    2  A    between atoms: C_3  and  N_4
REMARK    3  A    between atoms: C_5  and  C_7
REMARK    4  A    between atoms: C_11  and  C_12
REMARK                            x       y       z     vdW  Elec       q    Type
REMARK                         _______ _______ _______ _____ _____    ______ ____
ROOT
ATOM      1  C   UNL     1       3.471   4.949  17.467  0.00  0.00    +0.000 A 
ATOM      2  S   UNL     1       4.804   4.334  16.577  0.00  0.00    +0.000 S 
ATOM      3  N   UNL     1       5.529   5.825  16.426  0.00  0.00    +0.000 NA
ATOM      4  N   UNL     1       4.841   6.790  17.010  0.00  0.00    +0.000 NA
ATOM      5  C   UNL     1       3.678   6.316  17.620  0.00  0.00    +0.000 A 
ENDROOT
BRANCH   5   6
ATOM      6  C   UNL     1       2.820   7.244  18.354  0.00  0.00    +0.000 A 
ATOM      7  C   UNL     1       2.463   6.958  19.682  0.00  0.00    +0.000 A 
ATOM      8  C   UNL     1       1.637   7.825  20.405  0.00  0.00    +0.000 A 
ATOM      9  C   UNL     1       1.156   8.990  19.811  0.00  0.00    +0.000 A 
ATOM     10  C   UNL     1       1.484   9.278  18.490  0.00  0.00    +0.000 A 
ATOM     11  C   UNL     1       2.295   8.401  17.763  0.00  0.00    +0.000 A 
ENDBRANCH   5   6
BRANCH   1  13
ATOM     12  N   UNL     1       2.647   3.189  18.856  0.00  0.00    +0.000 N 
ATOM     13  C   UNL     1       2.376   4.095  17.852  0.00  0.00    +0.000 C 
ATOM     14  O   UNL     1       1.254   4.178  17.355  0.00  0.00    +0.000 OA
ATOM     15  H   UNL     1       3.580   3.129  19.244  0.00  0.00    +0.000 HD
BRANCH  12  16
ATOM     16  C   UNL     1       1.636   2.308  19.388  0.00  0.00    +0.000 C 
BRANCH  16  18
ATOM     17  C   UNL     1       1.940   3.175  21.724  0.00  0.00    +0.000 C 
ATOM     18  C   UNL     1       1.154   2.896  20.677  0.00  0.00    +0.000 C 
ENDBRANCH  16  18
ENDBRANCH  12  16
ENDBRANCH   1  13
TORSDOF 4
ENDMDL
MODEL 4
REMARK VINA RESULT:      -6.7      3.090      4.367
REMARK  Name = 
REMARK  4 active torsions:
REMARK  status: ('A' for Active; 'I' for Inactive)
REMARK    1  A    between atoms: C_2  and  C_3
REMARK    2  A    between atoms: C_3  and  N_4
REMARK    3  A    between atoms: C_5  and  C_7
REMARK    4  A    between atoms: C_11  and  C_12
REMARK                            x       y       z     vdW  Elec       q    Type
REMARK                         _______ _______ _______ _____ _____    ______ ____
ROOT
ATOM      1  C   UNL     1       3.859   3.515  18.591  0.00  0.00    +0.000 A 
ATOM      2  S   UNL     1       3.558   1.846  18.326  0.00  0.00    +0.000 S 
ATOM      3  N   UNL     1       1.919   1.990  18.587  0.00  0.00    +0.000 NA
ATOM      4  N   UNL     1       1.552   3.228  18.862  0.00  0.00    +0.000 NA
ATOM      5  C   UNL     1       2.632   4.114  18.856  0.00  0.00    +0.000 A 
ENDROOT
BRANCH   5   6
ATOM      6  C   UNL     1       2.397   5.536  19.096  0.00  0.00    +0.000 A 
ATOM      7  C   UNL     1       1.926   5.961  20.348  0.00  0.00    +0.000 A 
ATOM      8  C   UNL     1       1.685   7.316  20.603  0.00  0.00    +0.000 A 
ATOM      9  C   UNL     1       1.910   8.264  19.608  0.00  0.00    +0.000 A 
ATOM     10  C   UNL     1       2.358   7.858  18.355  0.00  0.00    +0.000 A 
ATOM     11  C   UNL     1       2.581   6.503  18.097  0.00  0.00    +0.000 A 
ENDBRANCH   5   6
BRANCH   1  13
ATOM     12  N   UNL     1       5.809   4.108  17.346  0.00  0.00    +0.000 N 
ATOM     13  C   UNL     1       5.201   4.040  18.582  0.00  0.00    +0.000 C 
ATOM     14  O   UNL     1       5.771   4.440  19.596  0.00  0.00    +0.000 OA
ATOM     15  H   UNL     1       5.327   3.764  16.526  0.00  0.00    +0.000 HD
BRANCH  12  16
ATOM     16  C   UNL     1       7.128   4.665  17.171  0.00  0.00    +0.000 C 
BRANCH  16  18
ATOM     17  C   UNL     1       7.472   7.115  17.597  0.00  0.00    +0.000 C 
ATOM     18  C   UNL     1       6.970   6.119  16.855  0.00  0.00    +0.000 C 
ENDBRANCH  16  18
ENDBRANCH  12  16
ENDBRANCH   1  13
TORSDOF 4
ENDMDL
MODEL 5
REMARK VINA RESULT:      -6.6      3.077      4.364
REMARK  Name = 
REMARK  4 active torsions:
REMARK  status: ('A' for Active; 'I' for Inactive)
REMARK    1  A    between atoms: C_2  and  C_3
REMARK    2  A    between atoms: C_3  and  N_4
REMARK    3  A    between atoms: C_5  and  C_7
REMARK    4  A    between atoms: C_11  and  C_12
REMARK                            x       y       z     vdW  Elec       q    Type
REMARK                         _______ _______ _______ _____ _____    ______ ____
ROOT
ATOM      1  C   UNL     1       3.854   3.488  18.574  0.00  0.00    +0.000 A 
ATOM      2  S   UNL     1       3.550   1.814  18.343  0.00  0.00    +0.000 S 
ATOM      3  N   UNL     1       1.909   1.970  18.583  0.00  0.00    +0.000 NA
ATOM      4  N   UNL     1       1.543   3.216  18.825  0.00  0.00    +0.000 NA
ATOM      5  C   UNL     1       2.626   4.098  18.811  0.00  0.00    +0.000 A 
ENDROOT
BRANCH   5   6
ATOM      6  C   UNL     1       2.394   5.526  19.015  0.00  0.00    +0.000 A 
ATOM      7  C   UNL     1       2.636   6.426  17.966  0.00  0.00    +0.000 A 
ATOM      8  C   UNL     1       2.431   7.800  18.137  0.00  0.00    +0.000 A 
ATOM      9  C   UNL     1       1.981   8.292  19.359  0.00  0.00    +0.000 A 
ATOM     10  C   UNL     1       1.754   7.415  20.416  0.00  0.00    +0.000 A 
ATOM     11  C   UNL     1       1.978   6.046  20.249  0.00  0.00    +0.000 A 
ENDBRANCH   5   6
BRANCH   1  13
ATOM     12  N   UNL     1       5.784   4.137  17.326  0.00  0.00    +0.000 N 
ATOM     13  C   UNL     1       5.198   4.008  18.567  0.00  0.00    +0.000 C 
ATOM     14  O   UNL     1       5.788   4.353  19.590  0.00  0.00    +0.000 OA
ATOM     15  H   UNL     1       5.286   3.836  16.498  0.00  0.00    +0.000 HD
BRANCH  12  16
ATOM     16  C   UNL     1       7.103   4.697  17.155  0.00  0.00    +0.000 C 
BRANCH  16  18
ATOM     17  C   UNL     1       7.515   7.123  17.649  0.00  0.00    +0.000 C 
ATOM     18  C   UNL     1       6.946   6.164  16.907  0.00  0.00    +0.000 C 
ENDBRANCH  16  18
ENDBRANCH  12  16
ENDBRANCH   1  13
TORSDOF 4
ENDMDL
MODEL 6
REMARK VINA RESULT:      -6.6      3.061      3.984
REMARK  Name = 
REMARK  4 active torsions:
REMARK  status: ('A' for Active; 'I' for Inactive)
REMARK    1  A    between atoms: C_2  and  C_3
REMARK    2  A    between atoms: C_3  and  N_4
REMARK    3  A    between atoms: C_5  and  C_7
REMARK    4  A    between atoms: C_11  and  C_12
REMARK                            x       y       z     vdW  Elec       q    Type
REMARK                         _______ _______ _______ _____ _____    ______ ____
ROOT
ATOM      1  C   UNL     1       3.767   3.403  18.600  0.00  0.00    +0.000 A 
ATOM      2  S   UNL     1       3.437   1.721  18.501  0.00  0.00    +0.000 S 
ATOM      3  N   UNL     1       1.827   1.906  18.886  0.00  0.00    +0.000 NA
ATOM      4  N   UNL     1       1.490   3.167  19.086  0.00  0.00    +0.000 NA
ATOM      5  C   UNL     1       2.570   4.037  18.915  0.00  0.00    +0.000 A 
ENDROOT
BRANCH   5   6
ATOM      6  C   UNL     1       2.363   5.477  19.054  0.00  0.00    +0.000 A 
ATOM      7  C   UNL     1       2.551   6.315  17.944  0.00  0.00    +0.000 A 
ATOM      8  C   UNL     1       2.368   7.699  18.051  0.00  0.00    +0.000 A 
ATOM      9  C   UNL     1       1.996   8.262  19.268  0.00  0.00    +0.000 A 
ATOM     10  C   UNL     1       1.825   7.447  20.384  0.00  0.00    +0.000 A 
ATOM     11  C   UNL     1       2.026   6.068  20.279  0.00  0.00    +0.000 A 
ENDBRANCH   5   6
BRANCH   1  13
ATOM     12  N   UNL     1       5.557   3.995  17.134  0.00  0.00    +0.000 N 
ATOM     13  C   UNL     1       5.106   3.909  18.434  0.00  0.00    +0.000 C 
ATOM     14  O   UNL     1       5.804   4.279  19.377  0.00  0.00    +0.000 OA
ATOM     15  H   UNL     1       4.972   3.675  16.373  0.00  0.00    +0.000 HD
BRANCH  12  16
ATOM     16  C   UNL     1       6.854   4.537  16.806  0.00  0.00    +0.000 C 
BRANCH  16  18
ATOM     17  C   UNL     1       6.191   3.953  14.456  0.00  0.00    +0.000 C 
ATOM     18  C   UNL     1       6.932   4.662  15.317  0.00  0.00    +0.000 C 
ENDBRANCH  16  18
ENDBRANCH  12  16
ENDBRANCH   1  13
TORSDOF 4
ENDMDL
MODEL 7
REMARK VINA RESULT:      -6.6      3.038      3.940
REMARK  Name = 
REMARK  4 active torsions:
REMARK  status: ('A' for Active; 'I' for Inactive)
REMARK    1  A    between atoms: C_2  and  C_3
REMARK    2  A    between atoms: C_3  and  N_4
REMARK    3  A    between atoms: C_5  and  C_7
REMARK    4  A    between atoms: C_11  and  C_12
REMARK                            x       y       z     vdW  Elec       q    Type
REMARK                         _______ _______ _______ _____ _____    ______ ____
ROOT
ATOM      1  C   UNL     1       3.842   3.469  18.663  0.00  0.00    +0.000 A 
ATOM      2  S   UNL     1       3.550   1.778  18.601  0.00  0.00    +0.000 S 
ATOM      3  N   UNL     1       1.950   1.929  19.038  0.00  0.00    +0.000 NA
ATOM      4  N   UNL     1       1.589   3.185  19.231  0.00  0.00    +0.000 NA
ATOM      5  C   UNL     1       2.641   4.078  19.010  0.00  0.00    +0.000 A 
ENDROOT
BRANCH   5   6
ATOM      6  C   UNL     1       2.403   5.515  19.135  0.00  0.00    +0.000 A 
ATOM      7  C   UNL     1       1.934   6.038  20.350  0.00  0.00    +0.000 A 
ATOM      8  C   UNL     1       1.690   7.409  20.494  0.00  0.00    +0.000 A 
ATOM      9  C   UNL     1       1.912   8.274  19.426  0.00  0.00    +0.000 A 
ATOM     10  C   UNL     1       2.358   7.769  18.208  0.00  0.00    +0.000 A 
ATOM     11  C   UNL     1       2.583   6.397  18.061  0.00  0.00    +0.000 A 
ENDBRANCH   5   6
BRANCH   1  13
ATOM     12  N   UNL     1       5.655   3.875  17.162  0.00  0.00    +0.000 N 
ATOM     13  C   UNL     1       5.161   4.005  18.443  0.00  0.00    +0.000 C 
ATOM     14  O   UNL     1       5.807   4.577  19.320  0.00  0.00    +0.000 OA
ATOM     15  H   UNL     1       5.113   3.391  16.458  0.00  0.00    +0.000 HD
BRANCH  12  16
ATOM     16  C   UNL     1       6.936   4.414  16.776  0.00  0.00    +0.000 C 
BRANCH  16  18
ATOM     17  C   UNL     1       5.957   4.167  14.477  0.00  0.00    +0.000 C 
ATOM     18  C   UNL     1       6.913   4.627  15.295  0.00  0.00    +0.000 C 
ENDBRANCH  16  18
ENDBRANCH  12  16
ENDBRANCH   1  13
TORSDOF 4
ENDMDL
MODEL 8
REMARK VINA RESULT:      -6.6      3.355      5.515
REMARK  Name = 
REMARK  4 active torsions:
REMARK  status: ('A' for Active; 'I' for Inactive)
REMARK    1  A    between atoms: C_2  and  C_3
REMARK    2  A    between atoms: C_3  and  N_4
REMARK    3  A    between atoms: C_5  and  C_7
REMARK    4  A    between atoms: C_11  and  C_12
REMARK                            x       y       z     vdW  Elec       q    Type
REMARK                         _______ _______ _______ _____ _____    ______ ____
ROOT
ATOM      1  C   UNL     1       3.470   4.922  17.475  0.00  0.00    +0.000 A 
ATOM      2  S   UNL     1       4.798   4.301  16.582  0.00  0.00    +0.000 S 
ATOM      3  N   UNL     1       5.516   5.793  16.407  0.00  0.00    +0.000 NA
ATOM      4  N   UNL     1       4.830   6.762  16.985  0.00  0.00    +0.000 NA
ATOM      5  C   UNL     1       3.673   6.291  17.610  0.00  0.00    +0.000 A 
ENDROOT
BRANCH   5   6
ATOM      6  C   UNL     1       2.818   7.225  18.339  0.00  0.00    +0.000 A 
ATOM      7  C   UNL     1       2.383   8.404  17.712  0.00  0.00    +0.000 A 
ATOM      8  C   UNL     1       1.571   9.319  18.390  0.00  0.00    +0.000 A 
ATOM      9  C   UNL     1       1.182   9.070  19.704  0.00  0.00    +0.000 A 
ATOM     10  C   UNL     1       1.621   7.916  20.347  0.00  0.00    +0.000 A 
ATOM     11  C   UNL     1       2.448   7.012  19.674  0.00  0.00    +0.000 A 
ENDBRANCH   5   6
BRANCH   1  13
ATOM     12  N   UNL     1       2.676   3.149  18.865  0.00  0.00    +0.000 N 
ATOM     13  C   UNL     1       2.381   4.069  17.880  0.00  0.00    +0.000 C 
ATOM     14  O   UNL     1       1.247   4.164  17.415  0.00  0.00    +0.000 OA
ATOM     15  H   UNL     1       3.618   3.080  19.227  0.00  0.00    +0.000 HD
BRANCH  12  16
ATOM     16  C   UNL     1       1.675   2.267  19.414  0.00  0.00    +0.000 C 
BRANCH  16  18
ATOM     17  C   UNL     1       1.912   3.655  21.492  0.00  0.00    +0.000 C 
ATOM     18  C   UNL     1       1.633   2.490  20.893  0.00  0.00    +0.000 C 
ENDBRANCH  16  18
ENDBRANCH  12  16
ENDBRANCH   1  13
TORSDOF 4
ENDMDL
MODEL 9
REMARK VINA RESULT:      -6.5      2.863      4.345
REMARK  Name = 
REMARK  4 active torsions:
REMARK  status: ('A' for Active; 'I' for Inactive)
REMARK    1  A    between atoms: C_2  and  C_3
REMARK    2  A    between atoms: C_3  and  N_4
REMARK    3  A    between atoms: C_5  and  C_7
REMARK    4  A    between atoms: C_11  and  C_12
REMARK                            x       y       z     vdW  Elec       q    Type
REMARK                         _______ _______ _______ _____ _____    ______ ____
ROOT
ATOM      1  C   UNL     1       3.720   3.569  18.210  0.00  0.00    +0.000 A 
ATOM      2  S   UNL     1       3.490   1.869  18.288  0.00  0.00    +0.000 S 
ATOM      3  N   UNL     1       2.099   1.991  19.196  0.00  0.00    +0.000 NA
ATOM      4  N   UNL     1       1.767   3.242  19.456  0.00  0.00    +0.000 NA
ATOM      5  C   UNL     1       2.662   4.156  18.896  0.00  0.00    +0.000 A 
ENDROOT
BRANCH   5   6
ATOM      6  C   UNL     1       2.418   5.588  19.048  0.00  0.00    +0.000 A 
ATOM      7  C   UNL     1       2.059   6.102  20.304  0.00  0.00    +0.000 A 
ATOM      8  C   UNL     1       1.811   7.468  20.477  0.00  0.00    +0.000 A 
ATOM      9  C   UNL     1       1.920   8.340  19.396  0.00  0.00    +0.000 A 
ATOM     10  C   UNL     1       2.255   7.845  18.139  0.00  0.00    +0.000 A 
ATOM     11  C   UNL     1       2.484   6.477  17.965  0.00  0.00    +0.000 A 
ENDBRANCH   5   6
BRANCH   1  13
ATOM     12  N   UNL     1       6.029   4.164  18.347  0.00  0.00    +0.000 N 
ATOM     13  C   UNL     1       4.885   4.134  17.577  0.00  0.00    +0.000 C 
ATOM     14  O   UNL     1       4.888   4.535  16.414  0.00  0.00    +0.000 OA
ATOM     15  H   UNL     1       6.002   3.839  19.305  0.00  0.00    +0.000 HD
BRANCH  12  16
ATOM     16  C   UNL     1       7.287   4.646  17.832  0.00  0.00    +0.000 C 
BRANCH  16  18
ATOM     17  C   UNL     1       7.395   7.140  17.569  0.00  0.00    +0.000 C 
ATOM     18  C   UNL     1       7.479   6.043  18.332  0.00  0.00    +0.000 C 
ENDBRANCH  16  18
ENDBRANCH  12  16
ENDBRANCH   1  13
TORSDOF 4
ENDMDL
