MODEL 1
REMARK VINA RESULT:      -6.8      0.000      0.000
REMARK  Name = 
REMARK  8 active torsions:
REMARK  status: ('A' for Active; 'I' for Inactive)
REMARK    1  A    between atoms: C_1  and  O_2
REMARK    2  A    between atoms: O_2  and  C_3
REMARK    3  A    between atoms: C_3  and  C_5
REMARK    4  A    between atoms: C_5  and  C_13
REMARK    5  A    between atoms: C_6  and  C_7
REMARK    6  A    between atoms: C_13  and  S_14
REMARK    7  A    between atoms: S_14  and  C_15
REMARK    8  A    between atoms: N_17  and  N_18
REMARK                            x       y       z     vdW  Elec       q    Type
REMARK                         _______ _______ _______ _____ _____    ______ ____
ROOT
ATOM      1  C   UNL     1       6.079   4.984  18.487  0.00  0.00    +0.000 C 
ATOM      2  C   UNL     1       4.986   4.934  19.290  0.00  0.00    +0.000 C 
ENDROOT
BRANCH   2   3
ATOM      3  C   UNL     1       3.700   4.295  18.981  0.00  0.00    +0.000 A 
ATOM      4  C   UNL     1       2.754   5.028  18.250  0.00  0.00    +0.000 A 
ATOM      5  C   UNL     1       1.544   4.443  17.870  0.00  0.00    +0.000 A 
ATOM      6  C   UNL     1       1.281   3.112  18.196  0.00  0.00    +0.000 A 
ATOM      7  C   UNL     1       2.229   2.363  18.908  0.00  0.00    +0.000 A 
ATOM      8  C   UNL     1       3.436   2.953  19.307  0.00  0.00    +0.000 A 
ENDBRANCH   2   3
BRANCH   1   9
ATOM      9  C   UNL     1       7.290   5.655  19.071  0.00  0.00    +0.000 C 
ATOM     10  O   UNL     1       7.597   5.509  20.243  0.00  0.00    +0.000 OA
BRANCH   9  12
ATOM     11  C   UNL     1       7.596   7.710  17.832  0.00  0.00    +0.000 C 
ATOM     12  O   UNL     1       8.033   6.488  18.293  0.00  0.00    +0.000 OA
ENDBRANCH   9  12
ENDBRANCH   1   9
BRANCH   1  13
ATOM     13  C   UNL     1       6.056   4.319  17.098  0.00  0.00    +0.000 C 
BRANCH  13  14
ATOM     14  S   UNL     1       5.536   5.443  15.734  0.00  0.00    +0.000 S 
BRANCH  14  15
ATOM     15  C   UNL     1       6.501   4.733  14.396  0.00  0.00    +0.000 C 
ATOM     16  N   UNL     1       7.606   5.284  14.043  0.00  0.00    +0.000 NA
ATOM     17  N   UNL     1       5.962   3.630  13.670  0.00  0.00    +0.000 N 
ATOM     18  H   UNL     1       7.973   6.113  14.535  0.00  0.00    +0.000 HD
ATOM     19  H   UNL     1       5.063   3.233  13.981  0.00  0.00    +0.000 HD
BRANCH  17  20
ATOM     20  N   UNL     1       6.566   3.096  12.532  0.00  0.00    +0.000 NA
ATOM     21  H   UNL     1       6.553   3.781  11.744  0.00  0.00    +0.000 HD
ATOM     22  H   UNL     1       6.003   2.265  12.242  0.00  0.00    +0.000 HD
ENDBRANCH  17  20
ENDBRANCH  14  15
ENDBRANCH  13  14
ENDBRANCH   1  13
TORSDOF 7
ENDMDL
MODEL 2
REMARK VINA RESULT:      -6.8      0.817      1.330
REMARK  Name = 
REMARK  8 active torsions:
REMARK  status: ('A' for Active; 'I' for Inactive)
REMARK    1  A    between atoms: C_1  and  O_2
REMARK    2  A    between atoms: O_2  and  C_3
REMARK    3  A    between atoms: C_3  and  C_5
REMARK    4  A    between atoms: C_5  and  C_13
REMARK    5  A    between atoms: C_6  and  C_7
REMARK    6  A    between atoms: C_13  and  S_14
REMARK    7  A    between atoms: S_14  and  C_15
REMARK    8  A    between atoms: N_17  and  N_18
REMARK                            x       y       z     vdW  Elec       q    Type
REMARK                         _______ _______ _______ _____ _____    ______ ____
ROOT
ATOM      1  C   UNL     1       5.925   5.171  17.986  0.00  0.00    +0.000 C 
ATOM      2  C   UNL     1       5.225   4.637  19.019  0.00  0.00    +0.000 C 
ENDROOT
BRANCH   2   3
ATOM      3  C   UNL     1       3.890   4.027  18.949  0.00  0.00    +0.000 A 
ATOM      4  C   UNL     1       2.775   4.876  18.895  0.00  0.00    +0.000 A 
ATOM      5  C   UNL     1       1.489   4.348  18.758  0.00  0.00    +0.000 A 
ATOM      6  C   UNL     1       1.309   2.969  18.648  0.00  0.00    +0.000 A 
ATOM      7  C   UNL     1       2.419   2.112  18.679  0.00  0.00    +0.000 A 
ATOM      8  C   UNL     1       3.709   2.637  18.835  0.00  0.00    +0.000 A 
ENDBRANCH   2   3
BRANCH   1   9
ATOM      9  C   UNL     1       7.298   5.681  18.322  0.00  0.00    +0.000 C 
ATOM     10  O   UNL     1       7.865   5.357  19.353  0.00  0.00    +0.000 OA
BRANCH   9  12
ATOM     11  C   UNL     1       7.659   7.924  17.489  0.00  0.00    +0.000 C 
ATOM     12  O   UNL     1       7.905   6.568  17.487  0.00  0.00    +0.000 OA
ENDBRANCH   9  12
ENDBRANCH   1   9
BRANCH   1  13
ATOM     13  C   UNL     1       5.338   5.169  16.563  0.00  0.00    +0.000 C 
BRANCH  13  14
ATOM     14  S   UNL     1       5.588   3.591  15.646  0.00  0.00    +0.000 S 
BRANCH  14  15
ATOM     15  C   UNL     1       6.545   4.214  14.261  0.00  0.00    +0.000 C 
ATOM     16  N   UNL     1       6.434   3.661  13.106  0.00  0.00    +0.000 NA
ATOM     17  N   UNL     1       7.502   5.245  14.494  0.00  0.00    +0.000 N 
ATOM     18  H   UNL     1       5.778   2.882  12.947  0.00  0.00    +0.000 HD
ATOM     19  H   UNL     1       7.566   5.646  15.441  0.00  0.00    +0.000 HD
BRANCH  17  20
ATOM     20  N   UNL     1       8.388   5.701  13.519  0.00  0.00    +0.000 NA
ATOM     21  H   UNL     1       9.353   5.340  13.688  0.00  0.00    +0.000 HD
ATOM     22  H   UNL     1       8.421   6.744  13.589  0.00  0.00    +0.000 HD
ENDBRANCH  17  20
ENDBRANCH  14  15
ENDBRANCH  13  14
ENDBRANCH   1  13
TORSDOF 7
ENDMDL
MODEL 3
REMARK VINA RESULT:      -6.8      3.316      4.483
REMARK  Name = 
REMARK  8 active torsions:
REMARK  status: ('A' for Active; 'I' for Inactive)
REMARK    1  A    between atoms: C_1  and  O_2
REMARK    2  A    between atoms: O_2  and  C_3
REMARK    3  A    between atoms: C_3  and  C_5
REMARK    4  A    between atoms: C_5  and  C_13
REMARK    5  A    between atoms: C_6  and  C_7
REMARK    6  A    between atoms: C_13  and  S_14
REMARK    7  A    between atoms: S_14  and  C_15
REMARK    8  A    between atoms: N_17  and  N_18
REMARK                            x       y       z     vdW  Elec       q    Type
REMARK                         _______ _______ _______ _____ _____    ______ ____
ROOT
ATOM      1  C   UNL     1       5.558   4.641  16.164  0.00  0.00    +0.000 C 
ATOM      2  C   UNL     1       4.773   3.559  16.403  0.00  0.00    +0.000 C 
ENDROOT
BRANCH   2   3
ATOM      3  C   UNL     1       3.691   3.464  17.391  0.00  0.00    +0.000 A 
ATOM      4  C   UNL     1       3.901   2.672  18.530  0.00  0.00    +0.000 A 
ATOM      5  C   UNL     1       2.931   2.603  19.533  0.00  0.00    +0.000 A 
ATOM      6  C   UNL     1       1.756   3.345  19.419  0.00  0.00    +0.000 A 
ATOM      7  C   UNL     1       1.544   4.156  18.294  0.00  0.00    +0.000 A 
ATOM      8  C   UNL     1       2.507   4.213  17.277  0.00  0.00    +0.000 A 
ENDBRANCH   2   3
BRANCH   1   9
ATOM      9  C   UNL     1       6.559   4.490  15.053  0.00  0.00    +0.000 C 
ATOM     10  O   UNL     1       7.470   5.288  14.902  0.00  0.00    +0.000 OA
BRANCH   9  12
ATOM     11  C   UNL     1       6.058   3.643  12.843  0.00  0.00    +0.000 C 
ATOM     12  O   UNL     1       6.419   3.472  14.161  0.00  0.00    +0.000 OA
ENDBRANCH   9  12
ENDBRANCH   1   9
BRANCH   1  13
ATOM     13  C   UNL     1       5.352   5.943  16.959  0.00  0.00    +0.000 C 
BRANCH  13  14
ATOM     14  S   UNL     1       6.906   6.665  17.637  0.00  0.00    +0.000 S 
BRANCH  14  15
ATOM     15  C   UNL     1       7.034   5.702  19.147  0.00  0.00    +0.000 C 
ATOM     16  N   UNL     1       5.985   5.152  19.646  0.00  0.00    +0.000 NA
ATOM     17  N   UNL     1       8.285   5.659  19.831  0.00  0.00    +0.000 N 
ATOM     18  H   UNL     1       5.069   5.223  19.178  0.00  0.00    +0.000 HD
ATOM     19  H   UNL     1       9.093   6.130  19.399  0.00  0.00    +0.000 HD
BRANCH  17  20
ATOM     20  N   UNL     1       8.454   5.056  21.077  0.00  0.00    +0.000 NA
ATOM     21  H   UNL     1       7.756   4.294  21.224  0.00  0.00    +0.000 HD
ATOM     22  H   UNL     1       8.286   5.788  21.803  0.00  0.00    +0.000 HD
ENDBRANCH  17  20
ENDBRANCH  14  15
ENDBRANCH  13  14
ENDBRANCH   1  13
TORSDOF 7
ENDMDL
MODEL 4
REMARK VINA RESULT:      -6.7      3.123      4.155
REMARK  Name = 
REMARK  8 active torsions:
REMARK  status: ('A' for Active; 'I' for Inactive)
REMARK    1  A    between atoms: C_1  and  O_2
REMARK    2  A    between atoms: O_2  and  C_3
REMARK    3  A    between atoms: C_3  and  C_5
REMARK    4  A    between atoms: C_5  and  C_13
REMARK    5  A    between atoms: C_6  and  C_7
REMARK    6  A    between atoms: C_13  and  S_14
REMARK    7  A    between atoms: S_14  and  C_15
REMARK    8  A    between atoms: N_17  and  N_18
REMARK                            x       y       z     vdW  Elec       q    Type
REMARK                         _______ _______ _______ _____ _____    ______ ____
ROOT
ATOM      1  C   UNL     1       4.835   4.269  16.915  0.00  0.00    +0.000 C 
ATOM      2  C   UNL     1       3.994   3.290  17.335  0.00  0.00    +0.000 C 
ENDROOT
BRANCH   2   3
ATOM      3  C   UNL     1       3.134   3.325  18.526  0.00  0.00    +0.000 A 
ATOM      4  C   UNL     1       1.790   3.692  18.363  0.00  0.00    +0.000 A 
ATOM      5  C   UNL     1       0.914   3.675  19.451  0.00  0.00    +0.000 A 
ATOM      6  C   UNL     1       1.367   3.265  20.705  0.00  0.00    +0.000 A 
ATOM      7  C   UNL     1       2.704   2.875  20.875  0.00  0.00    +0.000 A 
ATOM      8  C   UNL     1       3.590   2.910  19.790  0.00  0.00    +0.000 A 
ENDBRANCH   2   3
BRANCH   1   9
ATOM      9  C   UNL     1       5.561   3.999  15.628  0.00  0.00    +0.000 C 
ATOM     10  O   UNL     1       6.676   3.502  15.616  0.00  0.00    +0.000 OA
BRANCH   9  12
ATOM     11  C   UNL     1       5.496   4.037  13.209  0.00  0.00    +0.000 C 
ATOM     12  O   UNL     1       4.990   4.364  14.448  0.00  0.00    +0.000 OA
ENDBRANCH   9  12
ENDBRANCH   1   9
BRANCH   1  13
ATOM     13  C   UNL     1       4.953   5.586  17.704  0.00  0.00    +0.000 C 
BRANCH  13  14
ATOM     14  S   UNL     1       6.550   6.471  17.458  0.00  0.00    +0.000 S 
BRANCH  14  15
ATOM     15  C   UNL     1       7.593   5.482  18.535  0.00  0.00    +0.000 C 
ATOM     16  N   UNL     1       8.092   4.378  18.105  0.00  0.00    +0.000 NA
ATOM     17  N   UNL     1       7.759   5.885  19.892  0.00  0.00    +0.000 N 
ATOM     18  H   UNL     1       7.932   4.060  17.137  0.00  0.00    +0.000 HD
ATOM     19  H   UNL     1       7.326   6.770  20.195  0.00  0.00    +0.000 HD
BRANCH  17  20
ATOM     20  N   UNL     1       8.433   5.118  20.841  0.00  0.00    +0.000 NA
ATOM     21  H   UNL     1       8.702   5.694  21.669  0.00  0.00    +0.000 HD
ATOM     22  H   UNL     1       9.313   4.772  20.394  0.00  0.00    +0.000 HD
ENDBRANCH  17  20
ENDBRANCH  14  15
ENDBRANCH  13  14
ENDBRANCH   1  13
TORSDOF 7
ENDMDL
MODEL 5
REMARK VINA RESULT:      -6.7      2.956      4.261
REMARK  Name = 
REMARK  8 active torsions:
REMARK  status: ('A' for Active; 'I' for Inactive)
REMARK    1  A    between atoms: C_1  and  O_2
REMARK    2  A    between atoms: O_2  and  C_3
REMARK    3  A    between atoms: C_3  and  C_5
REMARK    4  A    between atoms: C_5  and  C_13
REMARK    5  A    between atoms: C_6  and  C_7
REMARK    6  A    between atoms: C_13  and  S_14
REMARK    7  A    between atoms: S_14  and  C_15
REMARK    8  A    between atoms: N_17  and  N_18
REMARK                            x       y       z     vdW  Elec       q    Type
REMARK                         _______ _______ _______ _____ _____    ______ ____
ROOT
ATOM      1  C   UNL     1       4.845   4.753  17.081  0.00  0.00    +0.000 C 
ATOM      2  C   UNL     1       3.526   4.437  17.140  0.00  0.00    +0.000 C 
ENDROOT
BRANCH   2   3
ATOM      3  C   UNL     1       2.723   4.254  18.357  0.00  0.00    +0.000 A 
ATOM      4  C   UNL     1       2.455   2.945  18.783  0.00  0.00    +0.000 A 
ATOM      5  C   UNL     1       1.756   2.716  19.971  0.00  0.00    +0.000 A 
ATOM      6  C   UNL     1       1.342   3.793  20.755  0.00  0.00    +0.000 A 
ATOM      7  C   UNL     1       1.623   5.106  20.348  0.00  0.00    +0.000 A 
ATOM      8  C   UNL     1       2.309   5.340  19.148  0.00  0.00    +0.000 A 
ENDBRANCH   2   3
BRANCH   1   9
ATOM      9  C   UNL     1       5.411   4.937  15.701  0.00  0.00    +0.000 C 
ATOM     10  O   UNL     1       5.406   6.025  15.149  0.00  0.00    +0.000 OA
BRANCH   9  12
ATOM     11  C   UNL     1       6.141   3.839  13.672  0.00  0.00    +0.000 C 
ATOM     12  O   UNL     1       5.893   3.857  15.027  0.00  0.00    +0.000 OA
ENDBRANCH   9  12
ENDBRANCH   1   9
BRANCH   1  13
ATOM     13  C   UNL     1       5.653   4.969  18.373  0.00  0.00    +0.000 C 
BRANCH  13  14
ATOM     14  S   UNL     1       7.475   5.060  18.117  0.00  0.00    +0.000 S 
BRANCH  14  15
ATOM     15  C   UNL     1       7.669   6.845  18.076  0.00  0.00    +0.000 C 
ATOM     16  N   UNL     1       7.122   7.527  17.135  0.00  0.00    +0.000 NA
ATOM     17  N   UNL     1       8.528   7.464  19.032  0.00  0.00    +0.000 N 
ATOM     18  H   UNL     1       6.541   7.073  16.414  0.00  0.00    +0.000 HD
ATOM     19  H   UNL     1       8.958   6.873  19.758  0.00  0.00    +0.000 HD
BRANCH  17  20
ATOM     20  N   UNL     1       8.853   8.820  19.001  0.00  0.00    +0.000 NA
ATOM     21  H   UNL     1       8.207   9.347  18.373  0.00  0.00    +0.000 HD
ATOM     22  H   UNL     1       9.818   8.900  18.607  0.00  0.00    +0.000 HD
ENDBRANCH  17  20
ENDBRANCH  14  15
ENDBRANCH  13  14
ENDBRANCH   1  13
TORSDOF 7
ENDMDL
MODEL 6
REMARK VINA RESULT:      -6.7      3.088      4.112
REMARK  Name = 
REMARK  8 active torsions:
REMARK  status: ('A' for Active; 'I' for Inactive)
REMARK    1  A    between atoms: C_1  and  O_2
REMARK    2  A    between atoms: O_2  and  C_3
REMARK    3  A    between atoms: C_3  and  C_5
REMARK    4  A    between atoms: C_5  and  C_13
REMARK    5  A    between atoms: C_6  and  C_7
REMARK    6  A    between atoms: C_13  and  S_14
REMARK    7  A    between atoms: S_14  and  C_15
REMARK    8  A    between atoms: N_17  and  N_18
REMARK                            x       y       z     vdW  Elec       q    Type
REMARK                         _______ _______ _______ _____ _____    ______ ____
ROOT
ATOM      1  C   UNL     1       4.772   5.408  17.295  0.00  0.00    +0.000 C 
ATOM      2  C   UNL     1       3.430   5.575  17.416  0.00  0.00    +0.000 C 
ENDROOT
BRANCH   2   3
ATOM      3  C   UNL     1       2.573   5.039  18.482  0.00  0.00    +0.000 A 
ATOM      4  C   UNL     1       1.884   3.841  18.239  0.00  0.00    +0.000 A 
ATOM      5  C   UNL     1       1.112   3.252  19.243  0.00  0.00    +0.000 A 
ATOM      6  C   UNL     1       1.043   3.842  20.506  0.00  0.00    +0.000 A 
ATOM      7  C   UNL     1       1.745   5.028  20.766  0.00  0.00    +0.000 A 
ATOM      8  C   UNL     1       2.506   5.631  19.756  0.00  0.00    +0.000 A 
ENDBRANCH   2   3
BRANCH   1   9
ATOM      9  C   UNL     1       5.416   6.113  16.135  0.00  0.00    +0.000 C 
ATOM     10  O   UNL     1       5.965   7.195  16.271  0.00  0.00    +0.000 OA
BRANCH   9  12
ATOM     11  C   UNL     1       6.205   4.597  14.422  0.00  0.00    +0.000 C 
ATOM     12  O   UNL     1       5.342   5.563  14.893  0.00  0.00    +0.000 OA
ENDBRANCH   9  12
ENDBRANCH   1   9
BRANCH   1  13
ATOM     13  C   UNL     1       5.553   4.595  18.343  0.00  0.00    +0.000 C 
BRANCH  13  14
ATOM     14  S   UNL     1       7.354   4.440  17.987  0.00  0.00    +0.000 S 
BRANCH  14  15
ATOM     15  C   UNL     1       7.960   5.812  18.975  0.00  0.00    +0.000 C 
ATOM     16  N   UNL     1       8.078   5.680  20.248  0.00  0.00    +0.000 NA
ATOM     17  N   UNL     1       8.192   7.067  18.339  0.00  0.00    +0.000 N 
ATOM     18  H   UNL     1       7.862   4.788  20.716  0.00  0.00    +0.000 HD
ATOM     19  H   UNL     1       8.068   7.127  17.318  0.00  0.00    +0.000 HD
BRANCH  17  20
ATOM     20  N   UNL     1       8.530   8.226  19.037  0.00  0.00    +0.000 NA
ATOM     21  H   UNL     1       9.559   8.400  19.001  0.00  0.00    +0.000 HD
ATOM     22  H   UNL     1       8.266   8.076  20.037  0.00  0.00    +0.000 HD
ENDBRANCH  17  20
ENDBRANCH  14  15
ENDBRANCH  13  14
ENDBRANCH   1  13
TORSDOF 7
ENDMDL
MODEL 7
REMARK VINA RESULT:      -6.6      3.420      4.583
REMARK  Name = 
REMARK  8 active torsions:
REMARK  status: ('A' for Active; 'I' for Inactive)
REMARK    1  A    between atoms: C_1  and  O_2
REMARK    2  A    between atoms: O_2  and  C_3
REMARK    3  A    between atoms: C_3  and  C_5
REMARK    4  A    between atoms: C_5  and  C_13
REMARK    5  A    between atoms: C_6  and  C_7
REMARK    6  A    between atoms: C_13  and  S_14
REMARK    7  A    between atoms: S_14  and  C_15
REMARK    8  A    between atoms: N_17  and  N_18
REMARK                            x       y       z     vdW  Elec       q    Type
REMARK                         _______ _______ _______ _____ _____    ______ ____
ROOT
ATOM      1  C   UNL     1       5.706   4.273  15.907  0.00  0.00    +0.000 C 
ATOM      2  C   UNL     1       4.424   3.828  15.956  0.00  0.00    +0.000 C 
ENDROOT
BRANCH   2   3
ATOM      3  C   UNL     1       3.595   3.677  17.159  0.00  0.00    +0.000 A 
ATOM      4  C   UNL     1       3.608   2.442  17.823  0.00  0.00    +0.000 A 
ATOM      5  C   UNL     1       2.892   2.268  19.010  0.00  0.00    +0.000 A 
ATOM      6  C   UNL     1       2.178   3.334  19.556  0.00  0.00    +0.000 A 
ATOM      7  C   UNL     1       2.175   4.580  18.912  0.00  0.00    +0.000 A 
ATOM      8  C   UNL     1       2.877   4.753  17.712  0.00  0.00    +0.000 A 
ENDBRANCH   2   3
BRANCH   1   9
ATOM      9  C   UNL     1       6.307   4.384  14.534  0.00  0.00    +0.000 C 
ATOM     10  O   UNL     1       7.272   5.098  14.317  0.00  0.00    +0.000 OA
BRANCH   9  12
ATOM     11  C   UNL     1       6.366   3.449  12.304  0.00  0.00    +0.000 C 
ATOM     12  O   UNL     1       5.732   3.718  13.496  0.00  0.00    +0.000 OA
ENDBRANCH   9  12
ENDBRANCH   1   9
BRANCH   1  13
ATOM     13  C   UNL     1       6.434   4.691  17.197  0.00  0.00    +0.000 C 
BRANCH  13  14
ATOM     14  S   UNL     1       6.942   6.462  17.235  0.00  0.00    +0.000 S 
BRANCH  14  15
ATOM     15  C   UNL     1       7.791   6.482  18.817  0.00  0.00    +0.000 C 
ATOM     16  N   UNL     1       8.593   7.445  19.101  0.00  0.00    +0.000 NA
ATOM     17  N   UNL     1       7.646   5.363  19.690  0.00  0.00    +0.000 N 
ATOM     18  H   UNL     1       8.737   8.231  18.449  0.00  0.00    +0.000 HD
ATOM     19  H   UNL     1       7.004   4.607  19.411  0.00  0.00    +0.000 HD
BRANCH  17  20
ATOM     20  N   UNL     1       8.367   5.220  20.875  0.00  0.00    +0.000 NA
ATOM     21  H   UNL     1       9.343   5.574  20.766  0.00  0.00    +0.000 HD
ATOM     22  H   UNL     1       8.420   4.197  21.085  0.00  0.00    +0.000 HD
ENDBRANCH  17  20
ENDBRANCH  14  15
ENDBRANCH  13  14
ENDBRANCH   1  13
TORSDOF 7
ENDMDL
MODEL 8
REMARK VINA RESULT:      -6.6      1.304      2.034
REMARK  Name = 
REMARK  8 active torsions:
REMARK  status: ('A' for Active; 'I' for Inactive)
REMARK    1  A    between atoms: C_1  and  O_2
REMARK    2  A    between atoms: O_2  and  C_3
REMARK    3  A    between atoms: C_3  and  C_5
REMARK    4  A    between atoms: C_5  and  C_13
REMARK    5  A    between atoms: C_6  and  C_7
REMARK    6  A    between atoms: C_13  and  S_14
REMARK    7  A    between atoms: S_14  and  C_15
REMARK    8  A    between atoms: N_17  and  N_18
REMARK                            x       y       z     vdW  Elec       q    Type
REMARK                         _______ _______ _______ _____ _____    ______ ____
ROOT
ATOM      1  C   UNL     1       5.960   5.197  18.115  0.00  0.00    +0.000 C 
ATOM      2  C   UNL     1       5.377   5.070  19.334  0.00  0.00    +0.000 C 
ENDROOT
BRANCH   2   3
ATOM      3  C   UNL     1       3.951   4.842  19.603  0.00  0.00    +0.000 A 
ATOM      4  C   UNL     1       3.492   3.518  19.665  0.00  0.00    +0.000 A 
ATOM      5  C   UNL     1       2.160   3.245  19.987  0.00  0.00    +0.000 A 
ATOM      6  C   UNL     1       1.283   4.291  20.275  0.00  0.00    +0.000 A 
ATOM      7  C   UNL     1       1.737   5.618  20.238  0.00  0.00    +0.000 A 
ATOM      8  C   UNL     1       3.068   5.896  19.897  0.00  0.00    +0.000 A 
ENDBRANCH   2   3
BRANCH   1   9
ATOM      9  C   UNL     1       7.452   5.369  18.118  0.00  0.00    +0.000 C 
ATOM     10  O   UNL     1       8.205   4.418  17.986  0.00  0.00    +0.000 OA
BRANCH   9  12
ATOM     11  C   UNL     1       7.594   7.739  17.648  0.00  0.00    +0.000 C 
ATOM     12  O   UNL     1       7.982   6.605  18.328  0.00  0.00    +0.000 OA
ENDBRANCH   9  12
ENDBRANCH   1   9
BRANCH   1  13
ATOM     13  C   UNL     1       5.113   5.095  16.832  0.00  0.00    +0.000 C 
BRANCH  13  14
ATOM     14  S   UNL     1       5.377   3.542  15.878  0.00  0.00    +0.000 S 
BRANCH  14  15
ATOM     15  C   UNL     1       6.354   4.201  14.522  0.00  0.00    +0.000 C 
ATOM     16  N   UNL     1       6.179   3.753  13.331  0.00  0.00    +0.000 NA
ATOM     17  N   UNL     1       7.391   5.135  14.814  0.00  0.00    +0.000 N 
ATOM     18  H   UNL     1       5.462   3.041  13.126  0.00  0.00    +0.000 HD
ATOM     19  H   UNL     1       7.503   5.452  15.788  0.00  0.00    +0.000 HD
BRANCH  17  20
ATOM     20  N   UNL     1       8.291   5.601  13.856  0.00  0.00    +0.000 NA
ATOM     21  H   UNL     1       7.962   5.379  12.891  0.00  0.00    +0.000 HD
ATOM     22  H   UNL     1       9.196   5.100  14.008  0.00  0.00    +0.000 HD
ENDBRANCH  17  20
ENDBRANCH  14  15
ENDBRANCH  13  14
ENDBRANCH   1  13
TORSDOF 7
ENDMDL
MODEL 9
REMARK VINA RESULT:      -6.6      1.190      2.199
REMARK  Name = 
REMARK  8 active torsions:
REMARK  status: ('A' for Active; 'I' for Inactive)
REMARK    1  A    between atoms: C_1  and  O_2
REMARK    2  A    between atoms: O_2  and  C_3
REMARK    3  A    between atoms: C_3  and  C_5
REMARK    4  A    between atoms: C_5  and  C_13
REMARK    5  A    between atoms: C_6  and  C_7
REMARK    6  A    between atoms: C_13  and  S_14
REMARK    7  A    between atoms: S_14  and  C_15
REMARK    8  A    between atoms: N_17  and  N_18
REMARK                            x       y       z     vdW  Elec       q    Type
REMARK                         _______ _______ _______ _____ _____    ______ ____
ROOT
ATOM      1  C   UNL     1       5.657   5.562  17.132  0.00  0.00    +0.000 C 
ATOM      2  C   UNL     1       4.977   5.074  18.200  0.00  0.00    +0.000 C 
ENDROOT
BRANCH   2   3
ATOM      3  C   UNL     1       3.764   4.246  18.162  0.00  0.00    +0.000 A 
ATOM      4  C   UNL     1       3.907   2.855  18.269  0.00  0.00    +0.000 A 
ATOM      5  C   UNL     1       2.782   2.028  18.308  0.00  0.00    +0.000 A 
ATOM      6  C   UNL     1       1.504   2.587  18.266  0.00  0.00    +0.000 A 
ATOM      7  C   UNL     1       1.349   3.978  18.180  0.00  0.00    +0.000 A 
ATOM      8  C   UNL     1       2.476   4.809  18.122  0.00  0.00    +0.000 A 
ENDBRANCH   2   3
BRANCH   1   9
ATOM      9  C   UNL     1       6.904   6.338  17.450  0.00  0.00    +0.000 C 
ATOM     10  O   UNL     1       7.609   6.803  16.569  0.00  0.00    +0.000 OA
BRANCH   9  12
ATOM     11  C   UNL     1       8.187   5.653  19.384  0.00  0.00    +0.000 C 
ATOM     12  O   UNL     1       7.290   6.482  18.747  0.00  0.00    +0.000 OA
ENDBRANCH   9  12
ENDBRANCH   1   9
BRANCH   1  13
ATOM     13  C   UNL     1       5.182   5.256  15.700  0.00  0.00    +0.000 C 
BRANCH  13  14
ATOM     14  S   UNL     1       5.888   3.712  14.986  0.00  0.00    +0.000 S 
BRANCH  14  15
ATOM     15  C   UNL     1       6.873   4.430  13.667  0.00  0.00    +0.000 C 
ATOM     16  N   UNL     1       6.794   3.952  12.477  0.00  0.00    +0.000 NA
ATOM     17  N   UNL     1       7.816   5.450  13.991  0.00  0.00    +0.000 N 
ATOM     18  H   UNL     1       6.148   3.181  12.251  0.00  0.00    +0.000 HD
ATOM     19  H   UNL     1       7.853   5.789  14.963  0.00  0.00    +0.000 HD
BRANCH  17  20
ATOM     20  N   UNL     1       8.721   5.974  13.069  0.00  0.00    +0.000 NA
ATOM     21  H   UNL     1       9.544   5.344  12.950  0.00  0.00    +0.000 HD
ATOM     22  H   UNL     1       9.067   6.883  13.454  0.00  0.00    +0.000 HD
ENDBRANCH  17  20
ENDBRANCH  14  15
ENDBRANCH  13  14
ENDBRANCH   1  13
TORSDOF 7
ENDMDL
