MODEL 1
REMARK VINA RESULT:      -7.4      0.000      0.000
REMARK  Name = 
REMARK  5 active torsions:
REMARK  status: ('A' for Active; 'I' for Inactive)
REMARK    1  A    between atoms: C_1  and  C_2
REMARK    2  A    between atoms: N_9  and  S_10
REMARK    3  A    between atoms: S_10  and  C_13
REMARK    4  A    between atoms: C_17  and  C_18
REMARK    5  A    between atoms: C_18  and  O_20
REMARK                            x       y       z     vdW  Elec       q    Type
REMARK                         _______ _______ _______ _____ _____    ______ ____
ROOT
ATOM      1  S   UNL     1       3.149   3.192  17.463  0.00  0.00    +0.000 S 
ATOM      2  O   UNL     1       3.628   1.874  17.825  0.00  0.00    +0.000 OA
ATOM      3  O   UNL     1       2.201   3.364  16.374  0.00  0.00    +0.000 OA
ENDROOT
BRANCH   1  12
ATOM      4  C   UNL     1       1.399   9.034  20.935  0.00  0.00    +0.000 C 
ATOM      5  C   UNL     1       1.703   7.712  20.289  0.00  0.00    +0.000 A 
ATOM      6  C   UNL     1       2.203   7.633  18.989  0.00  0.00    +0.000 A 
ATOM      7  C   UNL     1       2.503   6.398  18.388  0.00  0.00    +0.000 A 
ATOM      8  C   UNL     1       2.264   5.219  19.118  0.00  0.00    +0.000 A 
ATOM      9  C   UNL     1       1.722   5.280  20.413  0.00  0.00    +0.000 A 
ATOM     10  C   UNL     1       1.518   3.950  20.866  0.00  0.00    +0.000 A 
ATOM     11  C   UNL     1       1.895   3.107  19.850  0.00  0.00    +0.000 A 
ATOM     12  N   UNL     1       2.416   3.870  18.838  0.00  0.00    +0.000 N 
ATOM     13  C   UNL     1       1.459   6.532  21.002  0.00  0.00    +0.000 A 
ENDBRANCH   1  12
BRANCH   1  14
ATOM     14  C   UNL     1       4.587   4.027  16.918  0.00  0.00    +0.000 A 
ATOM     15  C   UNL     1       4.827   4.227  15.513  0.00  0.00    +0.000 A 
ATOM     16  C   UNL     1       6.067   4.756  15.252  0.00  0.00    +0.000 A 
ATOM     17  S   UNL     1       6.934   5.059  16.680  0.00  0.00    +0.000 S 
ATOM     18  C   UNL     1       5.674   4.433  17.685  0.00  0.00    +0.000 A 
BRANCH  18  19
ATOM     19  C   UNL     1       5.888   4.375  19.123  0.00  0.00    +0.000 C 
ATOM     20  O   UNL     1       6.423   5.238  19.797  0.00  0.00    +0.000 OA
BRANCH  19  21
ATOM     21  O   UNL     1       5.461   3.219  19.695  0.00  0.00    +0.000 OA
ATOM     22  H   UNL     1       5.317   3.308  20.657  0.00  0.00    +0.000 HD
ENDBRANCH  19  21
ENDBRANCH  18  19
ENDBRANCH   1  14
TORSDOF 4
ENDMDL
MODEL 2
REMARK VINA RESULT:      -7.2      2.181      5.836
REMARK  Name = 
REMARK  5 active torsions:
REMARK  status: ('A' for Active; 'I' for Inactive)
REMARK    1  A    between atoms: C_1  and  C_2
REMARK    2  A    between atoms: N_9  and  S_10
REMARK    3  A    between atoms: S_10  and  C_13
REMARK    4  A    between atoms: C_17  and  C_18
REMARK    5  A    between atoms: C_18  and  O_20
REMARK                            x       y       z     vdW  Elec       q    Type
REMARK                         _______ _______ _______ _____ _____    ______ ____
ROOT
ATOM      1  S   UNL     1       4.235   3.642  18.877  0.00  0.00    +0.000 S 
ATOM      2  O   UNL     1       3.464   2.875  17.921  0.00  0.00    +0.000 OA
ATOM      3  O   UNL     1       4.741   3.023  20.091  0.00  0.00    +0.000 OA
ENDROOT
BRANCH   1  12
ATOM      4  C   UNL     1       7.362   4.879  12.718  0.00  0.00    +0.000 C 
ATOM      5  C   UNL     1       6.798   4.684  14.096  0.00  0.00    +0.000 A 
ATOM      6  C   UNL     1       5.486   4.253  14.293  0.00  0.00    +0.000 A 
ATOM      7  C   UNL     1       4.960   4.055  15.581  0.00  0.00    +0.000 A 
ATOM      8  C   UNL     1       5.781   4.326  16.692  0.00  0.00    +0.000 A 
ATOM      9  C   UNL     1       7.091   4.802  16.511  0.00  0.00    +0.000 A 
ATOM     10  C   UNL     1       7.644   5.061  17.793  0.00  0.00    +0.000 A 
ATOM     11  C   UNL     1       6.674   4.783  18.723  0.00  0.00    +0.000 A 
ATOM     12  N   UNL     1       5.590   4.267  18.064  0.00  0.00    +0.000 N 
ATOM     13  C   UNL     1       7.602   4.962  15.208  0.00  0.00    +0.000 A 
ENDBRANCH   1  12
BRANCH   1  14
ATOM     14  C   UNL     1       3.108   4.852  19.450  0.00  0.00    +0.000 A 
ATOM     15  C   UNL     1       3.220   6.220  19.016  0.00  0.00    +0.000 A 
ATOM     16  C   UNL     1       2.361   7.064  19.676  0.00  0.00    +0.000 A 
ATOM     17  S   UNL     1       1.386   6.225  20.785  0.00  0.00    +0.000 S 
ATOM     18  C   UNL     1       2.137   4.707  20.437  0.00  0.00    +0.000 A 
BRANCH  18  19
ATOM     19  C   UNL     1       1.721   3.531  21.186  0.00  0.00    +0.000 C 
ATOM     20  O   UNL     1       2.242   3.118  22.207  0.00  0.00    +0.000 OA
BRANCH  19  21
ATOM     21  O   UNL     1       0.678   2.865  20.625  0.00  0.00    +0.000 OA
ATOM     22  H   UNL     1       0.830   1.902  20.579  0.00  0.00    +0.000 HD
ENDBRANCH  19  21
ENDBRANCH  18  19
ENDBRANCH   1  14
TORSDOF 4
ENDMDL
MODEL 3
REMARK VINA RESULT:      -7.1      1.420      1.916
REMARK  Name = 
REMARK  5 active torsions:
REMARK  status: ('A' for Active; 'I' for Inactive)
REMARK    1  A    between atoms: C_1  and  C_2
REMARK    2  A    between atoms: N_9  and  S_10
REMARK    3  A    between atoms: S_10  and  C_13
REMARK    4  A    between atoms: C_17  and  C_18
REMARK    5  A    between atoms: C_18  and  O_20
REMARK                            x       y       z     vdW  Elec       q    Type
REMARK                         _______ _______ _______ _____ _____    ______ ____
ROOT
ATOM      1  S   UNL     1       4.497   3.711  18.599  0.00  0.00    +0.000 S 
ATOM      2  O   UNL     1       5.588   3.584  19.542  0.00  0.00    +0.000 OA
ATOM      3  O   UNL     1       3.734   2.545  18.184  0.00  0.00    +0.000 OA
ENDROOT
BRANCH   1  12
ATOM      4  C   UNL     1       1.617  10.103  18.294  0.00  0.00    +0.000 C 
ATOM      5  C   UNL     1       2.140   8.704  18.459  0.00  0.00    +0.000 A 
ATOM      6  C   UNL     1       3.000   8.132  17.521  0.00  0.00    +0.000 A 
ATOM      7  C   UNL     1       3.503   6.829  17.681  0.00  0.00    +0.000 A 
ATOM      8  C   UNL     1       3.101   6.086  18.806  0.00  0.00    +0.000 A 
ATOM      9  C   UNL     1       2.202   6.632  19.738  0.00  0.00    +0.000 A 
ATOM     10  C   UNL     1       1.919   5.637  20.709  0.00  0.00    +0.000 A 
ATOM     11  C   UNL     1       2.604   4.504  20.350  0.00  0.00    +0.000 A 
ATOM     12  N   UNL     1       3.373   4.803  19.256  0.00  0.00    +0.000 N 
ATOM     13  C   UNL     1       1.737   7.952  19.569  0.00  0.00    +0.000 A 
ENDBRANCH   1  12
BRANCH   1  14
ATOM     14  C   UNL     1       5.273   4.261  17.130  0.00  0.00    +0.000 A 
ATOM     15  C   UNL     1       4.745   3.894  15.843  0.00  0.00    +0.000 A 
ATOM     16  C   UNL     1       5.556   4.275  14.802  0.00  0.00    +0.000 A 
ATOM     17  S   UNL     1       6.930   5.109  15.350  0.00  0.00    +0.000 S 
ATOM     18  C   UNL     1       6.488   4.931  17.012  0.00  0.00    +0.000 A 
BRANCH  18  19
ATOM     19  C   UNL     1       7.388   5.440  18.036  0.00  0.00    +0.000 C 
ATOM     20  O   UNL     1       7.486   6.605  18.380  0.00  0.00    +0.000 OA
BRANCH  19  21
ATOM     21  O   UNL     1       8.180   4.487  18.592  0.00  0.00    +0.000 OA
ATOM     22  H   UNL     1       9.129   4.709  18.535  0.00  0.00    +0.000 HD
ENDBRANCH  19  21
ENDBRANCH  18  19
ENDBRANCH   1  14
TORSDOF 4
ENDMDL
MODEL 4
REMARK VINA RESULT:      -7.0      0.915      1.105
REMARK  Name = 
REMARK  5 active torsions:
REMARK  status: ('A' for Active; 'I' for Inactive)
REMARK    1  A    between atoms: C_1  and  C_2
REMARK    2  A    between atoms: N_9  and  S_10
REMARK    3  A    between atoms: S_10  and  C_13
REMARK    4  A    between atoms: C_17  and  C_18
REMARK    5  A    between atoms: C_18  and  O_20
REMARK                            x       y       z     vdW  Elec       q    Type
REMARK                         _______ _______ _______ _____ _____    ______ ____
ROOT
ATOM      1  S   UNL     1       3.535   3.527  17.805  0.00  0.00    +0.000 S 
ATOM      2  O   UNL     1       4.196   2.434  18.487  0.00  0.00    +0.000 OA
ATOM      3  O   UNL     1       2.496   3.268  16.821  0.00  0.00    +0.000 OA
ENDROOT
BRANCH   1  12
ATOM      4  C   UNL     1       1.264   9.939  19.527  0.00  0.00    +0.000 C 
ATOM      5  C   UNL     1       1.699   8.523  19.280  0.00  0.00    +0.000 A 
ATOM      6  C   UNL     1       2.097   8.091  18.015  0.00  0.00    +0.000 A 
ATOM      7  C   UNL     1       2.519   6.770  17.785  0.00  0.00    +0.000 A 
ATOM      8  C   UNL     1       2.510   5.865  18.862  0.00  0.00    +0.000 A 
ATOM      9  C   UNL     1       2.072   6.272  20.133  0.00  0.00    +0.000 A 
ATOM     10  C   UNL     1       2.096   5.140  20.989  0.00  0.00    +0.000 A 
ATOM     11  C   UNL     1       2.504   4.066  20.239  0.00  0.00    +0.000 A 
ATOM     12  N   UNL     1       2.828   4.520  18.988  0.00  0.00    +0.000 N 
ATOM     13  C   UNL     1       1.683   7.610  20.342  0.00  0.00    +0.000 A 
ENDBRANCH   1  12
BRANCH   1  14
ATOM     14  C   UNL     1       4.816   4.286  16.886  0.00  0.00    +0.000 A 
ATOM     15  C   UNL     1       4.795   4.266  15.448  0.00  0.00    +0.000 A 
ATOM     16  C   UNL     1       5.945   4.766  14.888  0.00  0.00    +0.000 A 
ATOM     17  S   UNL     1       7.039   5.301  16.072  0.00  0.00    +0.000 S 
ATOM     18  C   UNL     1       6.005   4.823  17.373  0.00  0.00    +0.000 A 
BRANCH  18  19
ATOM     19  C   UNL     1       6.473   4.995  18.740  0.00  0.00    +0.000 C 
ATOM     20  O   UNL     1       5.805   5.404  19.673  0.00  0.00    +0.000 OA
BRANCH  19  21
ATOM     21  O   UNL     1       7.785   4.686  18.913  0.00  0.00    +0.000 OA
ATOM     22  H   UNL     1       8.345   5.478  19.025  0.00  0.00    +0.000 HD
ENDBRANCH  19  21
ENDBRANCH  18  19
ENDBRANCH   1  14
TORSDOF 4
ENDMDL
MODEL 5
REMARK VINA RESULT:      -6.9      2.387      5.281
REMARK  Name = 
REMARK  5 active torsions:
REMARK  status: ('A' for Active; 'I' for Inactive)
REMARK    1  A    between atoms: C_1  and  C_2
REMARK    2  A    between atoms: N_9  and  S_10
REMARK    3  A    between atoms: S_10  and  C_13
REMARK    4  A    between atoms: C_17  and  C_18
REMARK    5  A    between atoms: C_18  and  O_20
REMARK                            x       y       z     vdW  Elec       q    Type
REMARK                         _______ _______ _______ _____ _____    ______ ____
ROOT
ATOM      1  S   UNL     1       4.250   2.475  18.775  0.00  0.00    +0.000 S 
ATOM      2  O   UNL     1       3.619   1.429  17.997  0.00  0.00    +0.000 OA
ATOM      3  O   UNL     1       5.286   2.157  19.744  0.00  0.00    +0.000 OA
ENDROOT
BRANCH   1  12
ATOM      4  C   UNL     1       8.255   8.172  17.910  0.00  0.00    +0.000 C 
ATOM      5  C   UNL     1       7.394   6.941  17.956  0.00  0.00    +0.000 A 
ATOM      6  C   UNL     1       7.211   6.223  19.138  0.00  0.00    +0.000 A 
ATOM      7  C   UNL     1       6.394   5.080  19.187  0.00  0.00    +0.000 A 
ATOM      8  C   UNL     1       5.771   4.648  18.001  0.00  0.00    +0.000 A 
ATOM      9  C   UNL     1       5.979   5.335  16.794  0.00  0.00    +0.000 A 
ATOM     10  C   UNL     1       5.299   4.632  15.765  0.00  0.00    +0.000 A 
ATOM     11  C   UNL     1       4.725   3.523  16.335  0.00  0.00    +0.000 A 
ATOM     12  N   UNL     1       4.942   3.581  17.687  0.00  0.00    +0.000 N 
ATOM     13  C   UNL     1       6.779   6.495  16.780  0.00  0.00    +0.000 A 
ENDBRANCH   1  12
BRANCH   1  14
ATOM     14  C   UNL     1       2.944   3.126  19.741  0.00  0.00    +0.000 A 
ATOM     15  C   UNL     1       2.731   2.665  21.088  0.00  0.00    +0.000 A 
ATOM     16  C   UNL     1       1.579   3.159  21.648  0.00  0.00    +0.000 A 
ATOM     17  S   UNL     1       0.766   4.207  20.588  0.00  0.00    +0.000 S 
ATOM     18  C   UNL     1       1.926   3.979  19.327  0.00  0.00    +0.000 A 
BRANCH  18  19
ATOM     19  C   UNL     1       1.708   4.637  18.047  0.00  0.00    +0.000 C 
ATOM     20  O   UNL     1       1.064   4.185  17.116  0.00  0.00    +0.000 OA
BRANCH  19  21
ATOM     21  O   UNL     1       2.332   5.839  17.936  0.00  0.00    +0.000 OA
ATOM     22  H   UNL     1       2.233   6.232  17.047  0.00  0.00    +0.000 HD
ENDBRANCH  19  21
ENDBRANCH  18  19
ENDBRANCH   1  14
TORSDOF 4
ENDMDL
MODEL 6
REMARK VINA RESULT:      -6.9      2.465      3.935
REMARK  Name = 
REMARK  5 active torsions:
REMARK  status: ('A' for Active; 'I' for Inactive)
REMARK    1  A    between atoms: C_1  and  C_2
REMARK    2  A    between atoms: N_9  and  S_10
REMARK    3  A    between atoms: S_10  and  C_13
REMARK    4  A    between atoms: C_17  and  C_18
REMARK    5  A    between atoms: C_18  and  O_20
REMARK                            x       y       z     vdW  Elec       q    Type
REMARK                         _______ _______ _______ _____ _____    ______ ____
ROOT
ATOM      1  S   UNL     1       3.794   5.847  18.440  0.00  0.00    +0.000 S 
ATOM      2  O   UNL     1       4.393   5.728  17.127  0.00  0.00    +0.000 OA
ATOM      3  O   UNL     1       4.621   5.866  19.635  0.00  0.00    +0.000 OA
ENDROOT
BRANCH   1  12
ATOM      4  C   UNL     1      -0.589   9.990  22.027  0.00  0.00    +0.000 C 
ATOM      5  C   UNL     1       0.354   9.203  21.162  0.00  0.00    +0.000 A 
ATOM      6  C   UNL     1       1.030   8.084  21.649  0.00  0.00    +0.000 A 
ATOM      7  C   UNL     1       1.901   7.338  20.838  0.00  0.00    +0.000 A 
ATOM      8  C   UNL     1       2.106   7.755  19.509  0.00  0.00    +0.000 A 
ATOM      9  C   UNL     1       1.466   8.904  19.016  0.00  0.00    +0.000 A 
ATOM     10  C   UNL     1       1.920   9.123  17.689  0.00  0.00    +0.000 A 
ATOM     11  C   UNL     1       2.843   8.149  17.403  0.00  0.00    +0.000 A 
ATOM     12  N   UNL     1       2.890   7.285  18.466  0.00  0.00    +0.000 N 
ATOM     13  C   UNL     1       0.574   9.616  19.842  0.00  0.00    +0.000 A 
ENDBRANCH   1  12
BRANCH   1  14
ATOM     14  C   UNL     1       2.842   4.387  18.600  0.00  0.00    +0.000 A 
ATOM     15  C   UNL     1       1.430   4.400  18.325  0.00  0.00    +0.000 A 
ATOM     16  C   UNL     1       0.809   3.219  18.648  0.00  0.00    +0.000 A 
ATOM     17  S   UNL     1       1.912   2.072  19.241  0.00  0.00    +0.000 S 
ATOM     18  C   UNL     1       3.249   3.163  19.124  0.00  0.00    +0.000 A 
BRANCH  18  19
ATOM     19  C   UNL     1       4.557   2.721  19.583  0.00  0.00    +0.000 C 
ATOM     20  O   UNL     1       4.765   1.974  20.524  0.00  0.00    +0.000 OA
BRANCH  19  21
ATOM     21  O   UNL     1       5.592   3.249  18.879  0.00  0.00    +0.000 OA
ATOM     22  H   UNL     1       6.393   2.692  18.916  0.00  0.00    +0.000 HD
ENDBRANCH  19  21
ENDBRANCH  18  19
ENDBRANCH   1  14
TORSDOF 4
ENDMDL
MODEL 7
REMARK VINA RESULT:      -6.8      1.843      2.545
REMARK  Name = 
REMARK  5 active torsions:
REMARK  status: ('A' for Active; 'I' for Inactive)
REMARK    1  A    between atoms: C_1  and  C_2
REMARK    2  A    between atoms: N_9  and  S_10
REMARK    3  A    between atoms: S_10  and  C_13
REMARK    4  A    between atoms: C_17  and  C_18
REMARK    5  A    between atoms: C_18  and  O_20
REMARK                            x       y       z     vdW  Elec       q    Type
REMARK                         _______ _______ _______ _____ _____    ______ ____
ROOT
ATOM      1  S   UNL     1       4.437   4.077  18.453  0.00  0.00    +0.000 S 
ATOM      2  O   UNL     1       4.938   2.934  19.185  0.00  0.00    +0.000 OA
ATOM      3  O   UNL     1       3.856   3.916  17.130  0.00  0.00    +0.000 OA
ENDROOT
BRANCH   1  12
ATOM      4  C   UNL     1       0.714   9.874  19.786  0.00  0.00    +0.000 C 
ATOM      5  C   UNL     1       1.432   8.568  19.596  0.00  0.00    +0.000 A 
ATOM      6  C   UNL     1       2.271   8.350  18.503  0.00  0.00    +0.000 A 
ATOM      7  C   UNL     1       2.956   7.134  18.330  0.00  0.00    +0.000 A 
ATOM      8  C   UNL     1       2.762   6.113  19.279  0.00  0.00    +0.000 A 
ATOM      9  C   UNL     1       1.887   6.302  20.362  0.00  0.00    +0.000 A 
ATOM     10  C   UNL     1       1.830   5.088  21.097  0.00  0.00    +0.000 A 
ATOM     11  C   UNL     1       2.624   4.177  20.448  0.00  0.00    +0.000 A 
ATOM     12  N   UNL     1       3.243   4.818  19.407  0.00  0.00    +0.000 N 
ATOM     13  C   UNL     1       1.237   7.541  20.527  0.00  0.00    +0.000 A 
ENDBRANCH   1  12
BRANCH   1  14
ATOM     14  C   UNL     1       5.861   5.057  18.178  0.00  0.00    +0.000 A 
ATOM     15  C   UNL     1       6.786   5.319  19.249  0.00  0.00    +0.000 A 
ATOM     16  C   UNL     1       7.758   6.226  18.908  0.00  0.00    +0.000 A 
ATOM     17  S   UNL     1       7.601   6.739  17.297  0.00  0.00    +0.000 S 
ATOM     18  C   UNL     1       6.182   5.785  17.036  0.00  0.00    +0.000 A 
BRANCH  18  19
ATOM     19  C   UNL     1       5.509   5.867  15.749  0.00  0.00    +0.000 C 
ATOM     20  O   UNL     1       4.975   6.860  15.288  0.00  0.00    +0.000 OA
BRANCH  19  21
ATOM     21  O   UNL     1       5.483   4.691  15.069  0.00  0.00    +0.000 OA
ATOM     22  H   UNL     1       5.222   3.937  15.633  0.00  0.00    +0.000 HD
ENDBRANCH  19  21
ENDBRANCH  18  19
ENDBRANCH   1  14
TORSDOF 4
ENDMDL
MODEL 8
REMARK VINA RESULT:      -6.8      2.031      3.092
REMARK  Name = 
REMARK  5 active torsions:
REMARK  status: ('A' for Active; 'I' for Inactive)
REMARK    1  A    between atoms: C_1  and  C_2
REMARK    2  A    between atoms: N_9  and  S_10
REMARK    3  A    between atoms: S_10  and  C_13
REMARK    4  A    between atoms: C_17  and  C_18
REMARK    5  A    between atoms: C_18  and  O_20
REMARK                            x       y       z     vdW  Elec       q    Type
REMARK                         _______ _______ _______ _____ _____    ______ ____
ROOT
ATOM      1  S   UNL     1       3.909   5.403  18.506  0.00  0.00    +0.000 S 
ATOM      2  O   UNL     1       4.784   5.400  19.659  0.00  0.00    +0.000 OA
ATOM      3  O   UNL     1       2.848   4.417  18.376  0.00  0.00    +0.000 OA
ENDROOT
BRANCH   1  12
ATOM      4  C   UNL     1      -0.435   9.971  21.589  0.00  0.00    +0.000 C 
ATOM      5  C   UNL     1       0.520   9.092  20.834  0.00  0.00    +0.000 A 
ATOM      6  C   UNL     1       1.024   7.916  21.390  0.00  0.00    +0.000 A 
ATOM      7  C   UNL     1       1.906   7.084  20.679  0.00  0.00    +0.000 A 
ATOM      8  C   UNL     1       2.302   7.472  19.386  0.00  0.00    +0.000 A 
ATOM      9  C   UNL     1       1.838   8.675  18.829  0.00  0.00    +0.000 A 
ATOM     10  C   UNL     1       2.461   8.842  17.564  0.00  0.00    +0.000 A 
ATOM     11  C   UNL     1       3.311   7.781  17.381  0.00  0.00    +0.000 A 
ATOM     12  N   UNL     1       3.152   6.923  18.437  0.00  0.00    +0.000 N 
ATOM     13  C   UNL     1       0.930   9.475  19.551  0.00  0.00    +0.000 A 
ENDBRANCH   1  12
BRANCH   1  14
ATOM     14  C   UNL     1       4.979   5.061  17.165  0.00  0.00    +0.000 A 
ATOM     15  C   UNL     1       4.690   3.984  16.255  0.00  0.00    +0.000 A 
ATOM     16  C   UNL     1       5.703   3.753  15.358  0.00  0.00    +0.000 A 
ATOM     17  S   UNL     1       6.987   4.845  15.567  0.00  0.00    +0.000 S 
ATOM     18  C   UNL     1       6.225   5.625  16.909  0.00  0.00    +0.000 A 
BRANCH  18  19
ATOM     19  C   UNL     1       6.937   6.692  17.596  0.00  0.00    +0.000 C 
ATOM     20  O   UNL     1       7.075   7.832  17.187  0.00  0.00    +0.000 OA
BRANCH  19  21
ATOM     21  O   UNL     1       7.499   6.308  18.772  0.00  0.00    +0.000 OA
ATOM     22  H   UNL     1       7.186   6.841  19.528  0.00  0.00    +0.000 HD
ENDBRANCH  19  21
ENDBRANCH  18  19
ENDBRANCH   1  14
TORSDOF 4
ENDMDL
MODEL 9
REMARK VINA RESULT:      -6.7      2.455      5.541
REMARK  Name = 
REMARK  5 active torsions:
REMARK  status: ('A' for Active; 'I' for Inactive)
REMARK    1  A    between atoms: C_1  and  C_2
REMARK    2  A    between atoms: N_9  and  S_10
REMARK    3  A    between atoms: S_10  and  C_13
REMARK    4  A    between atoms: C_17  and  C_18
REMARK    5  A    between atoms: C_18  and  O_20
REMARK                            x       y       z     vdW  Elec       q    Type
REMARK                         _______ _______ _______ _____ _____    ______ ____
ROOT
ATOM      1  S   UNL     1       2.608   4.107  17.753  0.00  0.00    +0.000 S 
ATOM      2  O   UNL     1       1.736   5.258  17.647  0.00  0.00    +0.000 OA
ATOM      3  O   UNL     1       2.448   2.968  16.863  0.00  0.00    +0.000 OA
ENDROOT
BRANCH   1  12
ATOM      4  C   UNL     1       8.008   4.982  13.357  0.00  0.00    +0.000 C 
ATOM      5  C   UNL     1       6.927   4.863  14.393  0.00  0.00    +0.000 A 
ATOM      6  C   UNL     1       5.627   4.487  14.053  0.00  0.00    +0.000 A 
ATOM      7  C   UNL     1       4.618   4.360  15.023  0.00  0.00    +0.000 A 
ATOM      8  C   UNL     1       4.935   4.647  16.364  0.00  0.00    +0.000 A 
ATOM      9  C   UNL     1       6.228   5.068  16.718  0.00  0.00    +0.000 A 
ATOM     10  C   UNL     1       6.230   5.359  18.107  0.00  0.00    +0.000 A 
ATOM     11  C   UNL     1       4.956   5.154  18.572  0.00  0.00    +0.000 A 
ATOM     12  N   UNL     1       4.204   4.650  17.543  0.00  0.00    +0.000 N 
ATOM     13  C   UNL     1       7.228   5.157  15.729  0.00  0.00    +0.000 A 
ENDBRANCH   1  12
BRANCH   1  14
ATOM     14  C   UNL     1       2.262   3.462  19.342  0.00  0.00    +0.000 A 
ATOM     15  C   UNL     1       1.172   3.986  20.122  0.00  0.00    +0.000 A 
ATOM     16  C   UNL     1       1.134   3.481  21.398  0.00  0.00    +0.000 A 
ATOM     17  S   UNL     1       2.372   2.348  21.662  0.00  0.00    +0.000 S 
ATOM     18  C   UNL     1       3.020   2.551  20.071  0.00  0.00    +0.000 A 
BRANCH  18  19
ATOM     19  C   UNL     1       4.223   1.818  19.706  0.00  0.00    +0.000 C 
ATOM     20  O   UNL     1       5.260   1.791  20.345  0.00  0.00    +0.000 OA
BRANCH  19  21
ATOM     21  O   UNL     1       4.123   1.156  18.524  0.00  0.00    +0.000 OA
ATOM     22  H   UNL     1       3.264   1.304  18.083  0.00  0.00    +0.000 HD
ENDBRANCH  19  21
ENDBRANCH  18  19
ENDBRANCH   1  14
TORSDOF 4
ENDMDL
