MODEL 1
REMARK VINA RESULT:      -6.1      0.000      0.000
REMARK  Name = 
REMARK  7 active torsions:
REMARK  status: ('A' for Active; 'I' for Inactive)
REMARK    1  A    between atoms: C_1  and  C_2
REMARK    2  A    between atoms: C_2  and  C_3
REMARK    3  A    between atoms: C_2  and  N_4
REMARK    4  A    between atoms: N_4  and  C_5
REMARK    5  A    between atoms: C_5  and  C_6
REMARK    6  A    between atoms: C_6  and  S_7
REMARK    7  A    between atoms: S_7  and  C_10
REMARK                            x       y       z     vdW  Elec       q    Type
REMARK                         _______ _______ _______ _____ _____    ______ ____
ROOT
ATOM      1  S   UNL     1       5.432   4.537  19.150  0.00  0.00    +0.000 S 
ATOM      2  O   UNL     1       6.494   5.276  19.804  0.00  0.00    +0.000 OA
ATOM      3  O   UNL     1       5.127   3.175  19.544  0.00  0.00    +0.000 OA
ENDROOT
BRANCH   1   4
ATOM      4  C   UNL     1       5.793   4.525  17.413  0.00  0.00    +0.000 A 
ATOM      5  C   UNL     1       7.105   4.743  16.984  0.00  0.00    +0.000 A 
ATOM      6  C   UNL     1       7.378   4.784  15.618  0.00  0.00    +0.000 A 
ATOM      7  C   UNL     1       6.349   4.594  14.695  0.00  0.00    +0.000 A 
ATOM      8  C   UNL     1       5.047   4.343  15.132  0.00  0.00    +0.000 A 
ATOM      9  C   UNL     1       4.764   4.300  16.496  0.00  0.00    +0.000 A 
ENDBRANCH   1   4
BRANCH   1  10
ATOM     10  C   UNL     1       3.933   5.510  19.242  0.00  0.00    +0.000 C 
BRANCH  10  11
ATOM     11  C   UNL     1       2.971   4.834  20.206  0.00  0.00    +0.000 C 
BRANCH  11  12
ATOM     12  N   UNL     1       1.619   4.707  19.643  0.00  0.00    +0.000 NA
ATOM     13  H   UNL     1       1.003   5.399  20.075  0.00  0.00    +0.000 HD
BRANCH  12  15
ATOM     14  C   UNL     1       1.574   2.411  18.807  0.00  0.00    +0.000 C 
ATOM     15  C   UNL     1       1.042   3.368  19.879  0.00  0.00    +0.000 C 
ATOM     16  C   UNL     1       1.375   2.806  21.263  0.00  0.00    +0.000 C 
ENDBRANCH  12  15
ENDBRANCH  11  12
ENDBRANCH  10  11
ENDBRANCH   1  10
TORSDOF 5
ENDMDL
MODEL 2
REMARK VINA RESULT:      -6.1      2.585      3.183
REMARK  Name = 
REMARK  7 active torsions:
REMARK  status: ('A' for Active; 'I' for Inactive)
REMARK    1  A    between atoms: C_1  and  C_2
REMARK    2  A    between atoms: C_2  and  C_3
REMARK    3  A    between atoms: C_2  and  N_4
REMARK    4  A    between atoms: N_4  and  C_5
REMARK    5  A    between atoms: C_5  and  C_6
REMARK    6  A    between atoms: C_6  and  S_7
REMARK    7  A    between atoms: S_7  and  C_10
REMARK                            x       y       z     vdW  Elec       q    Type
REMARK                         _______ _______ _______ _____ _____    ______ ____
ROOT
ATOM      1  S   UNL     1       7.140   5.344  16.374  0.00  0.00    +0.000 S 
ATOM      2  O   UNL     1       7.573   6.728  16.347  0.00  0.00    +0.000 OA
ATOM      3  O   UNL     1       7.913   4.341  17.081  0.00  0.00    +0.000 OA
ENDROOT
BRANCH   1   4
ATOM      4  C   UNL     1       6.982   4.810  14.690  0.00  0.00    +0.000 A 
ATOM      5  C   UNL     1       7.817   5.362  13.714  0.00  0.00    +0.000 A 
ATOM      6  C   UNL     1       7.657   4.979  12.384  0.00  0.00    +0.000 A 
ATOM      7  C   UNL     1       6.681   4.043  12.039  0.00  0.00    +0.000 A 
ATOM      8  C   UNL     1       5.873   3.471  13.024  0.00  0.00    +0.000 A 
ATOM      9  C   UNL     1       6.026   3.847  14.358  0.00  0.00    +0.000 A 
ENDBRANCH   1   4
BRANCH   1  10
ATOM     10  C   UNL     1       5.454   5.294  16.971  0.00  0.00    +0.000 C 
BRANCH  10  11
ATOM     11  C   UNL     1       5.473   4.994  18.461  0.00  0.00    +0.000 C 
BRANCH  11  12
ATOM     12  N   UNL     1       5.523   3.550  18.735  0.00  0.00    +0.000 NA
ATOM     13  H   UNL     1       5.786   3.050  17.883  0.00  0.00    +0.000 HD
BRANCH  12  15
ATOM     14  C   UNL     1       3.568   2.262  18.035  0.00  0.00    +0.000 C 
ATOM     15  C   UNL     1       4.220   3.025  19.192  0.00  0.00    +0.000 C 
ATOM     16  C   UNL     1       4.336   2.097  20.403  0.00  0.00    +0.000 C 
ENDBRANCH  12  15
ENDBRANCH  11  12
ENDBRANCH  10  11
ENDBRANCH   1  10
TORSDOF 5
ENDMDL
MODEL 3
REMARK VINA RESULT:      -6.0      2.480      3.633
REMARK  Name = 
REMARK  7 active torsions:
REMARK  status: ('A' for Active; 'I' for Inactive)
REMARK    1  A    between atoms: C_1  and  C_2
REMARK    2  A    between atoms: C_2  and  C_3
REMARK    3  A    between atoms: C_2  and  N_4
REMARK    4  A    between atoms: N_4  and  C_5
REMARK    5  A    between atoms: C_5  and  C_6
REMARK    6  A    between atoms: C_6  and  S_7
REMARK    7  A    between atoms: S_7  and  C_10
REMARK                            x       y       z     vdW  Elec       q    Type
REMARK                         _______ _______ _______ _____ _____    ______ ____
ROOT
ATOM      1  S   UNL     1       5.456   4.524  18.711  0.00  0.00    +0.000 S 
ATOM      2  O   UNL     1       6.426   4.871  19.732  0.00  0.00    +0.000 OA
ATOM      3  O   UNL     1       5.874   4.302  17.340  0.00  0.00    +0.000 OA
ENDROOT
BRANCH   1   4
ATOM      4  C   UNL     1       4.226   5.803  18.698  0.00  0.00    +0.000 A 
ATOM      5  C   UNL     1       3.331   5.903  19.766  0.00  0.00    +0.000 A 
ATOM      6  C   UNL     1       2.333   6.876  19.730  0.00  0.00    +0.000 A 
ATOM      7  C   UNL     1       2.245   7.746  18.642  0.00  0.00    +0.000 A 
ATOM      8  C   UNL     1       3.165   7.661  17.595  0.00  0.00    +0.000 A 
ATOM      9  C   UNL     1       4.167   6.692  17.622  0.00  0.00    +0.000 A 
ENDBRANCH   1   4
BRANCH   1  10
ATOM     10  C   UNL     1       4.541   3.092  19.270  0.00  0.00    +0.000 C 
BRANCH  10  11
ATOM     11  C   UNL     1       3.663   2.599  18.131  0.00  0.00    +0.000 C 
BRANCH  11  12
ATOM     12  N   UNL     1       2.500   1.840  18.616  0.00  0.00    +0.000 NA
ATOM     13  H   UNL     1       2.374   1.005  18.038  0.00  0.00    +0.000 HD
BRANCH  12  15
ATOM     14  C   UNL     1       0.901   3.089  19.975  0.00  0.00    +0.000 C 
ATOM     15  C   UNL     1       1.255   2.631  18.557  0.00  0.00    +0.000 C 
ATOM     16  C   UNL     1       1.364   3.856  17.646  0.00  0.00    +0.000 C 
ENDBRANCH  12  15
ENDBRANCH  11  12
ENDBRANCH  10  11
ENDBRANCH   1  10
TORSDOF 5
ENDMDL
MODEL 4
REMARK VINA RESULT:      -6.0      0.337      1.575
REMARK  Name = 
REMARK  7 active torsions:
REMARK  status: ('A' for Active; 'I' for Inactive)
REMARK    1  A    between atoms: C_1  and  C_2
REMARK    2  A    between atoms: C_2  and  C_3
REMARK    3  A    between atoms: C_2  and  N_4
REMARK    4  A    between atoms: N_4  and  C_5
REMARK    5  A    between atoms: C_5  and  C_6
REMARK    6  A    between atoms: C_6  and  S_7
REMARK    7  A    between atoms: S_7  and  C_10
REMARK                            x       y       z     vdW  Elec       q    Type
REMARK                         _______ _______ _______ _____ _____    ______ ____
ROOT
ATOM      1  S   UNL     1       5.471   4.622  19.110  0.00  0.00    +0.000 S 
ATOM      2  O   UNL     1       6.583   5.290  19.760  0.00  0.00    +0.000 OA
ATOM      3  O   UNL     1       5.082   3.282  19.503  0.00  0.00    +0.000 OA
ENDROOT
BRANCH   1   4
ATOM      4  C   UNL     1       5.822   4.591  17.371  0.00  0.00    +0.000 A 
ATOM      5  C   UNL     1       4.783   4.354  16.466  0.00  0.00    +0.000 A 
ATOM      6  C   UNL     1       5.069   4.279  15.105  0.00  0.00    +0.000 A 
ATOM      7  C   UNL     1       6.378   4.455  14.655  0.00  0.00    +0.000 A 
ATOM      8  C   UNL     1       7.405   4.725  15.562  0.00  0.00    +0.000 A 
ATOM      9  C   UNL     1       7.129   4.803  16.926  0.00  0.00    +0.000 A 
ENDBRANCH   1   4
BRANCH   1  10
ATOM     10  C   UNL     1       4.038   5.688  19.211  0.00  0.00    +0.000 C 
BRANCH  10  11
ATOM     11  C   UNL     1       3.025   5.056  20.152  0.00  0.00    +0.000 C 
BRANCH  11  12
ATOM     12  N   UNL     1       1.893   4.460  19.427  0.00  0.00    +0.000 NA
ATOM     13  H   UNL     1       1.027   4.929  19.702  0.00  0.00    +0.000 HD
BRANCH  12  15
ATOM     14  C   UNL     1       1.256   2.856  21.157  0.00  0.00    +0.000 C 
ATOM     15  C   UNL     1       1.745   3.019  19.715  0.00  0.00    +0.000 C 
ATOM     16  C   UNL     1       0.767   2.315  18.770  0.00  0.00    +0.000 C 
ENDBRANCH  12  15
ENDBRANCH  11  12
ENDBRANCH  10  11
ENDBRANCH   1  10
TORSDOF 5
ENDMDL
MODEL 5
REMARK VINA RESULT:      -6.0      2.493      3.638
REMARK  Name = 
REMARK  7 active torsions:
REMARK  status: ('A' for Active; 'I' for Inactive)
REMARK    1  A    between atoms: C_1  and  C_2
REMARK    2  A    between atoms: C_2  and  C_3
REMARK    3  A    between atoms: C_2  and  N_4
REMARK    4  A    between atoms: N_4  and  C_5
REMARK    5  A    between atoms: C_5  and  C_6
REMARK    6  A    between atoms: C_6  and  S_7
REMARK    7  A    between atoms: S_7  and  C_10
REMARK                            x       y       z     vdW  Elec       q    Type
REMARK                         _______ _______ _______ _____ _____    ______ ____
ROOT
ATOM      1  S   UNL     1       5.321   4.428  18.439  0.00  0.00    +0.000 S 
ATOM      2  O   UNL     1       6.443   4.800  19.279  0.00  0.00    +0.000 OA
ATOM      3  O   UNL     1       5.514   4.147  17.029  0.00  0.00    +0.000 OA
ENDROOT
BRANCH   1   4
ATOM      4  C   UNL     1       4.116   5.724  18.568  0.00  0.00    +0.000 A 
ATOM      5  C   UNL     1       3.982   6.642  17.523  0.00  0.00    +0.000 A 
ATOM      6  C   UNL     1       3.071   7.689  17.647  0.00  0.00    +0.000 A 
ATOM      7  C   UNL     1       2.293   7.804  18.800  0.00  0.00    +0.000 A 
ATOM      8  C   UNL     1       2.409   6.863  19.825  0.00  0.00    +0.000 A 
ATOM      9  C   UNL     1       3.316   5.812  19.710  0.00  0.00    +0.000 A 
ENDBRANCH   1   4
BRANCH   1  10
ATOM     10  C   UNL     1       4.492   3.033  19.193  0.00  0.00    +0.000 C 
BRANCH  10  11
ATOM     11  C   UNL     1       3.621   2.358  18.146  0.00  0.00    +0.000 C 
BRANCH  11  12
ATOM     12  N   UNL     1       2.453   1.692  18.742  0.00  0.00    +0.000 NA
ATOM     13  H   UNL     1       2.274   0.814  18.250  0.00  0.00    +0.000 HD
BRANCH  12  15
ATOM     14  C   UNL     1       0.906   3.051  20.056  0.00  0.00    +0.000 C 
ATOM     15  C   UNL     1       1.235   2.522  18.657  0.00  0.00    +0.000 C 
ATOM     16  C   UNL     1       1.379   3.703  17.694  0.00  0.00    +0.000 C 
ENDBRANCH  12  15
ENDBRANCH  11  12
ENDBRANCH  10  11
ENDBRANCH   1  10
TORSDOF 5
ENDMDL
MODEL 6
REMARK VINA RESULT:      -5.9      2.444      5.790
REMARK  Name = 
REMARK  7 active torsions:
REMARK  status: ('A' for Active; 'I' for Inactive)
REMARK    1  A    between atoms: C_1  and  C_2
REMARK    2  A    between atoms: C_2  and  C_3
REMARK    3  A    between atoms: C_2  and  N_4
REMARK    4  A    between atoms: N_4  and  C_5
REMARK    5  A    between atoms: C_5  and  C_6
REMARK    6  A    between atoms: C_6  and  S_7
REMARK    7  A    between atoms: S_7  and  C_10
REMARK                            x       y       z     vdW  Elec       q    Type
REMARK                         _______ _______ _______ _____ _____    ______ ____
ROOT
ATOM      1  S   UNL     1       4.709   4.109  18.017  0.00  0.00    +0.000 S 
ATOM      2  O   UNL     1       4.536   3.253  16.859  0.00  0.00    +0.000 OA
ATOM      3  O   UNL     1       5.799   3.885  18.946  0.00  0.00    +0.000 OA
ENDROOT
BRANCH   1   4
ATOM      4  C   UNL     1       3.195   4.053  18.941  0.00  0.00    +0.000 A 
ATOM      5  C   UNL     1       2.301   3.000  18.730  0.00  0.00    +0.000 A 
ATOM      6  C   UNL     1       1.090   2.985  19.420  0.00  0.00    +0.000 A 
ATOM      7  C   UNL     1       0.788   4.006  20.321  0.00  0.00    +0.000 A 
ATOM      8  C   UNL     1       1.701   5.037  20.552  0.00  0.00    +0.000 A 
ATOM      9  C   UNL     1       2.915   5.061  19.868  0.00  0.00    +0.000 A 
ENDBRANCH   1   4
BRANCH   1  10
ATOM     10  C   UNL     1       4.773   5.806  17.455  0.00  0.00    +0.000 C 
BRANCH  10  11
ATOM     11  C   UNL     1       5.813   5.916  16.351  0.00  0.00    +0.000 C 
BRANCH  11  12
ATOM     12  N   UNL     1       7.184   5.948  16.881  0.00  0.00    +0.000 NA
ATOM     13  H   UNL     1       7.442   5.017  17.216  0.00  0.00    +0.000 HD
BRANCH  12  15
ATOM     14  C   UNL     1       8.157   6.229  19.105  0.00  0.00    +0.000 C 
ATOM     15  C   UNL     1       7.322   6.895  18.006  0.00  0.00    +0.000 C 
ATOM     16  C   UNL     1       7.984   8.215  17.603  0.00  0.00    +0.000 C 
ENDBRANCH  12  15
ENDBRANCH  11  12
ENDBRANCH  10  11
ENDBRANCH   1  10
TORSDOF 5
ENDMDL
MODEL 7
REMARK VINA RESULT:      -5.9      1.532      1.958
REMARK  Name = 
REMARK  7 active torsions:
REMARK  status: ('A' for Active; 'I' for Inactive)
REMARK    1  A    between atoms: C_1  and  C_2
REMARK    2  A    between atoms: C_2  and  C_3
REMARK    3  A    between atoms: C_2  and  N_4
REMARK    4  A    between atoms: N_4  and  C_5
REMARK    5  A    between atoms: C_5  and  C_6
REMARK    6  A    between atoms: C_6  and  S_7
REMARK    7  A    between atoms: S_7  and  C_10
REMARK                            x       y       z     vdW  Elec       q    Type
REMARK                         _______ _______ _______ _____ _____    ______ ____
ROOT
ATOM      1  S   UNL     1       5.146   4.868  19.253  0.00  0.00    +0.000 S 
ATOM      2  O   UNL     1       4.088   5.753  19.699  0.00  0.00    +0.000 OA
ATOM      3  O   UNL     1       6.482   4.972  19.809  0.00  0.00    +0.000 OA
ENDROOT
BRANCH   1   4
ATOM      4  C   UNL     1       5.281   5.055  17.494  0.00  0.00    +0.000 A 
ATOM      5  C   UNL     1       5.591   3.942  16.707  0.00  0.00    +0.000 A 
ATOM      6  C   UNL     1       5.747   4.101  15.332  0.00  0.00    +0.000 A 
ATOM      7  C   UNL     1       5.578   5.359  14.751  0.00  0.00    +0.000 A 
ATOM      8  C   UNL     1       5.235   6.459  15.539  0.00  0.00    +0.000 A 
ATOM      9  C   UNL     1       5.077   6.310  16.916  0.00  0.00    +0.000 A 
ENDBRANCH   1   4
BRANCH   1  10
ATOM     10  C   UNL     1       4.580   3.180  19.434  0.00  0.00    +0.000 C 
BRANCH  10  11
ATOM     11  C   UNL     1       3.487   3.143  20.491  0.00  0.00    +0.000 C 
BRANCH  11  12
ATOM     12  N   UNL     1       2.213   3.678  19.989  0.00  0.00    +0.000 NA
ATOM     13  H   UNL     1       1.456   3.403  20.619  0.00  0.00    +0.000 HD
BRANCH  12  15
ATOM     14  C   UNL     1       0.667   2.260  18.736  0.00  0.00    +0.000 C 
ATOM     15  C   UNL     1       1.892   3.175  18.638  0.00  0.00    +0.000 C 
ATOM     16  C   UNL     1       1.605   4.293  17.632  0.00  0.00    +0.000 C 
ENDBRANCH  12  15
ENDBRANCH  11  12
ENDBRANCH  10  11
ENDBRANCH   1  10
TORSDOF 5
ENDMDL
MODEL 8
REMARK VINA RESULT:      -5.9      2.007      2.658
REMARK  Name = 
REMARK  7 active torsions:
REMARK  status: ('A' for Active; 'I' for Inactive)
REMARK    1  A    between atoms: C_1  and  C_2
REMARK    2  A    between atoms: C_2  and  C_3
REMARK    3  A    between atoms: C_2  and  N_4
REMARK    4  A    between atoms: N_4  and  C_5
REMARK    5  A    between atoms: C_5  and  C_6
REMARK    6  A    between atoms: C_6  and  S_7
REMARK    7  A    between atoms: S_7  and  C_10
REMARK                            x       y       z     vdW  Elec       q    Type
REMARK                         _______ _______ _______ _____ _____    ______ ____
ROOT
ATOM      1  S   UNL     1       4.316   4.696  18.754  0.00  0.00    +0.000 S 
ATOM      2  O   UNL     1       3.310   5.576  19.316  0.00  0.00    +0.000 OA
ATOM      3  O   UNL     1       4.735   3.503  19.464  0.00  0.00    +0.000 OA
ENDROOT
BRANCH   1   4
ATOM      4  C   UNL     1       5.763   5.677  18.450  0.00  0.00    +0.000 A 
ATOM      5  C   UNL     1       6.896   5.491  19.247  0.00  0.00    +0.000 A 
ATOM      6  C   UNL     1       8.014   6.297  19.040  0.00  0.00    +0.000 A 
ATOM      7  C   UNL     1       8.000   7.267  18.037  0.00  0.00    +0.000 A 
ATOM      8  C   UNL     1       6.876   7.424  17.224  0.00  0.00    +0.000 A 
ATOM      9  C   UNL     1       5.753   6.622  17.422  0.00  0.00    +0.000 A 
ENDBRANCH   1   4
BRANCH   1  10
ATOM     10  C   UNL     1       3.795   4.228  17.107  0.00  0.00    +0.000 C 
BRANCH  10  11
ATOM     11  C   UNL     1       2.662   3.222  17.221  0.00  0.00    +0.000 C 
BRANCH  11  12
ATOM     12  N   UNL     1       1.455   3.811  17.821  0.00  0.00    +0.000 NA
ATOM     13  H   UNL     1       1.686   4.723  18.223  0.00  0.00    +0.000 HD
BRANCH  12  15
ATOM     14  C   UNL     1       1.783   1.725  19.048  0.00  0.00    +0.000 C 
ATOM     15  C   UNL     1       0.897   2.964  18.894  0.00  0.00    +0.000 C 
ATOM     16  C   UNL     1       0.803   3.685  20.241  0.00  0.00    +0.000 C 
ENDBRANCH  12  15
ENDBRANCH  11  12
ENDBRANCH  10  11
ENDBRANCH   1  10
TORSDOF 5
ENDMDL
MODEL 9
REMARK VINA RESULT:      -5.8      1.458      2.061
REMARK  Name = 
REMARK  7 active torsions:
REMARK  status: ('A' for Active; 'I' for Inactive)
REMARK    1  A    between atoms: C_1  and  C_2
REMARK    2  A    between atoms: C_2  and  C_3
REMARK    3  A    between atoms: C_2  and  N_4
REMARK    4  A    between atoms: N_4  and  C_5
REMARK    5  A    between atoms: C_5  and  C_6
REMARK    6  A    between atoms: C_6  and  S_7
REMARK    7  A    between atoms: S_7  and  C_10
REMARK                            x       y       z     vdW  Elec       q    Type
REMARK                         _______ _______ _______ _____ _____    ______ ____
ROOT
ATOM      1  S   UNL     1       5.252   4.989  19.152  0.00  0.00    +0.000 S 
ATOM      2  O   UNL     1       4.143   5.899  19.365  0.00  0.00    +0.000 OA
ATOM      3  O   UNL     1       6.478   5.126  19.913  0.00  0.00    +0.000 OA
ENDROOT
BRANCH   1   4
ATOM      4  C   UNL     1       5.677   5.073  17.431  0.00  0.00    +0.000 A 
ATOM      5  C   UNL     1       4.910   5.869  16.574  0.00  0.00    +0.000 A 
ATOM      6  C   UNL     1       5.214   5.894  15.214  0.00  0.00    +0.000 A 
ATOM      7  C   UNL     1       6.282   5.142  14.723  0.00  0.00    +0.000 A 
ATOM      8  C   UNL     1       7.064   4.377  15.591  0.00  0.00    +0.000 A 
ATOM      9  C   UNL     1       6.769   4.346  16.953  0.00  0.00    +0.000 A 
ENDBRANCH   1   4
BRANCH   1  10
ATOM     10  C   UNL     1       4.648   3.315  19.334  0.00  0.00    +0.000 C 
BRANCH  10  11
ATOM     11  C   UNL     1       3.228   3.247  18.794  0.00  0.00    +0.000 C 
BRANCH  11  12
ATOM     12  N   UNL     1       2.439   2.188  19.441  0.00  0.00    +0.000 NA
ATOM     13  H   UNL     1       1.989   1.613  18.725  0.00  0.00    +0.000 HD
BRANCH  12  15
ATOM     14  C   UNL     1       1.835   2.587  21.774  0.00  0.00    +0.000 C 
ATOM     15  C   UNL     1       1.386   2.737  20.318  0.00  0.00    +0.000 C 
ATOM     16  C   UNL     1       1.077   4.210  20.037  0.00  0.00    +0.000 C 
ENDBRANCH  12  15
ENDBRANCH  11  12
ENDBRANCH  10  11
ENDBRANCH   1  10
TORSDOF 5
ENDMDL
