MODEL 1
REMARK VINA RESULT:      -7.8      0.000      0.000
REMARK  Name = 
REMARK  5 active torsions:
REMARK  status: ('A' for Active; 'I' for Inactive)
REMARK    1  A    between atoms: C_1  and  O_2
REMARK    2  A    between atoms: O_2  and  N_3
REMARK    3  A    between atoms: C_4  and  C_5
REMARK    4  A    between atoms: C_4  and  C_7
REMARK    5  A    between atoms: C_13  and  C_14
REMARK                            x       y       z     vdW  Elec       q    Type
REMARK                         _______ _______ _______ _____ _____    ______ ____
ROOT
ATOM      1  C   UNL     1       4.511   3.171  19.100  0.00  0.00    +0.000 C 
ATOM      2  O   UNL     1       3.558   3.209  18.338  0.00  0.00    +0.000 OA
ATOM      3  N   UNL     1       5.737   3.784  18.919  0.00  0.00    +0.000 N 
ATOM      4  C   UNL     1       6.110   4.501  17.831  0.00  0.00    +0.000 C 
ATOM      5  N   UNL     1       7.281   5.032  17.777  0.00  0.00    +0.000 NA
ATOM      6  O   UNL     1       7.378   5.701  16.532  0.00  0.00    +0.000 OA
ATOM      7  C   UNL     1       6.146   5.541  15.799  0.00  0.00    +0.000 C 
ATOM      8  C   UNL     1       5.224   4.720  16.667  0.00  0.00    +0.000 C 
ATOM      9  H   UNL     1       6.444   3.674  19.638  0.00  0.00    +0.000 HD
ENDROOT
BRANCH   7  10
ATOM     10  C   UNL     1       6.394   4.913  14.443  0.00  0.00    +0.000 A 
ATOM     11  C   UNL     1       7.497   5.275  13.657  0.00  0.00    +0.000 A 
ATOM     12  C   UNL     1       7.681   4.720  12.390  0.00  0.00    +0.000 A 
ATOM     13  C   UNL     1       6.772   3.783  11.900  0.00  0.00    +0.000 A 
ATOM     14  C   UNL     1       5.695   3.382  12.687  0.00  0.00    +0.000 A 
ATOM     15  C   UNL     1       5.510   3.936  13.955  0.00  0.00    +0.000 A 
ENDBRANCH   7  10
BRANCH   1  17
ATOM     16  N   UNL     1       5.338   1.600  20.757  0.00  0.00    +0.000 NA
ATOM     17  C   UNL     1       4.376   2.399  20.384  0.00  0.00    +0.000 C 
BRANCH  16  19
ATOM     18  C   UNL     1       6.081   0.014  22.252  0.00  0.00    +0.000 C 
ATOM     19  O   UNL     1       5.037   0.935  21.957  0.00  0.00    +0.000 OA
ENDBRANCH  16  19
BRANCH  17  20
ATOM     20  C   UNL     1       3.197   2.538  21.206  0.00  0.00    +0.000 C 
ATOM     21  N   UNL     1       2.255   2.626  21.885  0.00  0.00    +0.000 NA
ENDBRANCH  17  20
ENDBRANCH   1  17
TORSDOF 4
ENDMDL
MODEL 2
REMARK VINA RESULT:      -7.8      0.050      1.080
REMARK  Name = 
REMARK  5 active torsions:
REMARK  status: ('A' for Active; 'I' for Inactive)
REMARK    1  A    between atoms: C_1  and  O_2
REMARK    2  A    between atoms: O_2  and  N_3
REMARK    3  A    between atoms: C_4  and  C_5
REMARK    4  A    between atoms: C_4  and  C_7
REMARK    5  A    between atoms: C_13  and  C_14
REMARK                            x       y       z     vdW  Elec       q    Type
REMARK                         _______ _______ _______ _____ _____    ______ ____
ROOT
ATOM      1  C   UNL     1       4.496   3.174  19.095  0.00  0.00    +0.000 C 
ATOM      2  O   UNL     1       3.531   3.255  18.352  0.00  0.00    +0.000 OA
ATOM      3  N   UNL     1       5.739   3.746  18.895  0.00  0.00    +0.000 N 
ATOM      4  C   UNL     1       6.115   4.463  17.808  0.00  0.00    +0.000 C 
ATOM      5  N   UNL     1       7.303   4.953  17.736  0.00  0.00    +0.000 NA
ATOM      6  O   UNL     1       7.398   5.634  16.498  0.00  0.00    +0.000 OA
ATOM      7  C   UNL     1       6.147   5.526  15.788  0.00  0.00    +0.000 C 
ATOM      8  C   UNL     1       5.214   4.727  16.665  0.00  0.00    +0.000 C 
ATOM      9  H   UNL     1       6.457   3.603  19.599  0.00  0.00    +0.000 HD
ENDROOT
BRANCH   7  10
ATOM     10  C   UNL     1       6.345   4.907  14.420  0.00  0.00    +0.000 A 
ATOM     11  C   UNL     1       5.433   3.979  13.896  0.00  0.00    +0.000 A 
ATOM     12  C   UNL     1       5.659   3.385  12.653  0.00  0.00    +0.000 A 
ATOM     13  C   UNL     1       6.790   3.722  11.913  0.00  0.00    +0.000 A 
ATOM     14  C   UNL     1       7.683   4.673  12.402  0.00  0.00    +0.000 A 
ATOM     15  C   UNL     1       7.458   5.270  13.644  0.00  0.00    +0.000 A 
ENDBRANCH   7  10
BRANCH   1  17
ATOM     16  N   UNL     1       5.321   1.588  20.738  0.00  0.00    +0.000 NA
ATOM     17  C   UNL     1       4.360   2.391  20.372  0.00  0.00    +0.000 C 
BRANCH  16  19
ATOM     18  C   UNL     1       6.085   0.023  22.245  0.00  0.00    +0.000 C 
ATOM     19  O   UNL     1       5.020   0.912  21.932  0.00  0.00    +0.000 OA
ENDBRANCH  16  19
BRANCH  17  20
ATOM     20  C   UNL     1       3.181   2.524  21.195  0.00  0.00    +0.000 C 
ATOM     21  N   UNL     1       2.248   2.638  21.882  0.00  0.00    +0.000 NA
ENDBRANCH  17  20
ENDBRANCH   1  17
TORSDOF 4
ENDMDL
MODEL 3
REMARK VINA RESULT:      -7.4      1.120      2.127
REMARK  Name = 
REMARK  5 active torsions:
REMARK  status: ('A' for Active; 'I' for Inactive)
REMARK    1  A    between atoms: C_1  and  O_2
REMARK    2  A    between atoms: O_2  and  N_3
REMARK    3  A    between atoms: C_4  and  C_5
REMARK    4  A    between atoms: C_4  and  C_7
REMARK    5  A    between atoms: C_13  and  C_14
REMARK                            x       y       z     vdW  Elec       q    Type
REMARK                         _______ _______ _______ _____ _____    ______ ____
ROOT
ATOM      1  C   UNL     1       4.252   3.687  18.842  0.00  0.00    +0.000 C 
ATOM      2  O   UNL     1       3.348   4.049  18.106  0.00  0.00    +0.000 OA
ATOM      3  N   UNL     1       5.608   3.855  18.627  0.00  0.00    +0.000 N 
ATOM      4  C   UNL     1       6.171   4.415  17.529  0.00  0.00    +0.000 C 
ATOM      5  N   UNL     1       7.451   4.523  17.443  0.00  0.00    +0.000 NA
ATOM      6  O   UNL     1       7.734   5.131  16.196  0.00  0.00    +0.000 OA
ATOM      7  C   UNL     1       6.502   5.399  15.496  0.00  0.00    +0.000 C 
ATOM      8  C   UNL     1       5.380   4.928  16.389  0.00  0.00    +0.000 C 
ATOM      9  H   UNL     1       6.256   3.509  19.327  0.00  0.00    +0.000 HD
ENDROOT
BRANCH   7  10
ATOM     10  C   UNL     1       6.490   4.736  14.135  0.00  0.00    +0.000 A 
ATOM     11  C   UNL     1       5.475   3.842  13.763  0.00  0.00    +0.000 A 
ATOM     12  C   UNL     1       5.508   3.206  12.521  0.00  0.00    +0.000 A 
ATOM     13  C   UNL     1       6.546   3.467  11.630  0.00  0.00    +0.000 A 
ATOM     14  C   UNL     1       7.538   4.385  11.968  0.00  0.00    +0.000 A 
ATOM     15  C   UNL     1       7.506   5.023  13.209  0.00  0.00    +0.000 A 
ENDBRANCH   7  10
BRANCH   1  17
ATOM     16  N   UNL     1       2.783   3.294  20.735  0.00  0.00    +0.000 NA
ATOM     17  C   UNL     1       3.900   2.995  20.130  0.00  0.00    +0.000 C 
BRANCH  16  19
ATOM     18  C   UNL     1       1.239   2.369  22.171  0.00  0.00    +0.000 C 
ATOM     19  O   UNL     1       2.625   2.582  21.936  0.00  0.00    +0.000 OA
ENDBRANCH  16  19
BRANCH  17  20
ATOM     20  C   UNL     1       4.782   2.003  20.698  0.00  0.00    +0.000 C 
ATOM     21  N   UNL     1       5.470   1.184  21.160  0.00  0.00    +0.000 NA
ENDBRANCH  17  20
ENDBRANCH   1  17
TORSDOF 4
ENDMDL
MODEL 4
REMARK VINA RESULT:      -7.4      1.129      1.843
REMARK  Name = 
REMARK  5 active torsions:
REMARK  status: ('A' for Active; 'I' for Inactive)
REMARK    1  A    between atoms: C_1  and  O_2
REMARK    2  A    between atoms: O_2  and  N_3
REMARK    3  A    between atoms: C_4  and  C_5
REMARK    4  A    between atoms: C_4  and  C_7
REMARK    5  A    between atoms: C_13  and  C_14
REMARK                            x       y       z     vdW  Elec       q    Type
REMARK                         _______ _______ _______ _____ _____    ______ ____
ROOT
ATOM      1  C   UNL     1       4.303   3.709  18.837  0.00  0.00    +0.000 C 
ATOM      2  O   UNL     1       3.411   4.082  18.091  0.00  0.00    +0.000 OA
ATOM      3  N   UNL     1       5.662   3.865  18.639  0.00  0.00    +0.000 N 
ATOM      4  C   UNL     1       6.244   4.424  17.550  0.00  0.00    +0.000 C 
ATOM      5  N   UNL     1       7.526   4.520  17.480  0.00  0.00    +0.000 NA
ATOM      6  O   UNL     1       7.830   5.132  16.240  0.00  0.00    +0.000 OA
ATOM      7  C   UNL     1       6.609   5.415  15.527  0.00  0.00    +0.000 C 
ATOM      8  C   UNL     1       5.472   4.950  16.404  0.00  0.00    +0.000 C 
ATOM      9  H   UNL     1       6.298   3.509  19.345  0.00  0.00    +0.000 HD
ENDROOT
BRANCH   7  10
ATOM     10  C   UNL     1       6.607   4.759  14.162  0.00  0.00    +0.000 A 
ATOM     11  C   UNL     1       7.587   5.056  13.203  0.00  0.00    +0.000 A 
ATOM     12  C   UNL     1       7.539   4.476  11.935  0.00  0.00    +0.000 A 
ATOM     13  C   UNL     1       6.521   3.580  11.614  0.00  0.00    +0.000 A 
ATOM     14  C   UNL     1       5.566   3.242  12.570  0.00  0.00    +0.000 A 
ATOM     15  C   UNL     1       5.612   3.821  13.840  0.00  0.00    +0.000 A 
ENDBRANCH   7  10
BRANCH   1  17
ATOM     16  N   UNL     1       2.804   3.317  20.707  0.00  0.00    +0.000 NA
ATOM     17  C   UNL     1       3.928   3.013  20.117  0.00  0.00    +0.000 C 
BRANCH  16  19
ATOM     18  C   UNL     1       1.233   2.441  22.144  0.00  0.00    +0.000 C 
ATOM     19  O   UNL     1       2.625   2.601  21.903  0.00  0.00    +0.000 OA
ENDBRANCH  16  19
BRANCH  17  20
ATOM     20  C   UNL     1       4.796   2.014  20.693  0.00  0.00    +0.000 C 
ATOM     21  N   UNL     1       5.476   1.203  21.180  0.00  0.00    +0.000 NA
ENDBRANCH  17  20
ENDBRANCH   1  17
TORSDOF 4
ENDMDL
MODEL 5
REMARK VINA RESULT:      -7.2      2.260      2.800
REMARK  Name = 
REMARK  5 active torsions:
REMARK  status: ('A' for Active; 'I' for Inactive)
REMARK    1  A    between atoms: C_1  and  O_2
REMARK    2  A    between atoms: O_2  and  N_3
REMARK    3  A    between atoms: C_4  and  C_5
REMARK    4  A    between atoms: C_4  and  C_7
REMARK    5  A    between atoms: C_13  and  C_14
REMARK                            x       y       z     vdW  Elec       q    Type
REMARK                         _______ _______ _______ _____ _____    ______ ____
ROOT
ATOM      1  C   UNL     1       3.782   5.587  18.693  0.00  0.00    +0.000 C 
ATOM      2  O   UNL     1       3.375   6.358  17.839  0.00  0.00    +0.000 OA
ATOM      3  N   UNL     1       4.993   4.920  18.691  0.00  0.00    +0.000 N 
ATOM      4  C   UNL     1       5.925   4.975  17.709  0.00  0.00    +0.000 C 
ATOM      5  N   UNL     1       7.023   4.312  17.821  0.00  0.00    +0.000 NA
ATOM      6  O   UNL     1       7.781   4.560  16.651  0.00  0.00    +0.000 OA
ATOM      7  C   UNL     1       7.052   5.450  15.781  0.00  0.00    +0.000 C 
ATOM      8  C   UNL     1       5.754   5.778  16.478  0.00  0.00    +0.000 C 
ATOM      9  H   UNL     1       5.210   4.307  19.471  0.00  0.00    +0.000 HD
ENDROOT
BRANCH   7  10
ATOM     10  C   UNL     1       6.846   4.832  14.414  0.00  0.00    +0.000 A 
ATOM     11  C   UNL     1       5.789   3.946  14.160  0.00  0.00    +0.000 A 
ATOM     12  C   UNL     1       5.646   3.351  12.906  0.00  0.00    +0.000 A 
ATOM     13  C   UNL     1       6.547   3.647  11.885  0.00  0.00    +0.000 A 
ATOM     14  C   UNL     1       7.576   4.559  12.109  0.00  0.00    +0.000 A 
ATOM     15  C   UNL     1       7.721   5.155  13.363  0.00  0.00    +0.000 A 
ENDBRANCH   7  10
BRANCH   1  17
ATOM     16  N   UNL     1       2.921   4.125  20.430  0.00  0.00    +0.000 NA
ATOM     17  C   UNL     1       2.914   5.313  19.890  0.00  0.00    +0.000 C 
BRANCH  16  19
ATOM     18  C   UNL     1       1.458   2.731  21.534  0.00  0.00    +0.000 C 
ATOM     19  O   UNL     1       2.032   4.032  21.515  0.00  0.00    +0.000 OA
ENDBRANCH  16  19
BRANCH  17  20
ATOM     20  C   UNL     1       2.078   6.351  20.446  0.00  0.00    +0.000 C 
ATOM     21  N   UNL     1       1.380   7.170  20.893  0.00  0.00    +0.000 NA
ENDBRANCH  17  20
ENDBRANCH   1  17
TORSDOF 4
ENDMDL
MODEL 6
REMARK VINA RESULT:      -7.2      2.232      2.562
REMARK  Name = 
REMARK  5 active torsions:
REMARK  status: ('A' for Active; 'I' for Inactive)
REMARK    1  A    between atoms: C_1  and  O_2
REMARK    2  A    between atoms: O_2  and  N_3
REMARK    3  A    between atoms: C_4  and  C_5
REMARK    4  A    between atoms: C_4  and  C_7
REMARK    5  A    between atoms: C_13  and  C_14
REMARK                            x       y       z     vdW  Elec       q    Type
REMARK                         _______ _______ _______ _____ _____    ______ ____
ROOT
ATOM      1  C   UNL     1       3.790   5.564  18.693  0.00  0.00    +0.000 C 
ATOM      2  O   UNL     1       3.365   6.312  17.827  0.00  0.00    +0.000 OA
ATOM      3  N   UNL     1       5.019   4.929  18.703  0.00  0.00    +0.000 N 
ATOM      4  C   UNL     1       5.951   4.994  17.721  0.00  0.00    +0.000 C 
ATOM      5  N   UNL     1       7.065   4.362  17.845  0.00  0.00    +0.000 NA
ATOM      6  O   UNL     1       7.819   4.612  16.673  0.00  0.00    +0.000 OA
ATOM      7  C   UNL     1       7.069   5.470  15.789  0.00  0.00    +0.000 C 
ATOM      8  C   UNL     1       5.762   5.774  16.479  0.00  0.00    +0.000 C 
ATOM      9  H   UNL     1       5.249   4.333  19.492  0.00  0.00    +0.000 HD
ENDROOT
BRANCH   7  10
ATOM     10  C   UNL     1       6.882   4.827  14.430  0.00  0.00    +0.000 A 
ATOM     11  C   UNL     1       7.738   5.118  13.357  0.00  0.00    +0.000 A 
ATOM     12  C   UNL     1       7.519   4.551  12.100  0.00  0.00    +0.000 A 
ATOM     13  C   UNL     1       6.454   3.675  11.905  0.00  0.00    +0.000 A 
ATOM     14  C   UNL     1       5.622   3.343  12.972  0.00  0.00    +0.000 A 
ATOM     15  C   UNL     1       5.839   3.909  14.230  0.00  0.00    +0.000 A 
ENDBRANCH   7  10
BRANCH   1  17
ATOM     16  N   UNL     1       2.962   4.105  20.448  0.00  0.00    +0.000 NA
ATOM     17  C   UNL     1       2.927   5.285  19.892  0.00  0.00    +0.000 C 
BRANCH  16  19
ATOM     18  C   UNL     1       1.518   2.695  21.558  0.00  0.00    +0.000 C 
ATOM     19  O   UNL     1       2.074   4.004  21.532  0.00  0.00    +0.000 OA
ENDBRANCH  16  19
BRANCH  17  20
ATOM     20  C   UNL     1       2.066   6.310  20.434  0.00  0.00    +0.000 C 
ATOM     21  N   UNL     1       1.382   7.130  20.899  0.00  0.00    +0.000 NA
ENDBRANCH  17  20
ENDBRANCH   1  17
TORSDOF 4
ENDMDL
MODEL 7
REMARK VINA RESULT:      -7.2      4.563      7.446
REMARK  Name = 
REMARK  5 active torsions:
REMARK  status: ('A' for Active; 'I' for Inactive)
REMARK    1  A    between atoms: C_1  and  O_2
REMARK    2  A    between atoms: O_2  and  N_3
REMARK    3  A    between atoms: C_4  and  C_5
REMARK    4  A    between atoms: C_4  and  C_7
REMARK    5  A    between atoms: C_13  and  C_14
REMARK                            x       y       z     vdW  Elec       q    Type
REMARK                         _______ _______ _______ _____ _____    ______ ____
ROOT
ATOM      1  C   UNL     1       8.404   9.006  18.262  0.00  0.00    +0.000 C 
ATOM      2  O   UNL     1       7.785   9.256  17.239  0.00  0.00    +0.000 OA
ATOM      3  N   UNL     1       8.487   7.780  18.895  0.00  0.00    +0.000 N 
ATOM      4  C   UNL     1       7.853   6.645  18.510  0.00  0.00    +0.000 C 
ATOM      5  N   UNL     1       8.013   5.557  19.178  0.00  0.00    +0.000 NA
ATOM      6  O   UNL     1       7.229   4.561  18.546  0.00  0.00    +0.000 OA
ATOM      7  C   UNL     1       6.554   5.129  17.405  0.00  0.00    +0.000 C 
ATOM      8  C   UNL     1       6.965   6.579  17.329  0.00  0.00    +0.000 C 
ATOM      9  H   UNL     1       9.043   7.709  19.742  0.00  0.00    +0.000 HD
ENDROOT
BRANCH   7  10
ATOM     10  C   UNL     1       5.054   4.946  17.509  0.00  0.00    +0.000 A 
ATOM     11  C   UNL     1       4.216   5.985  17.939  0.00  0.00    +0.000 A 
ATOM     12  C   UNL     1       2.842   5.781  18.073  0.00  0.00    +0.000 A 
ATOM     13  C   UNL     1       2.287   4.541  17.764  0.00  0.00    +0.000 A 
ATOM     14  C   UNL     1       3.100   3.513  17.295  0.00  0.00    +0.000 A 
ATOM     15  C   UNL     1       4.475   3.715  17.159  0.00  0.00    +0.000 A 
ENDBRANCH   7  10
BRANCH   1  17
ATOM     16  N   UNL     1       9.126  10.239  20.225  0.00  0.00    +0.000 NA
ATOM     17  C   UNL     1       9.175  10.113  18.927  0.00  0.00    +0.000 C 
BRANCH  16  19
ATOM     18  C   UNL     1       9.105  12.064  21.629  0.00  0.00    +0.000 C 
ATOM     19  O   UNL     1       9.874  11.339  20.678  0.00  0.00    +0.000 OA
ENDBRANCH  16  19
BRANCH  17  20
ATOM     20  C   UNL     1       9.968  11.031  18.144  0.00  0.00    +0.000 C 
ATOM     21  N   UNL     1      10.582  11.788  17.506  0.00  0.00    +0.000 NA
ENDBRANCH  17  20
ENDBRANCH   1  17
TORSDOF 4
ENDMDL
MODEL 8
REMARK VINA RESULT:      -7.2      4.570      7.486
REMARK  Name = 
REMARK  5 active torsions:
REMARK  status: ('A' for Active; 'I' for Inactive)
REMARK    1  A    between atoms: C_1  and  O_2
REMARK    2  A    between atoms: O_2  and  N_3
REMARK    3  A    between atoms: C_4  and  C_5
REMARK    4  A    between atoms: C_4  and  C_7
REMARK    5  A    between atoms: C_13  and  C_14
REMARK                            x       y       z     vdW  Elec       q    Type
REMARK                         _______ _______ _______ _____ _____    ______ ____
ROOT
ATOM      1  C   UNL     1       8.402   9.003  18.282  0.00  0.00    +0.000 C 
ATOM      2  O   UNL     1       7.766   9.250  17.270  0.00  0.00    +0.000 OA
ATOM      3  N   UNL     1       8.506   7.776  18.911  0.00  0.00    +0.000 N 
ATOM      4  C   UNL     1       7.876   6.637  18.533  0.00  0.00    +0.000 C 
ATOM      5  N   UNL     1       8.055   5.548  19.195  0.00  0.00    +0.000 NA
ATOM      6  O   UNL     1       7.270   4.548  18.572  0.00  0.00    +0.000 OA
ATOM      7  C   UNL     1       6.572   5.112  17.443  0.00  0.00    +0.000 C 
ATOM      8  C   UNL     1       6.970   6.566  17.365  0.00  0.00    +0.000 C 
ATOM      9  H   UNL     1       9.075   7.708  19.748  0.00  0.00    +0.000 HD
ENDROOT
BRANCH   7  10
ATOM     10  C   UNL     1       5.076   4.916  17.571  0.00  0.00    +0.000 A 
ATOM     11  C   UNL     1       4.467   3.693  17.257  0.00  0.00    +0.000 A 
ATOM     12  C   UNL     1       3.081   3.548  17.335  0.00  0.00    +0.000 A 
ATOM     13  C   UNL     1       2.288   4.619  17.744  0.00  0.00    +0.000 A 
ATOM     14  C   UNL     1       2.883   5.827  18.100  0.00  0.00    +0.000 A 
ATOM     15  C   UNL     1       4.269   5.974  18.023  0.00  0.00    +0.000 A 
ENDBRANCH   7  10
BRANCH   1  17
ATOM     16  N   UNL     1       9.136  10.244  20.236  0.00  0.00    +0.000 NA
ATOM     17  C   UNL     1       9.174  10.114  18.938  0.00  0.00    +0.000 C 
BRANCH  16  19
ATOM     18  C   UNL     1       9.116  12.076  21.631  0.00  0.00    +0.000 C 
ATOM     19  O   UNL     1       9.883  11.348  20.680  0.00  0.00    +0.000 OA
ENDBRANCH  16  19
BRANCH  17  20
ATOM     20  C   UNL     1       9.957  11.034  18.147  0.00  0.00    +0.000 C 
ATOM     21  N   UNL     1      10.570  11.770  17.484  0.00  0.00    +0.000 NA
ENDBRANCH  17  20
ENDBRANCH   1  17
TORSDOF 4
ENDMDL
MODEL 9
REMARK VINA RESULT:      -6.9      4.496      7.745
REMARK  Name = 
REMARK  5 active torsions:
REMARK  status: ('A' for Active; 'I' for Inactive)
REMARK    1  A    between atoms: C_1  and  O_2
REMARK    2  A    between atoms: O_2  and  N_3
REMARK    3  A    between atoms: C_4  and  C_5
REMARK    4  A    between atoms: C_4  and  C_7
REMARK    5  A    between atoms: C_13  and  C_14
REMARK                            x       y       z     vdW  Elec       q    Type
REMARK                         _______ _______ _______ _____ _____    ______ ____
ROOT
ATOM      1  C   UNL     1       8.318   8.996  18.120  0.00  0.00    +0.000 C 
ATOM      2  O   UNL     1       7.561   9.166  17.178  0.00  0.00    +0.000 OA
ATOM      3  N   UNL     1       8.510   7.820  18.821  0.00  0.00    +0.000 N 
ATOM      4  C   UNL     1       7.849   6.656  18.610  0.00  0.00    +0.000 C 
ATOM      5  N   UNL     1       8.118   5.621  19.325  0.00  0.00    +0.000 NA
ATOM      6  O   UNL     1       7.273   4.575  18.879  0.00  0.00    +0.000 OA
ATOM      7  C   UNL     1       6.437   5.053  17.805  0.00  0.00    +0.000 C 
ATOM      8  C   UNL     1       6.808   6.497  17.571  0.00  0.00    +0.000 C 
ATOM      9  H   UNL     1       9.177   7.816  19.586  0.00  0.00    +0.000 HD
ENDROOT
BRANCH   7  10
ATOM     10  C   UNL     1       4.969   4.867  18.129  0.00  0.00    +0.000 A 
ATOM     11  C   UNL     1       4.116   4.146  17.280  0.00  0.00    +0.000 A 
ATOM     12  C   UNL     1       2.757   4.027  17.572  0.00  0.00    +0.000 A 
ATOM     13  C   UNL     1       2.236   4.612  18.725  0.00  0.00    +0.000 A 
ATOM     14  C   UNL     1       3.079   5.294  19.600  0.00  0.00    +0.000 A 
ATOM     15  C   UNL     1       4.440   5.414  19.309  0.00  0.00    +0.000 A 
ENDBRANCH   7  10
BRANCH   1  17
ATOM     16  N   UNL     1       9.844  10.844  17.724  0.00  0.00    +0.000 NA
ATOM     17  C   UNL     1       9.154  10.155  18.592  0.00  0.00    +0.000 C 
BRANCH  16  19
ATOM     18  C   UNL     1      11.030  12.779  17.337  0.00  0.00    +0.000 C 
ATOM     19  O   UNL     1      10.591  11.865  18.334  0.00  0.00    +0.000 OA
ENDBRANCH  16  19
BRANCH  17  20
ATOM     20  C   UNL     1       9.196  10.511  19.990  0.00  0.00    +0.000 C 
ATOM     21  N   UNL     1       9.200  10.806  21.117  0.00  0.00    +0.000 NA
ENDBRANCH  17  20
ENDBRANCH   1  17
TORSDOF 4
ENDMDL
