MODEL 1
REMARK VINA RESULT:      -7.4      0.000      0.000
REMARK  Name = 
REMARK  7 active torsions:
REMARK  status: ('A' for Active; 'I' for Inactive)
REMARK    1  A    between atoms: C_1  and  O_2
REMARK    2  A    between atoms: O_2  and  C_3
REMARK    3  A    between atoms: C_5  and  O_6
REMARK    4  A    between atoms: O_6  and  C_7
REMARK    5  A    between atoms: C_9  and  C_10
REMARK    6  A    between atoms: C_20  and  C_21
REMARK    7  A    between atoms: C_21  and  C_23
REMARK                            x       y       z     vdW  Elec       q    Type
REMARK                         _______ _______ _______ _____ _____    ______ ____
ROOT
ATOM      1  C   UNL     1       1.950   5.865  20.494  0.00  0.00    +0.000 A 
ATOM      2  C   UNL     1       1.178   6.752  21.257  0.00  0.00    +0.000 A 
ATOM      3  C   UNL     1       0.872   8.047  20.829  0.00  0.00    +0.000 A 
ATOM      4  C   UNL     1       1.434   8.508  19.615  0.00  0.00    +0.000 A 
ATOM      5  C   UNL     1       1.400   9.768  18.903  0.00  0.00    +0.000 A 
ATOM      6  C   UNL     1       2.107   9.577  17.732  0.00  0.00    +0.000 A 
ATOM      7  N   UNL     1       2.606   8.300  17.728  0.00  0.00    +0.000 N 
ATOM      8  C   UNL     1       2.224   7.620  18.867  0.00  0.00    +0.000 A 
ATOM      9  C   UNL     1       2.499   6.288  19.274  0.00  0.00    +0.000 A 
ATOM     10  H   UNL     1       3.191   7.896  17.005  0.00  0.00    +0.000 HD
ENDROOT
BRANCH   5  11
ATOM     11  C   UNL     1       0.787  11.047  19.282  0.00  0.00    +0.000 A 
ATOM     12  C   UNL     1      -0.459  11.416  18.753  0.00  0.00    +0.000 A 
ATOM     13  C   UNL     1      -1.020  12.671  19.002  0.00  0.00    +0.000 A 
ATOM     14  C   UNL     1      -0.367  13.552  19.854  0.00  0.00    +0.000 A 
ATOM     15 BR   UNL     1      -1.126  15.245  20.211  0.00  0.00    +0.000 Br
ATOM     16  C   UNL     1       0.841  13.187  20.446  0.00  0.00    +0.000 A 
ATOM     17  C   UNL     1       1.422  11.943  20.152  0.00  0.00    +0.000 A 
ENDBRANCH   5  11
BRANCH   1  19
ATOM     18  C   UNL     1       1.182   3.631  20.690  0.00  0.00    +0.000 C 
ATOM     19  O   UNL     1       2.219   4.589  20.935  0.00  0.00    +0.000 OA
ENDBRANCH   1  19
BRANCH   3  20
ATOM     20  O   UNL     1       0.030   8.880  21.517  0.00  0.00    +0.000 OA
ATOM     21  C   UNL     1       0.467   9.434  22.749  0.00  0.00    +0.000 C 
ENDBRANCH   3  20
BRANCH   9  22
ATOM     22  C   UNL     1       3.367   5.437  18.417  0.00  0.00    +0.000 C 
ATOM     23  O   UNL     1       2.881   4.814  17.473  0.00  0.00    +0.000 OA
BRANCH  22  24
ATOM     24  C   UNL     1       4.841   5.189  18.778  0.00  0.00    +0.000 C 
ATOM     25  O   UNL     1       5.059   4.397  19.692  0.00  0.00    +0.000 OA
ATOM     26  N   UNL     1       5.831   5.757  17.978  0.00  0.00    +0.000 N 
ATOM     27  C   UNL     1       7.215   5.304  18.106  0.00  0.00    +0.000 C 
ATOM     28  C   UNL     1       8.096   6.434  18.632  0.00  0.00    +0.000 C 
ATOM     29  C   UNL     1       7.979   7.668  17.735  0.00  0.00    +0.000 C 
ATOM     30  C   UNL     1       6.516   8.075  17.536  0.00  0.00    +0.000 C 
ATOM     31  C   UNL     1       5.645   6.897  17.080  0.00  0.00    +0.000 C 
ENDBRANCH  22  24
ENDBRANCH   9  22
TORSDOF 5
ENDMDL
MODEL 2
REMARK VINA RESULT:      -7.0      1.617      2.061
REMARK  Name = 
REMARK  7 active torsions:
REMARK  status: ('A' for Active; 'I' for Inactive)
REMARK    1  A    between atoms: C_1  and  O_2
REMARK    2  A    between atoms: O_2  and  C_3
REMARK    3  A    between atoms: C_5  and  O_6
REMARK    4  A    between atoms: O_6  and  C_7
REMARK    5  A    between atoms: C_9  and  C_10
REMARK    6  A    between atoms: C_20  and  C_21
REMARK    7  A    between atoms: C_21  and  C_23
REMARK                            x       y       z     vdW  Elec       q    Type
REMARK                         _______ _______ _______ _____ _____    ______ ____
ROOT
ATOM      1  C   UNL     1       2.391   5.094  20.791  0.00  0.00    +0.000 A 
ATOM      2  C   UNL     1       1.592   6.132  21.289  0.00  0.00    +0.000 A 
ATOM      3  C   UNL     1       1.354   7.310  20.574  0.00  0.00    +0.000 A 
ATOM      4  C   UNL     1       2.015   7.496  19.337  0.00  0.00    +0.000 A 
ATOM      5  C   UNL     1       2.069   8.576  18.375  0.00  0.00    +0.000 A 
ATOM      6  C   UNL     1       2.852   8.132  17.328  0.00  0.00    +0.000 A 
ATOM      7  N   UNL     1       3.314   6.878  17.632  0.00  0.00    +0.000 N 
ATOM      8  C   UNL     1       2.832   6.460  18.857  0.00  0.00    +0.000 A 
ATOM      9  C   UNL     1       3.039   5.242  19.555  0.00  0.00    +0.000 A 
ATOM     10  H   UNL     1       3.939   6.323  17.058  0.00  0.00    +0.000 HD
ENDROOT
BRANCH   5  11
ATOM     11  C   UNL     1       1.466   9.914  18.428  0.00  0.00    +0.000 A 
ATOM     12  C   UNL     1       2.282  11.055  18.428  0.00  0.00    +0.000 A 
ATOM     13  C   UNL     1       1.751  12.338  18.590  0.00  0.00    +0.000 A 
ATOM     14  C   UNL     1       0.375  12.498  18.679  0.00  0.00    +0.000 A 
ATOM     15 BR   UNL     1      -0.354  14.230  18.881  0.00  0.00    +0.000 Br
ATOM     16  C   UNL     1      -0.465  11.388  18.615  0.00  0.00    +0.000 A 
ATOM     17  C   UNL     1       0.079  10.099  18.501  0.00  0.00    +0.000 A 
ENDBRANCH   5  11
BRANCH   1  19
ATOM     18  C   UNL     1       1.468   3.050  21.558  0.00  0.00    +0.000 C 
ATOM     19  O   UNL     1       2.592   3.937  21.510  0.00  0.00    +0.000 OA
ENDBRANCH   1  19
BRANCH   3  20
ATOM     20  O   UNL     1       0.488   8.281  21.005  0.00  0.00    +0.000 OA
ATOM     21  C   UNL     1       0.923   9.197  21.998  0.00  0.00    +0.000 C 
ENDBRANCH   3  20
BRANCH   9  22
ATOM     22  C   UNL     1       3.942   4.217  18.966  0.00  0.00    +0.000 C 
ATOM     23  O   UNL     1       3.587   3.040  18.909  0.00  0.00    +0.000 OA
BRANCH  22  24
ATOM     24  C   UNL     1       5.385   4.567  18.565  0.00  0.00    +0.000 C 
ATOM     25  O   UNL     1       6.111   5.014  19.451  0.00  0.00    +0.000 OA
ATOM     26  N   UNL     1       5.823   4.239  17.283  0.00  0.00    +0.000 N 
ATOM     27  C   UNL     1       7.250   4.279  16.971  0.00  0.00    +0.000 C 
ATOM     28  C   UNL     1       7.537   5.365  15.939  0.00  0.00    +0.000 C 
ATOM     29  C   UNL     1       6.686   5.153  14.686  0.00  0.00    +0.000 C 
ATOM     30  C   UNL     1       5.200   5.021  15.039  0.00  0.00    +0.000 C 
ATOM     31  C   UNL     1       4.957   3.975  16.133  0.00  0.00    +0.000 C 
ENDBRANCH  22  24
ENDBRANCH   9  22
TORSDOF 5
ENDMDL
MODEL 3
REMARK VINA RESULT:      -6.9      3.661      8.146
REMARK  Name = 
REMARK  7 active torsions:
REMARK  status: ('A' for Active; 'I' for Inactive)
REMARK    1  A    between atoms: C_1  and  O_2
REMARK    2  A    between atoms: O_2  and  C_3
REMARK    3  A    between atoms: C_5  and  O_6
REMARK    4  A    between atoms: O_6  and  C_7
REMARK    5  A    between atoms: C_9  and  C_10
REMARK    6  A    between atoms: C_20  and  C_21
REMARK    7  A    between atoms: C_21  and  C_23
REMARK                            x       y       z     vdW  Elec       q    Type
REMARK                         _______ _______ _______ _____ _____    ______ ____
ROOT
ATOM      1  C   UNL     1       0.109   9.009  21.424  0.00  0.00    +0.000 A 
ATOM      2  C   UNL     1       0.795   7.787  21.461  0.00  0.00    +0.000 A 
ATOM      3  C   UNL     1       1.691   7.394  20.463  0.00  0.00    +0.000 A 
ATOM      4  C   UNL     1       1.847   8.224  19.328  0.00  0.00    +0.000 A 
ATOM      5  C   UNL     1       2.607   8.123  18.101  0.00  0.00    +0.000 A 
ATOM      6  C   UNL     1       2.387   9.294  17.403  0.00  0.00    +0.000 A 
ATOM      7  N   UNL     1       1.500  10.063  18.112  0.00  0.00    +0.000 N 
ATOM      8  C   UNL     1       1.140   9.437  19.289  0.00  0.00    +0.000 A 
ATOM      9  C   UNL     1       0.265   9.864  20.323  0.00  0.00    +0.000 A 
ATOM     10  H   UNL     1       1.133  10.962  17.821  0.00  0.00    +0.000 HD
ENDROOT
BRANCH   5  11
ATOM     11  C   UNL     1       3.448   7.028  17.603  0.00  0.00    +0.000 A 
ATOM     12  C   UNL     1       4.702   7.302  17.035  0.00  0.00    +0.000 A 
ATOM     13  C   UNL     1       5.479   6.299  16.450  0.00  0.00    +0.000 A 
ATOM     14  C   UNL     1       5.038   4.983  16.495  0.00  0.00    +0.000 A 
ATOM     15 BR   UNL     1       6.090   3.617  15.722  0.00  0.00    +0.000 Br
ATOM     16  C   UNL     1       3.827   4.671  17.111  0.00  0.00    +0.000 A 
ATOM     17  C   UNL     1       3.029   5.691  17.653  0.00  0.00    +0.000 A 
ENDBRANCH   5  11
BRANCH   1  19
ATOM     18  C   UNL     1      -0.132   9.631  23.698  0.00  0.00    +0.000 C 
ATOM     19  O   UNL     1      -0.753   9.377  22.432  0.00  0.00    +0.000 OA
ENDBRANCH   1  19
BRANCH   3  20
ATOM     20  O   UNL     1       2.445   6.253  20.545  0.00  0.00    +0.000 OA
ATOM     21  C   UNL     1       1.797   5.020  20.822  0.00  0.00    +0.000 C 
ENDBRANCH   3  20
BRANCH   9  22
ATOM     22  C   UNL     1      -0.453  11.158  20.171  0.00  0.00    +0.000 C 
ATOM     23  O   UNL     1      -1.192  11.344  19.204  0.00  0.00    +0.000 OA
BRANCH  22  24
ATOM     24  C   UNL     1      -0.171  12.338  21.115  0.00  0.00    +0.000 C 
ATOM     25  O   UNL     1       1.004  12.682  21.234  0.00  0.00    +0.000 OA
ATOM     26  N   UNL     1      -1.249  13.028  21.667  0.00  0.00    +0.000 N 
ATOM     27  C   UNL     1      -1.030  14.320  22.314  0.00  0.00    +0.000 C 
ATOM     28  C   UNL     1      -1.342  14.225  23.805  0.00  0.00    +0.000 C 
ATOM     29  C   UNL     1      -2.765  13.711  24.024  0.00  0.00    +0.000 C 
ATOM     30  C   UNL     1      -3.009  12.404  23.264  0.00  0.00    +0.000 C 
ATOM     31  C   UNL     1      -2.613  12.512  21.785  0.00  0.00    +0.000 C 
ENDBRANCH  22  24
ENDBRANCH   9  22
TORSDOF 5
ENDMDL
MODEL 4
REMARK VINA RESULT:      -6.8      1.118      1.368
REMARK  Name = 
REMARK  7 active torsions:
REMARK  status: ('A' for Active; 'I' for Inactive)
REMARK    1  A    between atoms: C_1  and  O_2
REMARK    2  A    between atoms: O_2  and  C_3
REMARK    3  A    between atoms: C_5  and  O_6
REMARK    4  A    between atoms: O_6  and  C_7
REMARK    5  A    between atoms: C_9  and  C_10
REMARK    6  A    between atoms: C_20  and  C_21
REMARK    7  A    between atoms: C_21  and  C_23
REMARK                            x       y       z     vdW  Elec       q    Type
REMARK                         _______ _______ _______ _____ _____    ______ ____
ROOT
ATOM      1  C   UNL     1       1.951   5.807  20.501  0.00  0.00    +0.000 A 
ATOM      2  C   UNL     1       1.259   6.729  21.298  0.00  0.00    +0.000 A 
ATOM      3  C   UNL     1       0.944   8.019  20.860  0.00  0.00    +0.000 A 
ATOM      4  C   UNL     1       1.418   8.438  19.595  0.00  0.00    +0.000 A 
ATOM      5  C   UNL     1       1.352   9.680  18.854  0.00  0.00    +0.000 A 
ATOM      6  C   UNL     1       1.960   9.446  17.637  0.00  0.00    +0.000 A 
ATOM      7  N   UNL     1       2.433   8.159  17.628  0.00  0.00    +0.000 N 
ATOM      8  C   UNL     1       2.129   7.515  18.812  0.00  0.00    +0.000 A 
ATOM      9  C   UNL     1       2.410   6.189  19.231  0.00  0.00    +0.000 A 
ATOM     10  H   UNL     1       2.952   7.725  16.873  0.00  0.00    +0.000 HD
ENDROOT
BRANCH   5  11
ATOM     11  C   UNL     1       0.795  10.981  19.246  0.00  0.00    +0.000 A 
ATOM     12  C   UNL     1      -0.485  11.359  18.813  0.00  0.00    +0.000 A 
ATOM     13  C   UNL     1      -1.001  12.632  19.072  0.00  0.00    +0.000 A 
ATOM     14  C   UNL     1      -0.263  13.522  19.841  0.00  0.00    +0.000 A 
ATOM     15 BR   UNL     1      -0.961  15.239  20.211  0.00  0.00    +0.000 Br
ATOM     16  C   UNL     1       0.983  13.150  20.341  0.00  0.00    +0.000 A 
ATOM     17  C   UNL     1       1.516  11.888  20.035  0.00  0.00    +0.000 A 
ENDBRANCH   5  11
BRANCH   1  19
ATOM     18  C   UNL     1       1.152   3.601  20.832  0.00  0.00    +0.000 C 
ATOM     19  O   UNL     1       2.230   4.537  20.953  0.00  0.00    +0.000 OA
ENDBRANCH   1  19
BRANCH   3  20
ATOM     20  O   UNL     1       0.175   8.887  21.590  0.00  0.00    +0.000 OA
ATOM     21  C   UNL     1       0.696   9.415  22.801  0.00  0.00    +0.000 C 
ENDBRANCH   3  20
BRANCH   9  22
ATOM     22  C   UNL     1       3.191   5.298  18.331  0.00  0.00    +0.000 C 
ATOM     23  O   UNL     1       2.619   4.432  17.670  0.00  0.00    +0.000 OA
BRANCH  22  24
ATOM     24  C   UNL     1       4.729   5.329  18.323  0.00  0.00    +0.000 C 
ATOM     25  O   UNL     1       5.275   5.852  19.293  0.00  0.00    +0.000 OA
ATOM     26  N   UNL     1       5.408   4.657  17.309  0.00  0.00    +0.000 N 
ATOM     27  C   UNL     1       6.843   4.412  17.434  0.00  0.00    +0.000 C 
ATOM     28  C   UNL     1       7.608   5.180  16.361  0.00  0.00    +0.000 C 
ATOM     29  C   UNL     1       7.088   4.819  14.969  0.00  0.00    +0.000 C 
ATOM     30  C   UNL     1       5.568   4.994  14.880  0.00  0.00    +0.000 C 
ATOM     31  C   UNL     1       4.836   4.271  16.018  0.00  0.00    +0.000 C 
ENDBRANCH  22  24
ENDBRANCH   9  22
TORSDOF 5
ENDMDL
MODEL 5
REMARK VINA RESULT:      -6.8      0.655      1.088
REMARK  Name = 
REMARK  7 active torsions:
REMARK  status: ('A' for Active; 'I' for Inactive)
REMARK    1  A    between atoms: C_1  and  O_2
REMARK    2  A    between atoms: O_2  and  C_3
REMARK    3  A    between atoms: C_5  and  O_6
REMARK    4  A    between atoms: O_6  and  C_7
REMARK    5  A    between atoms: C_9  and  C_10
REMARK    6  A    between atoms: C_20  and  C_21
REMARK    7  A    between atoms: C_21  and  C_23
REMARK                            x       y       z     vdW  Elec       q    Type
REMARK                         _______ _______ _______ _____ _____    ______ ____
ROOT
ATOM      1  C   UNL     1       2.120   5.338  20.195  0.00  0.00    +0.000 A 
ATOM      2  C   UNL     1       1.261   6.114  20.985  0.00  0.00    +0.000 A 
ATOM      3  C   UNL     1       0.916   7.429  20.657  0.00  0.00    +0.000 A 
ATOM      4  C   UNL     1       1.526   8.027  19.530  0.00  0.00    +0.000 A 
ATOM      5  C   UNL     1       1.472   9.345  18.934  0.00  0.00    +0.000 A 
ATOM      6  C   UNL     1       2.255   9.297  17.799  0.00  0.00    +0.000 A 
ATOM      7  N   UNL     1       2.817   8.050  17.710  0.00  0.00    +0.000 N 
ATOM      8  C   UNL     1       2.402   7.249  18.756  0.00  0.00    +0.000 A 
ATOM      9  C   UNL     1       2.718   5.898  19.056  0.00  0.00    +0.000 A 
ATOM     10  H   UNL     1       3.463   7.742  16.992  0.00  0.00    +0.000 HD
ENDROOT
BRANCH   5  11
ATOM     11  C   UNL     1       0.774  10.555  19.389  0.00  0.00    +0.000 A 
ATOM     12  C   UNL     1       1.464  11.535  20.118  0.00  0.00    +0.000 A 
ATOM     13  C   UNL     1       0.809  12.643  20.663  0.00  0.00    +0.000 A 
ATOM     14  C   UNL     1      -0.545  12.822  20.415  0.00  0.00    +0.000 A 
ATOM     15 BR   UNL     1      -1.437  14.326  21.132  0.00  0.00    +0.000 Br
ATOM     16  C   UNL     1      -1.243  11.899  19.638  0.00  0.00    +0.000 A 
ATOM     17  C   UNL     1      -0.588  10.763  19.136  0.00  0.00    +0.000 A 
ENDBRANCH   5  11
BRANCH   1  19
ATOM     18  C   UNL     1       2.273   3.723  21.922  0.00  0.00    +0.000 C 
ATOM     19  O   UNL     1       2.425   4.039  20.533  0.00  0.00    +0.000 OA
ENDBRANCH   1  19
BRANCH   3  20
ATOM     20  O   UNL     1      -0.006   8.156  21.364  0.00  0.00    +0.000 OA
ATOM     21  C   UNL     1       0.431   8.924  22.476  0.00  0.00    +0.000 C 
ENDBRANCH   3  20
BRANCH   9  22
ATOM     22  C   UNL     1       3.677   5.171  18.182  0.00  0.00    +0.000 C 
ATOM     23  O   UNL     1       3.269   4.555  17.196  0.00  0.00    +0.000 OA
BRANCH  22  24
ATOM     24  C   UNL     1       5.159   5.036  18.568  0.00  0.00    +0.000 C 
ATOM     25  O   UNL     1       5.431   4.201  19.428  0.00  0.00    +0.000 OA
ATOM     26  N   UNL     1       6.109   5.753  17.843  0.00  0.00    +0.000 N 
ATOM     27  C   UNL     1       7.527   5.424  17.979  0.00  0.00    +0.000 C 
ATOM     28  C   UNL     1       8.282   6.588  18.613  0.00  0.00    +0.000 C 
ATOM     29  C   UNL     1       8.069   7.870  17.806  0.00  0.00    +0.000 C 
ATOM     30  C   UNL     1       6.578   8.152  17.592  0.00  0.00    +0.000 C 
ATOM     31  C   UNL     1       5.835   6.935  17.025  0.00  0.00    +0.000 C 
ENDBRANCH  22  24
ENDBRANCH   9  22
TORSDOF 5
ENDMDL
MODEL 6
REMARK VINA RESULT:      -6.7      1.960      2.922
REMARK  Name = 
REMARK  7 active torsions:
REMARK  status: ('A' for Active; 'I' for Inactive)
REMARK    1  A    between atoms: C_1  and  O_2
REMARK    2  A    between atoms: O_2  and  C_3
REMARK    3  A    between atoms: C_5  and  O_6
REMARK    4  A    between atoms: O_6  and  C_7
REMARK    5  A    between atoms: C_9  and  C_10
REMARK    6  A    between atoms: C_20  and  C_21
REMARK    7  A    between atoms: C_21  and  C_23
REMARK                            x       y       z     vdW  Elec       q    Type
REMARK                         _______ _______ _______ _____ _____    ______ ____
ROOT
ATOM      1  C   UNL     1       1.783   6.525  20.544  0.00  0.00    +0.000 A 
ATOM      2  C   UNL     1       1.017   7.313  21.413  0.00  0.00    +0.000 A 
ATOM      3  C   UNL     1       0.622   8.617  21.101  0.00  0.00    +0.000 A 
ATOM      4  C   UNL     1       1.087   9.194  19.896  0.00  0.00    +0.000 A 
ATOM      5  C   UNL     1       0.950  10.498  19.283  0.00  0.00    +0.000 A 
ATOM      6  C   UNL     1       1.594  10.431  18.064  0.00  0.00    +0.000 A 
ATOM      7  N   UNL     1       2.153   9.186  17.936  0.00  0.00    +0.000 N 
ATOM      8  C   UNL     1       1.874   8.406  19.041  0.00  0.00    +0.000 A 
ATOM      9  C   UNL     1       2.237   7.064  19.330  0.00  0.00    +0.000 A 
ATOM     10  H   UNL     1       2.714   8.867  17.153  0.00  0.00    +0.000 HD
ENDROOT
BRANCH   5  11
ATOM     11  C   UNL     1       0.299  11.712  19.791  0.00  0.00    +0.000 A 
ATOM     12  C   UNL     1       1.022  12.626  20.574  0.00  0.00    +0.000 A 
ATOM     13  C   UNL     1       0.407  13.732  21.167  0.00  0.00    +0.000 A 
ATOM     14  C   UNL     1      -0.936  13.980  20.918  0.00  0.00    +0.000 A 
ATOM     15 BR   UNL     1      -1.771  15.483  21.701  0.00  0.00    +0.000 Br
ATOM     16  C   UNL     1      -1.663  13.126  20.090  0.00  0.00    +0.000 A 
ATOM     17  C   UNL     1      -1.051  11.990  19.538  0.00  0.00    +0.000 A 
ENDBRANCH   5  11
BRANCH   1  19
ATOM     18  C   UNL     1       1.103   4.262  20.712  0.00  0.00    +0.000 C 
ATOM     19  O   UNL     1       2.141   5.237  20.871  0.00  0.00    +0.000 OA
ENDBRANCH   1  19
BRANCH   3  20
ATOM     20  O   UNL     1      -0.217   9.352  21.896  0.00  0.00    +0.000 OA
ATOM     21  C   UNL     1       0.095   9.500  23.273  0.00  0.00    +0.000 C 
ENDBRANCH   3  20
BRANCH   9  22
ATOM     22  C   UNL     1       3.093   6.325  18.364  0.00  0.00    +0.000 C 
ATOM     23  O   UNL     1       4.048   6.888  17.828  0.00  0.00    +0.000 OA
BRANCH  22  24
ATOM     24  C   UNL     1       2.720   4.909  17.895  0.00  0.00    +0.000 C 
ATOM     25  O   UNL     1       1.663   4.793  17.278  0.00  0.00    +0.000 OA
ATOM     26  N   UNL     1       3.643   3.880  18.068  0.00  0.00    +0.000 N 
ATOM     27  C   UNL     1       3.453   2.608  17.374  0.00  0.00    +0.000 C 
ATOM     28  C   UNL     1       3.199   1.488  18.380  0.00  0.00    +0.000 C 
ATOM     29  C   UNL     1       4.335   1.416  19.401  0.00  0.00    +0.000 C 
ATOM     30  C   UNL     1       4.585   2.779  20.053  0.00  0.00    +0.000 C 
ATOM     31  C   UNL     1       4.760   3.894  19.014  0.00  0.00    +0.000 C 
ENDBRANCH  22  24
ENDBRANCH   9  22
TORSDOF 5
ENDMDL
MODEL 7
REMARK VINA RESULT:      -6.6      1.743      2.457
REMARK  Name = 
REMARK  7 active torsions:
REMARK  status: ('A' for Active; 'I' for Inactive)
REMARK    1  A    between atoms: C_1  and  O_2
REMARK    2  A    between atoms: O_2  and  C_3
REMARK    3  A    between atoms: C_5  and  O_6
REMARK    4  A    between atoms: O_6  and  C_7
REMARK    5  A    between atoms: C_9  and  C_10
REMARK    6  A    between atoms: C_20  and  C_21
REMARK    7  A    between atoms: C_21  and  C_23
REMARK                            x       y       z     vdW  Elec       q    Type
REMARK                         _______ _______ _______ _____ _____    ______ ____
ROOT
ATOM      1  C   UNL     1       2.742   4.833  20.425  0.00  0.00    +0.000 A 
ATOM      2  C   UNL     1       1.744   5.622  21.012  0.00  0.00    +0.000 A 
ATOM      3  C   UNL     1       1.355   6.859  20.491  0.00  0.00    +0.000 A 
ATOM      4  C   UNL     1       2.058   7.374  19.376  0.00  0.00    +0.000 A 
ATOM      5  C   UNL     1       1.990   8.608  18.623  0.00  0.00    +0.000 A 
ATOM      6  C   UNL     1       2.908   8.496  17.598  0.00  0.00    +0.000 A 
ATOM      7  N   UNL     1       3.558   7.295  17.726  0.00  0.00    +0.000 N 
ATOM      8  C   UNL     1       3.072   6.587  18.807  0.00  0.00    +0.000 A 
ATOM      9  C   UNL     1       3.437   5.308  19.303  0.00  0.00    +0.000 A 
ATOM     10  H   UNL     1       4.306   6.962  17.129  0.00  0.00    +0.000 HD
ENDROOT
BRANCH   5  11
ATOM     11  C   UNL     1       1.163   9.801  18.845  0.00  0.00    +0.000 A 
ATOM     12  C   UNL     1       1.666  10.878  19.592  0.00  0.00    +0.000 A 
ATOM     13  C   UNL     1       0.870  11.980  19.918  0.00  0.00    +0.000 A 
ATOM     14  C   UNL     1      -0.428  12.051  19.430  0.00  0.00    +0.000 A 
ATOM     15 BR   UNL     1      -1.506  13.545  19.852  0.00  0.00    +0.000 Br
ATOM     16  C   UNL     1      -0.932  11.026  18.630  0.00  0.00    +0.000 A 
ATOM     17  C   UNL     1      -0.143   9.900  18.348  0.00  0.00    +0.000 A 
ENDBRANCH   5  11
BRANCH   1  19
ATOM     18  C   UNL     1       2.026   2.907  21.605  0.00  0.00    +0.000 C 
ATOM     19  O   UNL     1       3.089   3.609  20.951  0.00  0.00    +0.000 OA
ENDBRANCH   1  19
BRANCH   3  20
ATOM     20  O   UNL     1       0.307   7.585  20.994  0.00  0.00    +0.000 OA
ATOM     21  C   UNL     1       0.551   8.501  22.051  0.00  0.00    +0.000 C 
ENDBRANCH   3  20
BRANCH   9  22
ATOM     22  C   UNL     1       4.542   4.566  18.638  0.00  0.00    +0.000 C 
ATOM     23  O   UNL     1       5.625   4.431  19.208  0.00  0.00    +0.000 OA
BRANCH  22  24
ATOM     24  C   UNL     1       4.417   4.094  17.180  0.00  0.00    +0.000 C 
ATOM     25  O   UNL     1       3.596   3.206  16.957  0.00  0.00    +0.000 OA
ATOM     26  N   UNL     1       5.124   4.775  16.191  0.00  0.00    +0.000 N 
ATOM     27  C   UNL     1       4.800   4.554  14.783  0.00  0.00    +0.000 C 
ATOM     28  C   UNL     1       5.976   3.897  14.066  0.00  0.00    +0.000 C 
ATOM     29  C   UNL     1       7.244   4.736  14.234  0.00  0.00    +0.000 C 
ATOM     30  C   UNL     1       7.519   5.038  15.711  0.00  0.00    +0.000 C 
ATOM     31  C   UNL     1       6.292   5.627  16.419  0.00  0.00    +0.000 C 
ENDBRANCH  22  24
ENDBRANCH   9  22
TORSDOF 5
ENDMDL
MODEL 8
REMARK VINA RESULT:      -6.5      3.374      7.463
REMARK  Name = 
REMARK  7 active torsions:
REMARK  status: ('A' for Active; 'I' for Inactive)
REMARK    1  A    between atoms: C_1  and  O_2
REMARK    2  A    between atoms: O_2  and  C_3
REMARK    3  A    between atoms: C_5  and  O_6
REMARK    4  A    between atoms: O_6  and  C_7
REMARK    5  A    between atoms: C_9  and  C_10
REMARK    6  A    between atoms: C_20  and  C_21
REMARK    7  A    between atoms: C_21  and  C_23
REMARK                            x       y       z     vdW  Elec       q    Type
REMARK                         _______ _______ _______ _____ _____    ______ ____
ROOT
ATOM      1  C   UNL     1       0.117   8.938  21.453  0.00  0.00    +0.000 A 
ATOM      2  C   UNL     1       0.844   7.740  21.486  0.00  0.00    +0.000 A 
ATOM      3  C   UNL     1       1.730   7.366  20.473  0.00  0.00    +0.000 A 
ATOM      4  C   UNL     1       1.834   8.189  19.327  0.00  0.00    +0.000 A 
ATOM      5  C   UNL     1       2.570   8.100  18.084  0.00  0.00    +0.000 A 
ATOM      6  C   UNL     1       2.296   9.256  17.380  0.00  0.00    +0.000 A 
ATOM      7  N   UNL     1       1.399  10.002  18.100  0.00  0.00    +0.000 N 
ATOM      8  C   UNL     1       1.086   9.377  19.291  0.00  0.00    +0.000 A 
ATOM      9  C   UNL     1       0.220   9.786  20.339  0.00  0.00    +0.000 A 
ATOM     10  H   UNL     1       0.996  10.885  17.809  0.00  0.00    +0.000 HD
ENDROOT
BRANCH   5  11
ATOM     11  C   UNL     1       3.436   7.028  17.578  0.00  0.00    +0.000 A 
ATOM     12  C   UNL     1       4.684   7.336  17.014  0.00  0.00    +0.000 A 
ATOM     13  C   UNL     1       5.484   6.355  16.422  0.00  0.00    +0.000 A 
ATOM     14  C   UNL     1       5.074   5.029  16.457  0.00  0.00    +0.000 A 
ATOM     15 BR   UNL     1       6.158   3.693  15.675  0.00  0.00    +0.000 Br
ATOM     16  C   UNL     1       3.870   4.685  17.070  0.00  0.00    +0.000 A 
ATOM     17  C   UNL     1       3.049   5.682  17.619  0.00  0.00    +0.000 A 
ENDBRANCH   5  11
BRANCH   1  19
ATOM     18  C   UNL     1      -0.098   9.544  23.733  0.00  0.00    +0.000 C 
ATOM     19  O   UNL     1      -0.735   9.288  22.476  0.00  0.00    +0.000 OA
ENDBRANCH   1  19
BRANCH   3  20
ATOM     20  O   UNL     1       2.524   6.252  20.550  0.00  0.00    +0.000 OA
ATOM     21  C   UNL     1       1.920   4.995  20.815  0.00  0.00    +0.000 C 
ENDBRANCH   3  20
BRANCH   9  22
ATOM     22  C   UNL     1      -0.544  11.053  20.190  0.00  0.00    +0.000 C 
ATOM     23  O   UNL     1      -1.393  11.162  19.305  0.00  0.00    +0.000 OA
BRANCH  22  24
ATOM     24  C   UNL     1      -0.188  12.297  21.021  0.00  0.00    +0.000 C 
ATOM     25  O   UNL     1      -0.789  12.441  22.084  0.00  0.00    +0.000 OA
ATOM     26  N   UNL     1       0.869  13.103  20.603  0.00  0.00    +0.000 N 
ATOM     27  C   UNL     1       1.424  14.104  21.512  0.00  0.00    +0.000 C 
ATOM     28  C   UNL     1       1.172  15.508  20.971  0.00  0.00    +0.000 C 
ATOM     29  C   UNL     1       1.738  15.648  19.557  0.00  0.00    +0.000 C 
ATOM     30  C   UNL     1       1.220  14.537  18.638  0.00  0.00    +0.000 C 
ATOM     31  C   UNL     1       1.419  13.143  19.247  0.00  0.00    +0.000 C 
ENDBRANCH  22  24
ENDBRANCH   9  22
TORSDOF 5
ENDMDL
MODEL 9
REMARK VINA RESULT:      -6.4      3.514      7.947
REMARK  Name = 
REMARK  7 active torsions:
REMARK  status: ('A' for Active; 'I' for Inactive)
REMARK    1  A    between atoms: C_1  and  O_2
REMARK    2  A    between atoms: O_2  and  C_3
REMARK    3  A    between atoms: C_5  and  O_6
REMARK    4  A    between atoms: O_6  and  C_7
REMARK    5  A    between atoms: C_9  and  C_10
REMARK    6  A    between atoms: C_20  and  C_21
REMARK    7  A    between atoms: C_21  and  C_23
REMARK                            x       y       z     vdW  Elec       q    Type
REMARK                         _______ _______ _______ _____ _____    ______ ____
ROOT
ATOM      1  C   UNL     1       0.141   9.526  21.355  0.00  0.00    +0.000 A 
ATOM      2  C   UNL     1       0.745   8.265  21.463  0.00  0.00    +0.000 A 
ATOM      3  C   UNL     1       1.609   7.756  20.490  0.00  0.00    +0.000 A 
ATOM      4  C   UNL     1       1.815   8.506  19.308  0.00  0.00    +0.000 A 
ATOM      5  C   UNL     1       2.562   8.283  18.089  0.00  0.00    +0.000 A 
ATOM      6  C   UNL     1       2.417   9.423  17.324  0.00  0.00    +0.000 A 
ATOM      7  N   UNL     1       1.586  10.289  17.986  0.00  0.00    +0.000 N 
ATOM      8  C   UNL     1       1.190   9.758  19.198  0.00  0.00    +0.000 A 
ATOM      9  C   UNL     1       0.349  10.302  20.205  0.00  0.00    +0.000 A 
ATOM     10  H   UNL     1       1.278  11.192  17.643  0.00  0.00    +0.000 HD
ENDROOT
BRANCH   5  11
ATOM     11  C   UNL     1       3.327   7.107  17.657  0.00  0.00    +0.000 A 
ATOM     12  C   UNL     1       4.634   7.256  17.166  0.00  0.00    +0.000 A 
ATOM     13  C   UNL     1       5.349   6.176  16.641  0.00  0.00    +0.000 A 
ATOM     14  C   UNL     1       4.786   4.907  16.673  0.00  0.00    +0.000 A 
ATOM     15 BR   UNL     1       5.753   3.438  15.982  0.00  0.00    +0.000 Br
ATOM     16  C   UNL     1       3.516   4.718  17.215  0.00  0.00    +0.000 A 
ATOM     17  C   UNL     1       2.784   5.816  17.695  0.00  0.00    +0.000 A 
ENDBRANCH   5  11
BRANCH   1  19
ATOM     18  C   UNL     1      -0.325   9.642  23.675  0.00  0.00    +0.000 C 
ATOM     19  O   UNL     1      -0.691  10.008  22.339  0.00  0.00    +0.000 OA
ENDBRANCH   1  19
BRANCH   3  20
ATOM     20  O   UNL     1       2.287   6.574  20.639  0.00  0.00    +0.000 OA
ATOM     21  C   UNL     1       1.546   5.370  20.774  0.00  0.00    +0.000 C 
ENDBRANCH   3  20
BRANCH   9  22
ATOM     22  C   UNL     1      -0.282  11.630  19.977  0.00  0.00    +0.000 C 
ATOM     23  O   UNL     1       0.408  12.650  19.976  0.00  0.00    +0.000 OA
BRANCH  22  24
ATOM     24  C   UNL     1      -1.810  11.779  19.896  0.00  0.00    +0.000 C 
ATOM     25  O   UNL     1      -2.390  12.082  20.937  0.00  0.00    +0.000 OA
ATOM     26  N   UNL     1      -2.428  11.700  18.649  0.00  0.00    +0.000 N 
ATOM     27  C   UNL     1      -3.816  12.131  18.497  0.00  0.00    +0.000 C 
ATOM     28  C   UNL     1      -4.703  10.944  18.135  0.00  0.00    +0.000 C 
ATOM     29  C   UNL     1      -4.181  10.247  16.877  0.00  0.00    +0.000 C 
ATOM     30  C   UNL     1      -2.699   9.884  17.017  0.00  0.00    +0.000 C 
ATOM     31  C   UNL     1      -1.849  11.083  17.455  0.00  0.00    +0.000 C 
ENDBRANCH  22  24
ENDBRANCH   9  22
TORSDOF 5
ENDMDL
