MODEL 1
REMARK VINA RESULT:      -6.9      0.000      0.000
REMARK  Name = 
REMARK  5 active torsions:
REMARK  status: ('A' for Active; 'I' for Inactive)
REMARK    1  A    between atoms: C_1  and  C_2
REMARK    2  A    between atoms: C_2  and  C_3
REMARK    3  A    between atoms: C_7  and  C_8
REMARK    4  A    between atoms: C_8  and  S_9
REMARK    5  A    between atoms: S_9  and  N_12
REMARK                            x       y       z     vdW  Elec       q    Type
REMARK                         _______ _______ _______ _____ _____    ______ ____
ROOT
ATOM      1  S   UNL     1       1.766   6.150  19.301  0.00  0.00    +0.000 S 
ATOM      2  O   UNL     1       1.309   5.980  17.968  0.00  0.00    +0.000 OA
ATOM      3  O   UNL     1       0.917   5.803  20.441  0.00  0.00    +0.000 OA
ENDROOT
BRANCH   1   4
ATOM      4  N   UNL     1       2.202   7.800  19.502  0.00  0.00    +0.000 NA
ATOM      5  C   UNL     1       2.376   8.671  18.312  0.00  0.00    +0.000 C 
ATOM      6  C   UNL     1       1.068   9.335  17.910  0.00  0.00    +0.000 C 
ATOM      7  C   UNL     1       0.348  10.105  19.038  0.00  0.00    +0.000 C 
ATOM      8  C   UNL     1      -1.100  10.269  18.523  0.00  0.00    +0.000 C 
ATOM      9  C   UNL     1      -1.528  11.533  18.511  0.00  0.00    +0.000 C 
ATOM     10  C   UNL     1      -0.367  12.369  18.685  0.00  0.00    +0.000 A 
ATOM     11  C   UNL     1      -0.261  13.723  18.408  0.00  0.00    +0.000 A 
ATOM     12  C   UNL     1       0.868  14.388  18.861  0.00  0.00    +0.000 A 
ATOM     13  C   UNL     1       1.815  13.684  19.625  0.00  0.00    +0.000 A 
ATOM     14  C   UNL     1       1.739  12.282  19.788  0.00  0.00    +0.000 A 
ATOM     15  C   UNL     1       0.687  11.598  19.206  0.00  0.00    +0.000 A 
ATOM     16  C   UNL     1       0.360   9.283  20.353  0.00  0.00    +0.000 C 
ATOM     17  C   UNL     1       1.688   8.573  20.662  0.00  0.00    +0.000 C 
ENDBRANCH   1   4
BRANCH   1  18
ATOM     18  C   UNL     1       3.317   5.291  19.490  0.00  0.00    +0.000 C 
BRANCH  18  25
ATOM     19  C   UNL     1       1.092   2.426  18.979  0.00  0.00    +0.000 C 
ATOM     20  C   UNL     1       2.464   2.645  19.660  0.00  0.00    +0.000 C 
ATOM     21  C   UNL     1       2.197   2.713  21.172  0.00  0.00    +0.000 C 
ATOM     22  C   UNL     1       3.415   1.494  19.176  0.00  0.00    +0.000 C 
ATOM     23  C   UNL     1       4.722   1.767  19.921  0.00  0.00    +0.000 C 
ATOM     24  C   UNL     1       4.817   3.300  19.854  0.00  0.00    +0.000 C 
ATOM     25  C   UNL     1       3.446   3.773  19.191  0.00  0.00    +0.000 C 
ATOM     26  C   UNL     1       3.681   3.338  17.759  0.00  0.00    +0.000 C 
ATOM     27  O   UNL     1       3.952   4.086  16.824  0.00  0.00    +0.000 OA
ATOM     28  C   UNL     1       3.668   1.822  17.672  0.00  0.00    +0.000 C 
ENDBRANCH  18  25
ENDBRANCH   1  18
TORSDOF 3
ENDMDL
MODEL 2
REMARK VINA RESULT:      -6.8      2.007      3.030
REMARK  Name = 
REMARK  5 active torsions:
REMARK  status: ('A' for Active; 'I' for Inactive)
REMARK    1  A    between atoms: C_1  and  C_2
REMARK    2  A    between atoms: C_2  and  C_3
REMARK    3  A    between atoms: C_7  and  C_8
REMARK    4  A    between atoms: C_8  and  S_9
REMARK    5  A    between atoms: S_9  and  N_12
REMARK                            x       y       z     vdW  Elec       q    Type
REMARK                         _______ _______ _______ _____ _____    ______ ____
ROOT
ATOM      1  S   UNL     1       2.524   6.096  19.107  0.00  0.00    +0.000 S 
ATOM      2  O   UNL     1       1.945   5.925  17.823  0.00  0.00    +0.000 OA
ATOM      3  O   UNL     1       1.931   5.476  20.293  0.00  0.00    +0.000 OA
ENDROOT
BRANCH   1   4
ATOM      4  N   UNL     1       2.608   7.782  19.428  0.00  0.00    +0.000 NA
ATOM      5  C   UNL     1       2.767   8.742  18.306  0.00  0.00    +0.000 C 
ATOM      6  C   UNL     1       1.419   9.177  17.750  0.00  0.00    +0.000 C 
ATOM      7  C   UNL     1       0.425   9.731  18.794  0.00  0.00    +0.000 C 
ATOM      8  C   UNL     1      -0.948   9.657  18.088  0.00  0.00    +0.000 C 
ATOM      9  C   UNL     1      -1.604  10.819  18.062  0.00  0.00    +0.000 C 
ATOM     10  C   UNL     1      -0.656  11.841  18.427  0.00  0.00    +0.000 A 
ATOM     11  C   UNL     1      -0.776  13.207  18.217  0.00  0.00    +0.000 A 
ATOM     12  C   UNL     1       0.136  14.039  18.847  0.00  0.00    +0.000 A 
ATOM     13  C   UNL     1       1.093  13.475  19.710  0.00  0.00    +0.000 A 
ATOM     14  C   UNL     1       1.265  12.075  19.809  0.00  0.00    +0.000 A 
ATOM     15  C   UNL     1       0.448  11.247  19.061  0.00  0.00    +0.000 A 
ATOM     16  C   UNL     1       0.422   8.845  20.067  0.00  0.00    +0.000 C 
ATOM     17  C   UNL     1       1.810   8.374  20.532  0.00  0.00    +0.000 C 
ENDBRANCH   1   4
BRANCH   1  18
ATOM     18  C   UNL     1       4.239   5.608  19.033  0.00  0.00    +0.000 C 
BRANCH  18  25
ATOM     19  C   UNL     1       7.544   4.549  17.862  0.00  0.00    +0.000 C 
ATOM     20  C   UNL     1       6.485   5.572  17.388  0.00  0.00    +0.000 C 
ATOM     21  C   UNL     1       6.977   6.956  17.844  0.00  0.00    +0.000 C 
ATOM     22  C   UNL     1       6.307   5.376  15.840  0.00  0.00    +0.000 C 
ATOM     23  C   UNL     1       5.281   6.444  15.457  0.00  0.00    +0.000 C 
ATOM     24  C   UNL     1       4.299   6.387  16.639  0.00  0.00    +0.000 C 
ATOM     25  C   UNL     1       4.958   5.373  17.678  0.00  0.00    +0.000 C 
ATOM     26  C   UNL     1       4.722   4.062  16.954  0.00  0.00    +0.000 C 
ATOM     27  O   UNL     1       3.875   3.227  17.255  0.00  0.00    +0.000 OA
ATOM     28  C   UNL     1       5.597   3.994  15.715  0.00  0.00    +0.000 C 
ENDBRANCH  18  25
ENDBRANCH   1  18
TORSDOF 3
ENDMDL
MODEL 3
REMARK VINA RESULT:      -6.8      5.176      9.805
REMARK  Name = 
REMARK  5 active torsions:
REMARK  status: ('A' for Active; 'I' for Inactive)
REMARK    1  A    between atoms: C_1  and  C_2
REMARK    2  A    between atoms: C_2  and  C_3
REMARK    3  A    between atoms: C_7  and  C_8
REMARK    4  A    between atoms: C_8  and  S_9
REMARK    5  A    between atoms: S_9  and  N_12
REMARK                            x       y       z     vdW  Elec       q    Type
REMARK                         _______ _______ _______ _____ _____    ______ ____
ROOT
ATOM      1  S   UNL     1      -0.832  14.731  20.219  0.00  0.00    +0.000 S 
ATOM      2  O   UNL     1      -0.998  15.879  19.402  0.00  0.00    +0.000 OA
ATOM      3  O   UNL     1      -0.106  14.805  21.487  0.00  0.00    +0.000 OA
ENDROOT
BRANCH   1   4
ATOM      4  N   UNL     1      -0.053  13.523  19.278  0.00  0.00    +0.000 NA
ATOM      5  C   UNL     1       1.305  13.053  19.654  0.00  0.00    +0.000 C 
ATOM      6  C   UNL     1       1.242  11.887  20.630  0.00  0.00    +0.000 C 
ATOM      7  C   UNL     1       0.369  10.697  20.177  0.00  0.00    +0.000 C 
ATOM      8  C   UNL     1       0.106   9.902  21.476  0.00  0.00    +0.000 C 
ATOM      9  C   UNL     1       0.448   8.615  21.398  0.00  0.00    +0.000 C 
ATOM     10  C   UNL     1       1.257   8.468  20.214  0.00  0.00    +0.000 A 
ATOM     11  C   UNL     1       2.103   7.415  19.904  0.00  0.00    +0.000 A 
ATOM     12  C   UNL     1       2.613   7.354  18.617  0.00  0.00    +0.000 A 
ATOM     13  C   UNL     1       2.206   8.316  17.674  0.00  0.00    +0.000 A 
ATOM     14  C   UNL     1       1.439   9.442  18.052  0.00  0.00    +0.000 A 
ATOM     15  C   UNL     1       1.057   9.577  19.375  0.00  0.00    +0.000 A 
ATOM     16  C   UNL     1      -0.969  11.201  19.575  0.00  0.00    +0.000 C 
ATOM     17  C   UNL     1      -0.846  12.430  18.660  0.00  0.00    +0.000 C 
ENDBRANCH   1   4
BRANCH   1  18
ATOM     18  C   UNL     1      -2.437  14.023  20.546  0.00  0.00    +0.000 C 
BRANCH  18  25
ATOM     19  C   UNL     1      -1.429  14.140  24.066  0.00  0.00    +0.000 C 
ATOM     20  C   UNL     1      -2.620  13.539  23.282  0.00  0.00    +0.000 C 
ATOM     21  C   UNL     1      -2.339  12.033  23.146  0.00  0.00    +0.000 C 
ATOM     22  C   UNL     1      -3.930  13.932  24.051  0.00  0.00    +0.000 C 
ATOM     23  C   UNL     1      -5.041  13.271  23.234  0.00  0.00    +0.000 C 
ATOM     24  C   UNL     1      -4.564  13.505  21.792  0.00  0.00    +0.000 C 
ATOM     25  C   UNL     1      -3.118  14.163  21.933  0.00  0.00    +0.000 C 
ATOM     26  C   UNL     1      -3.504  15.548  22.412  0.00  0.00    +0.000 C 
ATOM     27  O   UNL     1      -3.484  16.567  21.728  0.00  0.00    +0.000 OA
ATOM     28  C   UNL     1      -4.051  15.471  23.826  0.00  0.00    +0.000 C 
ENDBRANCH  18  25
ENDBRANCH   1  18
TORSDOF 3
ENDMDL
MODEL 4
REMARK VINA RESULT:      -6.7      8.277      9.815
REMARK  Name = 
REMARK  5 active torsions:
REMARK  status: ('A' for Active; 'I' for Inactive)
REMARK    1  A    between atoms: C_1  and  C_2
REMARK    2  A    between atoms: C_2  and  C_3
REMARK    3  A    between atoms: C_7  and  C_8
REMARK    4  A    between atoms: C_8  and  S_9
REMARK    5  A    between atoms: S_9  and  N_12
REMARK                            x       y       z     vdW  Elec       q    Type
REMARK                         _______ _______ _______ _____ _____    ______ ____
ROOT
ATOM      1  S   UNL     1       8.030  15.408  19.720  0.00  0.00    +0.000 S 
ATOM      2  O   UNL     1       7.640  14.201  20.355  0.00  0.00    +0.000 OA
ATOM      3  O   UNL     1       8.791  16.430  20.439  0.00  0.00    +0.000 OA
ENDROOT
BRANCH   1   4
ATOM      4  N   UNL     1       6.610  16.178  19.133  0.00  0.00    +0.000 NA
ATOM      5  C   UNL     1       5.782  15.513  18.095  0.00  0.00    +0.000 C 
ATOM      6  C   UNL     1       4.725  14.613  18.718  0.00  0.00    +0.000 C 
ATOM      7  C   UNL     1       3.822  15.291  19.772  0.00  0.00    +0.000 C 
ATOM      8  C   UNL     1       3.191  14.112  20.547  0.00  0.00    +0.000 C 
ATOM      9  C   UNL     1       1.858  14.147  20.587  0.00  0.00    +0.000 C 
ATOM     10  C   UNL     1       1.435  15.115  19.607  0.00  0.00    +0.000 A 
ATOM     11  C   UNL     1       0.170  15.252  19.057  0.00  0.00    +0.000 A 
ATOM     12  C   UNL     1      -0.088  16.388  18.306  0.00  0.00    +0.000 A 
ATOM     13  C   UNL     1       0.913  17.370  18.187  0.00  0.00    +0.000 A 
ATOM     14  C   UNL     1       2.227  17.147  18.657  0.00  0.00    +0.000 A 
ATOM     15  C   UNL     1       2.520  15.945  19.276  0.00  0.00    +0.000 A 
ATOM     16  C   UNL     1       4.669  16.170  20.729  0.00  0.00    +0.000 C 
ATOM     17  C   UNL     1       5.772  16.996  20.046  0.00  0.00    +0.000 C 
ENDBRANCH   1   4
BRANCH   1  18
ATOM     18  C   UNL     1       8.924  15.007  18.228  0.00  0.00    +0.000 C 
BRANCH  18  25
ATOM     19  C   UNL     1      10.508  12.665  20.558  0.00  0.00    +0.000 C 
ATOM     20  C   UNL     1      10.933  13.370  19.248  0.00  0.00    +0.000 C 
ATOM     21  C   UNL     1      11.835  14.546  19.656  0.00  0.00    +0.000 C 
ATOM     22  C   UNL     1      11.587  12.283  18.324  0.00  0.00    +0.000 C 
ATOM     23  C   UNL     1      12.007  13.069  17.081  0.00  0.00    +0.000 C 
ATOM     24  C   UNL     1      10.820  14.028  16.891  0.00  0.00    +0.000 C 
ATOM     25  C   UNL     1       9.885  13.791  18.160  0.00  0.00    +0.000 C 
ATOM     26  C   UNL     1       9.308  12.433  17.813  0.00  0.00    +0.000 C 
ATOM     27  O   UNL     1       8.167  12.229  17.409  0.00  0.00    +0.000 OA
ATOM     28  C   UNL     1      10.391  11.373  17.907  0.00  0.00    +0.000 C 
ENDBRANCH  18  25
ENDBRANCH   1  18
TORSDOF 3
ENDMDL
MODEL 5
REMARK VINA RESULT:      -6.7      4.996      9.765
REMARK  Name = 
REMARK  5 active torsions:
REMARK  status: ('A' for Active; 'I' for Inactive)
REMARK    1  A    between atoms: C_1  and  C_2
REMARK    2  A    between atoms: C_2  and  C_3
REMARK    3  A    between atoms: C_7  and  C_8
REMARK    4  A    between atoms: C_8  and  S_9
REMARK    5  A    between atoms: S_9  and  N_12
REMARK                            x       y       z     vdW  Elec       q    Type
REMARK                         _______ _______ _______ _____ _____    ______ ____
ROOT
ATOM      1  S   UNL     1      -1.189  14.381  20.726  0.00  0.00    +0.000 S 
ATOM      2  O   UNL     1      -1.246  15.653  20.099  0.00  0.00    +0.000 OA
ATOM      3  O   UNL     1      -0.577  14.215  22.044  0.00  0.00    +0.000 OA
ENDROOT
BRANCH   1   4
ATOM      4  N   UNL     1      -0.367  13.307  19.666  0.00  0.00    +0.000 NA
ATOM      5  C   UNL     1       1.040  12.923  19.946  0.00  0.00    +0.000 C 
ATOM      6  C   UNL     1       1.115  11.691  20.836  0.00  0.00    +0.000 C 
ATOM      7  C   UNL     1       0.314  10.469  20.336  0.00  0.00    +0.000 C 
ATOM      8  C   UNL     1       0.177   9.567  21.584  0.00  0.00    +0.000 C 
ATOM      9  C   UNL     1       0.614   8.320  21.397  0.00  0.00    +0.000 C 
ATOM     10  C   UNL     1       1.372   8.321  20.172  0.00  0.00    +0.000 A 
ATOM     11  C   UNL     1       2.280   7.363  19.748  0.00  0.00    +0.000 A 
ATOM     12  C   UNL     1       2.728   7.433  18.438  0.00  0.00    +0.000 A 
ATOM     13  C   UNL     1       2.202   8.422  17.588  0.00  0.00    +0.000 A 
ATOM     14  C   UNL     1       1.371   9.454  18.080  0.00  0.00    +0.000 A 
ATOM     15  C   UNL     1       1.046   9.466  19.425  0.00  0.00    +0.000 A 
ATOM     16  C   UNL     1      -1.086  10.904  19.832  0.00  0.00    +0.000 C 
ATOM     17  C   UNL     1      -1.104  12.200  19.004  0.00  0.00    +0.000 C 
ENDBRANCH   1   4
BRANCH   1  18
ATOM     18  C   UNL     1      -2.838  13.703  20.796  0.00  0.00    +0.000 C 
BRANCH  18  25
ATOM     19  C   UNL     1      -6.142  12.604  21.934  0.00  0.00    +0.000 C 
ATOM     20  C   UNL     1      -5.211  13.798  22.251  0.00  0.00    +0.000 C 
ATOM     21  C   UNL     1      -5.766  15.004  21.476  0.00  0.00    +0.000 C 
ATOM     22  C   UNL     1      -5.155  13.944  23.813  0.00  0.00    +0.000 C 
ATOM     23  C   UNL     1      -4.252  15.159  24.030  0.00  0.00    +0.000 C 
ATOM     24  C   UNL     1      -3.169  14.951  22.959  0.00  0.00    +0.000 C 
ATOM     25  C   UNL     1      -3.653  13.687  22.117  0.00  0.00    +0.000 C 
ATOM     26  C   UNL     1      -3.381  12.583  23.119  0.00  0.00    +0.000 C 
ATOM     27  O   UNL     1      -2.449  11.787  23.063  0.00  0.00    +0.000 OA
ATOM     28  C   UNL     1      -4.354  12.690  24.280  0.00  0.00    +0.000 C 
ENDBRANCH  18  25
ENDBRANCH   1  18
TORSDOF 3
ENDMDL
MODEL 6
REMARK VINA RESULT:      -6.6      9.363     11.024
REMARK  Name = 
REMARK  5 active torsions:
REMARK  status: ('A' for Active; 'I' for Inactive)
REMARK    1  A    between atoms: C_1  and  C_2
REMARK    2  A    between atoms: C_2  and  C_3
REMARK    3  A    between atoms: C_7  and  C_8
REMARK    4  A    between atoms: C_8  and  S_9
REMARK    5  A    between atoms: S_9  and  N_12
REMARK                            x       y       z     vdW  Elec       q    Type
REMARK                         _______ _______ _______ _____ _____    ______ ____
ROOT
ATOM      1  S   UNL     1       8.459  15.536  19.673  0.00  0.00    +0.000 S 
ATOM      2  O   UNL     1       8.902  16.843  19.345  0.00  0.00    +0.000 OA
ATOM      3  O   UNL     1       7.667  14.747  18.728  0.00  0.00    +0.000 OA
ENDROOT
BRANCH   1   4
ATOM      4  N   UNL     1       7.535  15.639  21.118  0.00  0.00    +0.000 NA
ATOM      5  C   UNL     1       6.454  14.654  21.378  0.00  0.00    +0.000 C 
ATOM      6  C   UNL     1       6.980  13.428  22.108  0.00  0.00    +0.000 C 
ATOM      7  C   UNL     1       7.762  13.722  23.407  0.00  0.00    +0.000 C 
ATOM      8  C   UNL     1       8.549  12.419  23.680  0.00  0.00    +0.000 C 
ATOM      9  C   UNL     1       8.342  11.910  24.896  0.00  0.00    +0.000 C 
ATOM     10  C   UNL     1       7.190  12.585  25.441  0.00  0.00    +0.000 A 
ATOM     11  C   UNL     1       6.408  12.174  26.510  0.00  0.00    +0.000 A 
ATOM     12  C   UNL     1       5.489  13.077  27.021  0.00  0.00    +0.000 A 
ATOM     13  C   UNL     1       5.434  14.375  26.482  0.00  0.00    +0.000 A 
ATOM     14  C   UNL     1       6.158  14.724  25.319  0.00  0.00    +0.000 A 
ATOM     15  C   UNL     1       6.963  13.770  24.721  0.00  0.00    +0.000 A 
ATOM     16  C   UNL     1       8.741  14.906  23.197  0.00  0.00    +0.000 C 
ATOM     17  C   UNL     1       8.174  16.081  22.384  0.00  0.00    +0.000 C 
ENDBRANCH   1   4
BRANCH   1  18
ATOM     18  C   UNL     1       9.869  14.557  20.159  0.00  0.00    +0.000 C 
BRANCH  18  25
ATOM     19  C   UNL     1       8.704  11.960  17.852  0.00  0.00    +0.000 C 
ATOM     20  C   UNL     1       9.884  12.103  18.843  0.00  0.00    +0.000 C 
ATOM     21  C   UNL     1       9.500  11.303  20.099  0.00  0.00    +0.000 C 
ATOM     22  C   UNL     1      11.181  11.635  18.094  0.00  0.00    +0.000 C 
ATOM     23  C   UNL     1      12.278  11.772  19.150  0.00  0.00    +0.000 C 
ATOM     24  C   UNL     1      11.889  13.085  19.849  0.00  0.00    +0.000 C 
ATOM     25  C   UNL     1      10.491  13.501  19.206  0.00  0.00    +0.000 C 
ATOM     26  C   UNL     1      10.954  13.950  17.835  0.00  0.00    +0.000 C 
ATOM     27  O   UNL     1      11.043  15.116  17.461  0.00  0.00    +0.000 OA
ATOM     28  C   UNL     1      11.426  12.751  17.032  0.00  0.00    +0.000 C 
ENDBRANCH  18  25
ENDBRANCH   1  18
TORSDOF 3
ENDMDL
MODEL 7
REMARK VINA RESULT:      -6.6      4.898      9.567
REMARK  Name = 
REMARK  5 active torsions:
REMARK  status: ('A' for Active; 'I' for Inactive)
REMARK    1  A    between atoms: C_1  and  C_2
REMARK    2  A    between atoms: C_2  and  C_3
REMARK    3  A    between atoms: C_7  and  C_8
REMARK    4  A    between atoms: C_8  and  S_9
REMARK    5  A    between atoms: S_9  and  N_12
REMARK                            x       y       z     vdW  Elec       q    Type
REMARK                         _______ _______ _______ _____ _____    ______ ____
ROOT
ATOM      1  S   UNL     1      -0.668  14.328  20.649  0.00  0.00    +0.000 S 
ATOM      2  O   UNL     1      -1.733  14.960  19.956  0.00  0.00    +0.000 OA
ATOM      3  O   UNL     1       0.412  15.110  21.251  0.00  0.00    +0.000 OA
ENDROOT
BRANCH   1   4
ATOM      4  N   UNL     1       0.077  13.216  19.571  0.00  0.00    +0.000 NA
ATOM      5  C   UNL     1       1.470  12.764  19.819  0.00  0.00    +0.000 C 
ATOM      6  C   UNL     1       1.506  11.529  20.707  0.00  0.00    +0.000 C 
ATOM      7  C   UNL     1       0.636  10.348  20.227  0.00  0.00    +0.000 C 
ATOM      8  C   UNL     1       0.484   9.453  21.478  0.00  0.00    +0.000 C 
ATOM      9  C   UNL     1       0.856   8.186  21.282  0.00  0.00    +0.000 C 
ATOM     10  C   UNL     1       1.584   8.152  20.039  0.00  0.00    +0.000 A 
ATOM     11  C   UNL     1       2.435   7.151  19.595  0.00  0.00    +0.000 A 
ATOM     12  C   UNL     1       2.856   7.200  18.275  0.00  0.00    +0.000 A 
ATOM     13  C   UNL     1       2.358   8.214  17.437  0.00  0.00    +0.000 A 
ATOM     14  C   UNL     1       1.589   9.284  17.948  0.00  0.00    +0.000 A 
ATOM     15  C   UNL     1       1.296   9.311  19.299  0.00  0.00    +0.000 A 
ATOM     16  C   UNL     1      -0.753  10.851  19.755  0.00  0.00    +0.000 C 
ATOM     17  C   UNL     1      -0.728  12.146  18.928  0.00  0.00    +0.000 C 
ENDBRANCH   1   4
BRANCH   1  18
ATOM     18  C   UNL     1      -1.353  13.274  21.915  0.00  0.00    +0.000 C 
BRANCH  18  25
ATOM     19  C   UNL     1      -3.780  15.975  22.399  0.00  0.00    +0.000 C 
ATOM     20  C   UNL     1      -3.432  14.663  23.142  0.00  0.00    +0.000 C 
ATOM     21  C   UNL     1      -2.589  15.063  24.364  0.00  0.00    +0.000 C 
ATOM     22  C   UNL     1      -4.784  13.924  23.443  0.00  0.00    +0.000 C 
ATOM     23  C   UNL     1      -4.349  12.672  24.204  0.00  0.00    +0.000 C 
ATOM     24  C   UNL     1      -3.077  12.258  23.445  0.00  0.00    +0.000 C 
ATOM     25  C   UNL     1      -2.822  13.429  22.393  0.00  0.00    +0.000 C 
ATOM     26  C   UNL     1      -3.936  13.144  21.406  0.00  0.00    +0.000 C 
ATOM     27  O   UNL     1      -3.791  12.632  20.299  0.00  0.00    +0.000 OA
ATOM     28  C   UNL     1      -5.279  13.459  22.040  0.00  0.00    +0.000 C 
ENDBRANCH  18  25
ENDBRANCH   1  18
TORSDOF 3
ENDMDL
MODEL 8
REMARK VINA RESULT:      -6.5      8.820     10.016
REMARK  Name = 
REMARK  5 active torsions:
REMARK  status: ('A' for Active; 'I' for Inactive)
REMARK    1  A    between atoms: C_1  and  C_2
REMARK    2  A    between atoms: C_2  and  C_3
REMARK    3  A    between atoms: C_7  and  C_8
REMARK    4  A    between atoms: C_8  and  S_9
REMARK    5  A    between atoms: S_9  and  N_12
REMARK                            x       y       z     vdW  Elec       q    Type
REMARK                         _______ _______ _______ _____ _____    ______ ____
ROOT
ATOM      1  S   UNL     1       9.174  15.544  20.893  0.00  0.00    +0.000 S 
ATOM      2  O   UNL     1       9.639  15.155  22.176  0.00  0.00    +0.000 OA
ATOM      3  O   UNL     1       9.976  16.411  20.030  0.00  0.00    +0.000 OA
ENDROOT
BRANCH   1   4
ATOM      4  N   UNL     1       7.658  16.327  21.098  0.00  0.00    +0.000 NA
ATOM      5  C   UNL     1       7.254  17.414  20.170  0.00  0.00    +0.000 C 
ATOM      6  C   UNL     1       6.517  16.867  18.957  0.00  0.00    +0.000 C 
ATOM      7  C   UNL     1       5.310  15.958  19.276  0.00  0.00    +0.000 C 
ATOM      8  C   UNL     1       5.047  15.197  17.956  0.00  0.00    +0.000 C 
ATOM      9  C   UNL     1       3.794  15.309  17.511  0.00  0.00    +0.000 C 
ATOM     10  C   UNL     1       3.180  16.380  18.254  0.00  0.00    +0.000 A 
ATOM     11  C   UNL     1       2.026  17.074  17.923  0.00  0.00    +0.000 A 
ATOM     12  C   UNL     1       1.478  17.909  18.884  0.00  0.00    +0.000 A 
ATOM     13  C   UNL     1       2.071  17.967  20.159  0.00  0.00    +0.000 A 
ATOM     14  C   UNL     1       3.310  17.342  20.426  0.00  0.00    +0.000 A 
ATOM     15  C   UNL     1       3.932  16.631  19.415  0.00  0.00    +0.000 A 
ATOM     16  C   UNL     1       5.664  14.960  20.410  0.00  0.00    +0.000 C 
ATOM     17  C   UNL     1       6.478  15.558  21.569  0.00  0.00    +0.000 C 
ENDBRANCH   1   4
BRANCH   1  18
ATOM     18  C   UNL     1       8.756  14.080  19.965  0.00  0.00    +0.000 C 
BRANCH  18  25
ATOM     19  C   UNL     1       8.940  10.900  18.154  0.00  0.00    +0.000 C 
ATOM     20  C   UNL     1       9.799  11.603  19.232  0.00  0.00    +0.000 C 
ATOM     21  C   UNL     1       9.449  10.937  20.573  0.00  0.00    +0.000 C 
ATOM     22  C   UNL     1      11.297  11.499  18.777  0.00  0.00    +0.000 C 
ATOM     23  C   UNL     1      12.067  12.180  19.909  0.00  0.00    +0.000 C 
ATOM     24  C   UNL     1      11.157  13.371  20.248  0.00  0.00    +0.000 C 
ATOM     25  C   UNL     1       9.852  13.165  19.355  0.00  0.00    +0.000 C 
ATOM     26  C   UNL     1      10.407  13.517  17.990  0.00  0.00    +0.000 C 
ATOM     27  O   UNL     1      10.195  14.563  17.384  0.00  0.00    +0.000 OA
ATOM     28  C   UNL     1      11.380  12.442  17.537  0.00  0.00    +0.000 C 
ENDBRANCH  18  25
ENDBRANCH   1  18
TORSDOF 3
ENDMDL
MODEL 9
REMARK VINA RESULT:      -6.4      5.293      9.888
REMARK  Name = 
REMARK  5 active torsions:
REMARK  status: ('A' for Active; 'I' for Inactive)
REMARK    1  A    between atoms: C_1  and  C_2
REMARK    2  A    between atoms: C_2  and  C_3
REMARK    3  A    between atoms: C_7  and  C_8
REMARK    4  A    between atoms: C_8  and  S_9
REMARK    5  A    between atoms: S_9  and  N_12
REMARK                            x       y       z     vdW  Elec       q    Type
REMARK                         _______ _______ _______ _____ _____    ______ ____
ROOT
ATOM      1  S   UNL     1      -0.594  15.167  20.412  0.00  0.00    +0.000 S 
ATOM      2  O   UNL     1      -1.922  15.379  19.960  0.00  0.00    +0.000 OA
ATOM      3  O   UNL     1       0.381  16.258  20.432  0.00  0.00    +0.000 OA
ENDROOT
BRANCH   1   4
ATOM      4  N   UNL     1       0.095  13.915  19.457  0.00  0.00    +0.000 NA
ATOM      5  C   UNL     1       1.429  13.365  19.807  0.00  0.00    +0.000 C 
ATOM      6  C   UNL     1       1.316  12.205  20.784  0.00  0.00    +0.000 C 
ATOM      7  C   UNL     1       0.365  11.068  20.348  0.00  0.00    +0.000 C 
ATOM      8  C   UNL     1       0.079  10.290  21.652  0.00  0.00    +0.000 C 
ATOM      9  C   UNL     1       0.344   8.984  21.568  0.00  0.00    +0.000 C 
ATOM     10  C   UNL     1       1.120   8.791  20.370  0.00  0.00    +0.000 A 
ATOM     11  C   UNL     1       1.896   7.689  20.044  0.00  0.00    +0.000 A 
ATOM     12  C   UNL     1       2.378   7.600  18.747  0.00  0.00    +0.000 A 
ATOM     13  C   UNL     1       2.010   8.585  17.812  0.00  0.00    +0.000 A 
ATOM     14  C   UNL     1       1.319   9.754  18.204  0.00  0.00    +0.000 A 
ATOM     15  C   UNL     1       0.970   9.911  19.534  0.00  0.00    +0.000 A 
ATOM     16  C   UNL     1      -0.951  11.651  19.771  0.00  0.00    +0.000 C 
ATOM     17  C   UNL     1      -0.773  12.872  18.854  0.00  0.00    +0.000 C 
ENDBRANCH   1   4
BRANCH   1  18
ATOM     18  C   UNL     1      -0.651  14.451  22.045  0.00  0.00    +0.000 C 
BRANCH  18  25
ATOM     19  C   UNL     1      -3.016  12.148  23.633  0.00  0.00    +0.000 C 
ATOM     20  C   UNL     1      -3.122  13.525  22.935  0.00  0.00    +0.000 C 
ATOM     21  C   UNL     1      -3.655  13.257  21.518  0.00  0.00    +0.000 C 
ATOM     22  C   UNL     1      -4.009  14.444  23.847  0.00  0.00    +0.000 C 
ATOM     23  C   UNL     1      -4.090  15.757  23.067  0.00  0.00    +0.000 C 
ATOM     24  C   UNL     1      -2.660  15.894  22.519  0.00  0.00    +0.000 C 
ATOM     25  C   UNL     1      -1.927  14.538  22.925  0.00  0.00    +0.000 C 
ATOM     26  C   UNL     1      -1.761  14.764  24.414  0.00  0.00    +0.000 C 
ATOM     27  O   UNL     1      -0.710  15.057  24.976  0.00  0.00    +0.000 OA
ATOM     28  C   UNL     1      -3.116  14.708  25.097  0.00  0.00    +0.000 C 
ENDBRANCH  18  25
ENDBRANCH   1  18
TORSDOF 3
ENDMDL
