MODEL 1
REMARK VINA RESULT:      -8.1      0.000      0.000
REMARK  Name = 
REMARK  2 active torsions:
REMARK  status: ('A' for Active; 'I' for Inactive)
REMARK    1  A    between atoms: C_2  and  C_3
REMARK    2  A    between atoms: C_6  and  C_8
REMARK                            x       y       z     vdW  Elec       q    Type
REMARK                         _______ _______ _______ _____ _____    ______ ____
ROOT
ATOM      1  C   UNL     1       4.890   3.939  18.672  0.00  0.00    +0.000 C 
ATOM      2  C   UNL     1       4.792   5.456  18.796  0.00  0.00    +0.000 C 
ATOM      3  N   UNL     1       4.512   6.137  17.522  0.00  0.00    +0.000 N 
ATOM      4  C   UNL     1       3.796   7.360  17.429  0.00  0.00    +0.000 C 
ATOM      5  O   UNL     1       3.991   8.156  16.507  0.00  0.00    +0.000 OA
ATOM      6  C   UNL     1       5.223   5.549  16.403  0.00  0.00    +0.000 A 
ATOM      7  C   UNL     1       5.330   6.156  15.140  0.00  0.00    +0.000 A 
ATOM      8  C   UNL     1       6.018   5.549  14.080  0.00  0.00    +0.000 A 
ATOM      9  C   UNL     1       6.604   4.304  14.249  0.00  0.00    +0.000 A 
ATOM     10  C   UNL     1       6.513   3.676  15.486  0.00  0.00    +0.000 A 
ATOM     11  C   UNL     1       5.836   4.287  16.549  0.00  0.00    +0.000 A 
ATOM     12  O   UNL     1       5.857   3.548  17.704  0.00  0.00    +0.000 OA
ENDROOT
BRANCH   4  13
ATOM     13  C   UNL     1       2.729   7.706  18.372  0.00  0.00    +0.000 A 
ATOM     14  C   UNL     1       2.412   7.053  19.558  0.00  0.00    +0.000 A 
ATOM     15  C   UNL     1       1.516   7.883  20.273  0.00  0.00    +0.000 A 
ATOM     16  C   UNL     1       0.954   7.884  21.561  0.00  0.00    +0.000 A 
ATOM     17  C   UNL     1       0.141   8.962  21.936  0.00  0.00    +0.000 A 
ATOM     18  C   UNL     1      -0.155   9.988  21.033  0.00  0.00    +0.000 A 
ATOM     19  C   UNL     1       0.371   9.986  19.736  0.00  0.00    +0.000 A 
ATOM     20  C   UNL     1       1.228   8.935  19.416  0.00  0.00    +0.000 A 
ATOM     21  O   UNL     1       1.940   8.816  18.262  0.00  0.00    +0.000 OA
ENDBRANCH   4  13
BRANCH   1  23
ATOM     22  O   UNL     1       2.889   3.366  17.448  0.00  0.00    +0.000 OA
ATOM     23  C   UNL     1       3.527   3.243  18.498  0.00  0.00    +0.000 C 
ATOM     24  N   UNL     1       3.010   2.506  19.571  0.00  0.00    +0.000 N 
ATOM     25  C   UNL     1       1.698   1.893  19.405  0.00  0.00    +0.000 C 
ATOM     26  C   UNL     1       0.656   2.779  20.081  0.00  0.00    +0.000 C 
ATOM     27  C   UNL     1       0.965   2.870  21.576  0.00  0.00    +0.000 C 
ATOM     28  C   UNL     1       2.401   3.354  21.819  0.00  0.00    +0.000 C 
ATOM     29  C   UNL     1       3.441   2.607  20.968  0.00  0.00    +0.000 C 
ENDBRANCH   1  23
TORSDOF 2
ENDMDL
MODEL 2
REMARK VINA RESULT:      -7.7      5.154      9.371
REMARK  Name = 
REMARK  2 active torsions:
REMARK  status: ('A' for Active; 'I' for Inactive)
REMARK    1  A    between atoms: C_2  and  C_3
REMARK    2  A    between atoms: C_6  and  C_8
REMARK                            x       y       z     vdW  Elec       q    Type
REMARK                         _______ _______ _______ _____ _____    ______ ____
ROOT
ATOM      1  C   UNL     1       0.039  11.830  18.799  0.00  0.00    +0.000 C 
ATOM      2  C   UNL     1      -0.996  11.609  19.897  0.00  0.00    +0.000 C 
ATOM      3  N   UNL     1      -0.495  10.823  21.035  0.00  0.00    +0.000 N 
ATOM      4  C   UNL     1      -0.966  10.982  22.366  0.00  0.00    +0.000 C 
ATOM      5  O   UNL     1      -0.948  10.052  23.174  0.00  0.00    +0.000 OA
ATOM      6  C   UNL     1       0.366   9.731  20.626  0.00  0.00    +0.000 A 
ATOM      7  C   UNL     1       0.765   8.689  21.480  0.00  0.00    +0.000 A 
ATOM      8  C   UNL     1       1.608   7.655  21.048  0.00  0.00    +0.000 A 
ATOM      9  C   UNL     1       2.092   7.645  19.749  0.00  0.00    +0.000 A 
ATOM     10  C   UNL     1       1.718   8.662  18.880  0.00  0.00    +0.000 A 
ATOM     11  C   UNL     1       0.866   9.689  19.307  0.00  0.00    +0.000 A 
ATOM     12  O   UNL     1       0.578  10.601  18.324  0.00  0.00    +0.000 OA
ENDROOT
BRANCH   4  13
ATOM     13  C   UNL     1      -1.421  12.278  22.876  0.00  0.00    +0.000 A 
ATOM     14  C   UNL     1      -2.734  12.683  23.088  0.00  0.00    +0.000 A 
ATOM     15  C   UNL     1      -2.692  13.881  23.840  0.00  0.00    +0.000 A 
ATOM     16  C   UNL     1      -3.634  14.693  24.495  0.00  0.00    +0.000 A 
ATOM     17  C   UNL     1      -3.174  15.798  25.225  0.00  0.00    +0.000 A 
ATOM     18  C   UNL     1      -1.814  16.122  25.258  0.00  0.00    +0.000 A 
ATOM     19  C   UNL     1      -0.866  15.342  24.586  0.00  0.00    +0.000 A 
ATOM     20  C   UNL     1      -1.348  14.215  23.924  0.00  0.00    +0.000 A 
ATOM     21  O   UNL     1      -0.585  13.262  23.322  0.00  0.00    +0.000 OA
ENDBRANCH   4  13
BRANCH   1  23
ATOM     22  O   UNL     1       2.245  12.516  19.502  0.00  0.00    +0.000 OA
ATOM     23  C   UNL     1       1.114  12.873  19.161  0.00  0.00    +0.000 C 
ATOM     24  N   UNL     1       0.764  14.229  19.137  0.00  0.00    +0.000 N 
ATOM     25  C   UNL     1       1.778  15.200  19.529  0.00  0.00    +0.000 C 
ATOM     26  C   UNL     1       1.528  15.611  20.976  0.00  0.00    +0.000 C 
ATOM     27  C   UNL     1       0.155  16.275  21.081  0.00  0.00    +0.000 C 
ATOM     28  C   UNL     1      -0.947  15.363  20.526  0.00  0.00    +0.000 C 
ATOM     29  C   UNL     1      -0.601  14.764  19.154  0.00  0.00    +0.000 C 
ENDBRANCH   1  23
TORSDOF 2
ENDMDL
MODEL 3
REMARK VINA RESULT:      -7.6      5.054      9.331
REMARK  Name = 
REMARK  2 active torsions:
REMARK  status: ('A' for Active; 'I' for Inactive)
REMARK    1  A    between atoms: C_2  and  C_3
REMARK    2  A    between atoms: C_6  and  C_8
REMARK                            x       y       z     vdW  Elec       q    Type
REMARK                         _______ _______ _______ _____ _____    ______ ____
ROOT
ATOM      1  C   UNL     1       0.073  11.889  18.832  0.00  0.00    +0.000 C 
ATOM      2  C   UNL     1      -0.962  11.557  19.903  0.00  0.00    +0.000 C 
ATOM      3  N   UNL     1      -0.452  10.678  20.967  0.00  0.00    +0.000 N 
ATOM      4  C   UNL     1      -0.928  10.710  22.305  0.00  0.00    +0.000 C 
ATOM      5  O   UNL     1      -0.899   9.711  23.026  0.00  0.00    +0.000 OA
ATOM      6  C   UNL     1       0.424   9.638  20.464  0.00  0.00    +0.000 A 
ATOM      7  C   UNL     1       0.836   8.529  21.222  0.00  0.00    +0.000 A 
ATOM      8  C   UNL     1       1.694   7.550  20.701  0.00  0.00    +0.000 A 
ATOM      9  C   UNL     1       2.180   7.663  19.408  0.00  0.00    +0.000 A 
ATOM     10  C   UNL     1       1.794   8.750  18.633  0.00  0.00    +0.000 A 
ATOM     11  C   UNL     1       0.928   9.723  19.148  0.00  0.00    +0.000 A 
ATOM     12  O   UNL     1       0.629  10.716  18.251  0.00  0.00    +0.000 OA
ENDROOT
BRANCH   4  13
ATOM     13  C   UNL     1      -1.402  11.949  22.928  0.00  0.00    +0.000 A 
ATOM     14  C   UNL     1      -0.744  13.173  22.969  0.00  0.00    +0.000 A 
ATOM     15  C   UNL     1      -1.676  14.140  23.415  0.00  0.00    +0.000 A 
ATOM     16  C   UNL     1      -1.699  15.541  23.526  0.00  0.00    +0.000 A 
ATOM     17  C   UNL     1      -2.881  16.160  23.956  0.00  0.00    +0.000 A 
ATOM     18  C   UNL     1      -3.997  15.402  24.322  0.00  0.00    +0.000 A 
ATOM     19  C   UNL     1      -3.981  14.004  24.248  0.00  0.00    +0.000 A 
ATOM     20  C   UNL     1      -2.814  13.424  23.754  0.00  0.00    +0.000 A 
ATOM     21  O   UNL     1      -2.640  12.101  23.484  0.00  0.00    +0.000 OA
ENDBRANCH   4  13
BRANCH   1  23
ATOM     22  O   UNL     1       2.134  12.539  19.909  0.00  0.00    +0.000 OA
ATOM     23  C   UNL     1       1.132  12.910  19.290  0.00  0.00    +0.000 C 
ATOM     24  N   UNL     1       0.909  14.268  19.029  0.00  0.00    +0.000 N 
ATOM     25  C   UNL     1       1.898  15.224  19.511  0.00  0.00    +0.000 C 
ATOM     26  C   UNL     1       1.389  15.840  20.810  0.00  0.00    +0.000 C 
ATOM     27  C   UNL     1       0.084  16.588  20.535  0.00  0.00    +0.000 C 
ATOM     28  C   UNL     1      -0.952  15.673  19.868  0.00  0.00    +0.000 C 
ATOM     29  C   UNL     1      -0.380  14.876  18.685  0.00  0.00    +0.000 C 
ENDBRANCH   1  23
TORSDOF 2
ENDMDL
MODEL 4
REMARK VINA RESULT:      -7.6      6.752     10.521
REMARK  Name = 
REMARK  2 active torsions:
REMARK  status: ('A' for Active; 'I' for Inactive)
REMARK    1  A    between atoms: C_2  and  C_3
REMARK    2  A    between atoms: C_6  and  C_8
REMARK                            x       y       z     vdW  Elec       q    Type
REMARK                         _______ _______ _______ _____ _____    ______ ____
ROOT
ATOM      1  C   UNL     1      -1.095  13.485  22.761  0.00  0.00    +0.000 C 
ATOM      2  C   UNL     1       0.185  13.916  22.053  0.00  0.00    +0.000 C 
ATOM      3  N   UNL     1       0.578  13.030  20.946  0.00  0.00    +0.000 N 
ATOM      4  C   UNL     1       1.288  13.476  19.799  0.00  0.00    +0.000 C 
ATOM      5  O   UNL     1       2.030  12.723  19.164  0.00  0.00    +0.000 OA
ATOM      6  C   UNL     1       0.356  11.629  21.244  0.00  0.00    +0.000 A 
ATOM      7  C   UNL     1       0.874  10.575  20.472  0.00  0.00    +0.000 A 
ATOM      8  C   UNL     1       0.627   9.231  20.789  0.00  0.00    +0.000 A 
ATOM      9  C   UNL     1      -0.162   8.904  21.880  0.00  0.00    +0.000 A 
ATOM     10  C   UNL     1      -0.691   9.923  22.662  0.00  0.00    +0.000 A 
ATOM     11  C   UNL     1      -0.436  11.266  22.354  0.00  0.00    +0.000 A 
ATOM     12  O   UNL     1      -1.012  12.145  23.234  0.00  0.00    +0.000 OA
ENDROOT
BRANCH   4  13
ATOM     13  C   UNL     1       1.116  14.827  19.259  0.00  0.00    +0.000 A 
ATOM     14  C   UNL     1       2.098  15.643  18.708  0.00  0.00    +0.000 A 
ATOM     15  C   UNL     1       1.443  16.723  18.071  0.00  0.00    +0.000 A 
ATOM     16  C   UNL     1       1.829  17.779  17.226  0.00  0.00    +0.000 A 
ATOM     17  C   UNL     1       0.837  18.631  16.723  0.00  0.00    +0.000 A 
ATOM     18  C   UNL     1      -0.502  18.474  17.095  0.00  0.00    +0.000 A 
ATOM     19  C   UNL     1      -0.900  17.448  17.960  0.00  0.00    +0.000 A 
ATOM     20  C   UNL     1       0.101  16.579  18.390  0.00  0.00    +0.000 A 
ATOM     21  O   UNL     1      -0.093  15.450  19.126  0.00  0.00    +0.000 OA
ENDBRANCH   4  13
BRANCH   1  23
ATOM     22  O   UNL     1      -2.381  14.641  21.077  0.00  0.00    +0.000 OA
ATOM     23  C   UNL     1      -2.376  13.776  21.957  0.00  0.00    +0.000 C 
ATOM     24  N   UNL     1      -3.541  13.069  22.278  0.00  0.00    +0.000 N 
ATOM     25  C   UNL     1      -4.756  13.390  21.540  0.00  0.00    +0.000 C 
ATOM     26  C   UNL     1      -5.613  14.323  22.390  0.00  0.00    +0.000 C 
ATOM     27  C   UNL     1      -6.005  13.608  23.684  0.00  0.00    +0.000 C 
ATOM     28  C   UNL     1      -4.768  13.094  24.432  0.00  0.00    +0.000 C 
ATOM     29  C   UNL     1      -3.786  12.336  23.524  0.00  0.00    +0.000 C 
ENDBRANCH   1  23
TORSDOF 2
ENDMDL
MODEL 5
REMARK VINA RESULT:      -7.5      7.187     12.382
REMARK  Name = 
REMARK  2 active torsions:
REMARK  status: ('A' for Active; 'I' for Inactive)
REMARK    1  A    between atoms: C_2  and  C_3
REMARK    2  A    between atoms: C_6  and  C_8
REMARK                            x       y       z     vdW  Elec       q    Type
REMARK                         _______ _______ _______ _____ _____    ______ ____
ROOT
ATOM      1  C   UNL     1      -4.353  14.433  20.819  0.00  0.00    +0.000 C 
ATOM      2  C   UNL     1      -2.881  14.409  21.217  0.00  0.00    +0.000 C 
ATOM      3  N   UNL     1      -2.656  14.543  22.664  0.00  0.00    +0.000 N 
ATOM      4  C   UNL     1      -1.548  13.967  23.342  0.00  0.00    +0.000 C 
ATOM      5  O   UNL     1      -1.088  14.465  24.371  0.00  0.00    +0.000 OA
ATOM      6  C   UNL     1      -3.555  15.496  23.286  0.00  0.00    +0.000 A 
ATOM      7  C   UNL     1      -3.386  15.993  24.590  0.00  0.00    +0.000 A 
ATOM      8  C   UNL     1      -4.285  16.906  25.159  0.00  0.00    +0.000 A 
ATOM      9  C   UNL     1      -5.392  17.335  24.444  0.00  0.00    +0.000 A 
ATOM     10  C   UNL     1      -5.589  16.860  23.153  0.00  0.00    +0.000 A 
ATOM     11  C   UNL     1      -4.685  15.956  22.579  0.00  0.00    +0.000 A 
ATOM     12  O   UNL     1      -5.011  15.603  21.294  0.00  0.00    +0.000 OA
ENDROOT
BRANCH   4  13
ATOM     13  C   UNL     1      -0.944  12.705  22.903  0.00  0.00    +0.000 A 
ATOM     14  C   UNL     1      -1.275  11.424  23.329  0.00  0.00    +0.000 A 
ATOM     15  C   UNL     1      -0.646  10.510  22.450  0.00  0.00    +0.000 A 
ATOM     16  C   UNL     1      -0.694   9.122  22.236  0.00  0.00    +0.000 A 
ATOM     17  C   UNL     1       0.048   8.581  21.177  0.00  0.00    +0.000 A 
ATOM     18  C   UNL     1       0.865   9.392  20.383  0.00  0.00    +0.000 A 
ATOM     19  C   UNL     1       0.949  10.772  20.602  0.00  0.00    +0.000 A 
ATOM     20  C   UNL     1       0.149  11.287  21.620  0.00  0.00    +0.000 A 
ATOM     21  O   UNL     1      -0.012  12.607  21.909  0.00  0.00    +0.000 OA
ENDBRANCH   4  13
BRANCH   1  23
ATOM     22  O   UNL     1      -4.687  12.367  22.023  0.00  0.00    +0.000 OA
ATOM     23  C   UNL     1      -5.105  13.129  21.147  0.00  0.00    +0.000 C 
ATOM     24  N   UNL     1      -6.244  12.808  20.398  0.00  0.00    +0.000 N 
ATOM     25  C   UNL     1      -6.915  11.547  20.689  0.00  0.00    +0.000 C 
ATOM     26  C   UNL     1      -6.481  10.513  19.656  0.00  0.00    +0.000 C 
ATOM     27  C   UNL     1      -6.908  10.981  18.264  0.00  0.00    +0.000 C 
ATOM     28  C   UNL     1      -6.368  12.384  17.959  0.00  0.00    +0.000 C 
ATOM     29  C   UNL     1      -6.610  13.385  19.101  0.00  0.00    +0.000 C 
ENDBRANCH   1  23
TORSDOF 2
ENDMDL
MODEL 6
REMARK VINA RESULT:      -7.4      8.464     12.965
REMARK  Name = 
REMARK  2 active torsions:
REMARK  status: ('A' for Active; 'I' for Inactive)
REMARK    1  A    between atoms: C_2  and  C_3
REMARK    2  A    between atoms: C_6  and  C_8
REMARK                            x       y       z     vdW  Elec       q    Type
REMARK                         _______ _______ _______ _____ _____    ______ ____
ROOT
ATOM      1  C   UNL     1      -2.866  13.381  23.550  0.00  0.00    +0.000 C 
ATOM      2  C   UNL     1      -4.314  12.944  23.754  0.00  0.00    +0.000 C 
ATOM      3  N   UNL     1      -5.290  14.032  23.586  0.00  0.00    +0.000 N 
ATOM      4  C   UNL     1      -6.617  13.829  23.121  0.00  0.00    +0.000 C 
ATOM      5  O   UNL     1      -7.539  14.578  23.449  0.00  0.00    +0.000 OA
ATOM      6  C   UNL     1      -4.831  15.289  24.143  0.00  0.00    +0.000 A 
ATOM      7  C   UNL     1      -5.661  16.405  24.341  0.00  0.00    +0.000 A 
ATOM      8  C   UNL     1      -5.175  17.608  24.874  0.00  0.00    +0.000 A 
ATOM      9  C   UNL     1      -3.836  17.733  25.208  0.00  0.00    +0.000 A 
ATOM     10  C   UNL     1      -2.988  16.649  25.022  0.00  0.00    +0.000 A 
ATOM     11  C   UNL     1      -3.474  15.443  24.501  0.00  0.00    +0.000 A 
ATOM     12  O   UNL     1      -2.516  14.467  24.400  0.00  0.00    +0.000 OA
ENDROOT
BRANCH   4  13
ATOM     13  C   UNL     1      -6.948  12.770  22.164  0.00  0.00    +0.000 A 
ATOM     14  C   UNL     1      -6.631  12.733  20.810  0.00  0.00    +0.000 A 
ATOM     15  C   UNL     1      -6.894  11.421  20.350  0.00  0.00    +0.000 A 
ATOM     16  C   UNL     1      -6.655  10.702  19.166  0.00  0.00    +0.000 A 
ATOM     17  C   UNL     1      -7.009   9.346  19.122  0.00  0.00    +0.000 A 
ATOM     18  C   UNL     1      -7.639   8.732  20.209  0.00  0.00    +0.000 A 
ATOM     19  C   UNL     1      -7.914   9.442  21.384  0.00  0.00    +0.000 A 
ATOM     20  C   UNL     1      -7.490  10.768  21.419  0.00  0.00    +0.000 A 
ATOM     21  O   UNL     1      -7.544  11.589  22.504  0.00  0.00    +0.000 OA
ENDBRANCH   4  13
BRANCH   1  23
ATOM     22  O   UNL     1      -3.260  14.209  21.316  0.00  0.00    +0.000 OA
ATOM     23  C   UNL     1      -2.491  13.609  22.074  0.00  0.00    +0.000 C 
ATOM     24  N   UNL     1      -1.282  13.083  21.602  0.00  0.00    +0.000 N 
ATOM     25  C   UNL     1      -0.964  13.267  20.192  0.00  0.00    +0.000 C 
ATOM     26  C   UNL     1      -1.309  11.984  19.442  0.00  0.00    +0.000 C 
ATOM     27  C   UNL     1      -0.457  10.837  19.986  0.00  0.00    +0.000 C 
ATOM     28  C   UNL     1      -0.619  10.697  21.505  0.00  0.00    +0.000 C 
ATOM     29  C   UNL     1      -0.490  12.034  22.252  0.00  0.00    +0.000 C 
ENDBRANCH   1  23
TORSDOF 2
ENDMDL
MODEL 7
REMARK VINA RESULT:      -7.4      8.070     12.090
REMARK  Name = 
REMARK  2 active torsions:
REMARK  status: ('A' for Active; 'I' for Inactive)
REMARK    1  A    between atoms: C_2  and  C_3
REMARK    2  A    between atoms: C_6  and  C_8
REMARK                            x       y       z     vdW  Elec       q    Type
REMARK                         _______ _______ _______ _____ _____    ______ ____
ROOT
ATOM      1  C   UNL     1      -1.442  12.959  22.880  0.00  0.00    +0.000 C 
ATOM      2  C   UNL     1      -2.910  12.673  23.178  0.00  0.00    +0.000 C 
ATOM      3  N   UNL     1      -3.722  13.883  23.378  0.00  0.00    +0.000 N 
ATOM      4  C   UNL     1      -5.105  13.961  23.062  0.00  0.00    +0.000 C 
ATOM      5  O   UNL     1      -5.864  14.725  23.662  0.00  0.00    +0.000 OA
ATOM      6  C   UNL     1      -3.022  14.911  24.124  0.00  0.00    +0.000 A 
ATOM      7  C   UNL     1      -3.648  16.047  24.665  0.00  0.00    +0.000 A 
ATOM      8  C   UNL     1      -2.933  17.023  25.372  0.00  0.00    +0.000 A 
ATOM      9  C   UNL     1      -1.563  16.900  25.543  0.00  0.00    +0.000 A 
ATOM     10  C   UNL     1      -0.913  15.789  25.018  0.00  0.00    +0.000 A 
ATOM     11  C   UNL     1      -1.629  14.807  24.321  0.00  0.00    +0.000 A 
ATOM     12  O   UNL     1      -0.845  13.768  23.888  0.00  0.00    +0.000 OA
ENDROOT
BRANCH   4  13
ATOM     13  C   UNL     1      -5.689  13.201  21.953  0.00  0.00    +0.000 A 
ATOM     14  C   UNL     1      -5.397  13.332  20.600  0.00  0.00    +0.000 A 
ATOM     15  C   UNL     1      -5.975  12.225  19.934  0.00  0.00    +0.000 A 
ATOM     16  C   UNL     1      -5.924  11.693  18.633  0.00  0.00    +0.000 A 
ATOM     17  C   UNL     1      -6.600  10.493  18.374  0.00  0.00    +0.000 A 
ATOM     18  C   UNL     1      -7.356   9.864  19.368  0.00  0.00    +0.000 A 
ATOM     19  C   UNL     1      -7.444  10.397  20.659  0.00  0.00    +0.000 A 
ATOM     20  C   UNL     1      -6.708  11.555  20.902  0.00  0.00    +0.000 A 
ATOM     21  O   UNL     1      -6.555  12.157  22.113  0.00  0.00    +0.000 OA
ENDBRANCH   4  13
BRANCH   1  23
ATOM     22  O   UNL     1      -1.750  14.493  21.041  0.00  0.00    +0.000 OA
ATOM     23  C   UNL     1      -1.189  13.472  21.450  0.00  0.00    +0.000 C 
ATOM     24  N   UNL     1      -0.345  12.731  20.613  0.00  0.00    +0.000 N 
ATOM     25  C   UNL     1      -0.154  13.205  19.248  0.00  0.00    +0.000 C 
ATOM     26  C   UNL     1      -1.058  12.399  18.320  0.00  0.00    +0.000 C 
ATOM     27  C   UNL     1      -0.658  10.925  18.383  0.00  0.00    +0.000 C 
ATOM     28  C   UNL     1      -0.677  10.404  19.826  0.00  0.00    +0.000 C 
ATOM     29  C   UNL     1       0.050  11.333  20.812  0.00  0.00    +0.000 C 
ENDBRANCH   1  23
TORSDOF 2
ENDMDL
MODEL 8
REMARK VINA RESULT:      -7.3      7.173     12.480
REMARK  Name = 
REMARK  2 active torsions:
REMARK  status: ('A' for Active; 'I' for Inactive)
REMARK    1  A    between atoms: C_2  and  C_3
REMARK    2  A    between atoms: C_6  and  C_8
REMARK                            x       y       z     vdW  Elec       q    Type
REMARK                         _______ _______ _______ _____ _____    ______ ____
ROOT
ATOM      1  C   UNL     1      -4.752  14.510  20.954  0.00  0.00    +0.000 C 
ATOM      2  C   UNL     1      -3.243  14.413  21.155  0.00  0.00    +0.000 C 
ATOM      3  N   UNL     1      -2.827  14.481  22.564  0.00  0.00    +0.000 N 
ATOM      4  C   UNL     1      -1.667  13.835  23.070  0.00  0.00    +0.000 C 
ATOM      5  O   UNL     1      -1.056  14.273  24.048  0.00  0.00    +0.000 OA
ATOM      6  C   UNL     1      -3.595  15.442  23.331  0.00  0.00    +0.000 A 
ATOM      7  C   UNL     1      -3.238  15.880  24.617  0.00  0.00    +0.000 A 
ATOM      8  C   UNL     1      -4.015  16.803  25.330  0.00  0.00    +0.000 A 
ATOM      9  C   UNL     1      -5.185  17.303  24.781  0.00  0.00    +0.000 A 
ATOM     10  C   UNL     1      -5.568  16.888  23.512  0.00  0.00    +0.000 A 
ATOM     11  C   UNL     1      -4.787  15.974  22.793  0.00  0.00    +0.000 A 
ATOM     12  O   UNL     1      -5.291  15.685  21.551  0.00  0.00    +0.000 OA
ENDROOT
BRANCH   4  13
ATOM     13  C   UNL     1      -1.181  12.569  22.514  0.00  0.00    +0.000 A 
ATOM     14  C   UNL     1      -0.703  12.347  21.227  0.00  0.00    +0.000 A 
ATOM     15  C   UNL     1      -0.090  11.071  21.218  0.00  0.00    +0.000 A 
ATOM     16  C   UNL     1       0.693  10.337  20.310  0.00  0.00    +0.000 A 
ATOM     17  C   UNL     1       1.195   9.092  20.714  0.00  0.00    +0.000 A 
ATOM     18  C   UNL     1       0.880   8.562  21.969  0.00  0.00    +0.000 A 
ATOM     19  C   UNL     1       0.076   9.266  22.873  0.00  0.00    +0.000 A 
ATOM     20  C   UNL     1      -0.353  10.528  22.467  0.00  0.00    +0.000 A 
ATOM     21  O   UNL     1      -1.030  11.421  23.239  0.00  0.00    +0.000 OA
ENDBRANCH   4  13
BRANCH   1  23
ATOM     22  O   UNL     1      -5.156  12.549  22.302  0.00  0.00    +0.000 OA
ATOM     23  C   UNL     1      -5.511  13.224  21.332  0.00  0.00    +0.000 C 
ATOM     24  N   UNL     1      -6.581  12.818  20.524  0.00  0.00    +0.000 N 
ATOM     25  C   UNL     1      -7.257  11.573  20.869  0.00  0.00    +0.000 C 
ATOM     26  C   UNL     1      -6.726  10.463  19.968  0.00  0.00    +0.000 C 
ATOM     27  C   UNL     1      -7.043  10.802  18.510  0.00  0.00    +0.000 C 
ATOM     28  C   UNL     1      -6.498  12.185  18.130  0.00  0.00    +0.000 C 
ATOM     29  C   UNL     1      -6.846  13.274  19.157  0.00  0.00    +0.000 C 
ENDBRANCH   1  23
TORSDOF 2
ENDMDL
MODEL 9
REMARK VINA RESULT:      -7.3      6.999     11.064
REMARK  Name = 
REMARK  2 active torsions:
REMARK  status: ('A' for Active; 'I' for Inactive)
REMARK    1  A    between atoms: C_2  and  C_3
REMARK    2  A    between atoms: C_6  and  C_8
REMARK                            x       y       z     vdW  Elec       q    Type
REMARK                         _______ _______ _______ _____ _____    ______ ____
ROOT
ATOM      1  C   UNL     1      -0.861  12.592  22.689  0.00  0.00    +0.000 C 
ATOM      2  C   UNL     1      -2.257  12.199  22.217  0.00  0.00    +0.000 C 
ATOM      3  N   UNL     1      -3.110  13.346  21.871  0.00  0.00    +0.000 N 
ATOM      4  C   UNL     1      -4.133  13.294  20.887  0.00  0.00    +0.000 C 
ATOM      5  O   UNL     1      -5.128  14.020  20.948  0.00  0.00    +0.000 OA
ATOM      6  C   UNL     1      -2.945  14.462  22.782  0.00  0.00    +0.000 A 
ATOM      7  C   UNL     1      -3.813  15.567  22.829  0.00  0.00    +0.000 A 
ATOM      8  C   UNL     1      -3.612  16.632  23.719  0.00  0.00    +0.000 A 
ATOM      9  C   UNL     1      -2.524  16.630  24.577  0.00  0.00    +0.000 A 
ATOM     10  C   UNL     1      -1.645  15.554  24.553  0.00  0.00    +0.000 A 
ATOM     11  C   UNL     1      -1.851  14.483  23.673  0.00  0.00    +0.000 A 
ATOM     12  O   UNL     1      -0.909  13.493  23.789  0.00  0.00    +0.000 OA
ENDROOT
BRANCH   4  13
ATOM     13  C   UNL     1      -4.025  12.437  19.703  0.00  0.00    +0.000 A 
ATOM     14  C   UNL     1      -4.990  12.233  18.723  0.00  0.00    +0.000 A 
ATOM     15  C   UNL     1      -4.363  11.565  17.644  0.00  0.00    +0.000 A 
ATOM     16  C   UNL     1      -4.723  11.215  16.331  0.00  0.00    +0.000 A 
ATOM     17  C   UNL     1      -3.761  10.605  15.513  0.00  0.00    +0.000 A 
ATOM     18  C   UNL     1      -2.489  10.298  16.006  0.00  0.00    +0.000 A 
ATOM     19  C   UNL     1      -2.125  10.611  17.321  0.00  0.00    +0.000 A 
ATOM     20  C   UNL     1      -3.081  11.276  18.086  0.00  0.00    +0.000 A 
ATOM     21  O   UNL     1      -2.885  11.779  19.336  0.00  0.00    +0.000 OA
ENDBRANCH   4  13
BRANCH   1  23
ATOM     22  O   UNL     1      -0.021  14.199  21.095  0.00  0.00    +0.000 OA
ATOM     23  C   UNL     1       0.070  13.056  21.553  0.00  0.00    +0.000 C 
ATOM     24  N   UNL     1       0.988  12.140  21.025  0.00  0.00    +0.000 N 
ATOM     25  C   UNL     1       1.829  12.581  19.919  0.00  0.00    +0.000 C 
ATOM     26  C   UNL     1       1.229  12.066  18.614  0.00  0.00    +0.000 C 
ATOM     27  C   UNL     1       1.216  10.537  18.635  0.00  0.00    +0.000 C 
ATOM     28  C   UNL     1       0.485  10.004  19.874  0.00  0.00    +0.000 C 
ATOM     29  C   UNL     1       0.933  10.683  21.178  0.00  0.00    +0.000 C 
ENDBRANCH   1  23
TORSDOF 2
ENDMDL
