MODEL 1
REMARK VINA RESULT:      -7.9      0.000      0.000
REMARK  Name = 
REMARK  7 active torsions:
REMARK  status: ('A' for Active; 'I' for Inactive)
REMARK    1  A    between atoms: C_1  and  C_2
REMARK    2  A    between atoms: C_3  and  C_4
REMARK    3  A    between atoms: C_4  and  C_5
REMARK    4  A    between atoms: CA_9  and  C_10
REMARK    5  A    between atoms: C_10  and  OXT_12
REMARK    6  A    between atoms: N_21  and  C_22
REMARK    7  A    between atoms: N_25  and  C_26
REMARK                            x       y       z     vdW  Elec       q    Type
REMARK                         _______ _______ _______ _____ _____    ______ ____
ROOT
ATOM      1  C   UNL     1       5.764   7.452  17.530  0.00  0.00    +0.000 C 
ATOM      2  C   UNL     1       4.997   6.183  17.709  0.00  0.00    +0.000 A 
ATOM      3  C   UNL     1       5.466   4.879  17.576  0.00  0.00    +0.000 A 
ATOM      4  C   UNL     1       4.376   4.011  17.909  0.00  0.00    +0.000 A 
ATOM      5  C   UNL     1       4.220   2.604  17.935  0.00  0.00    +0.000 A 
ATOM      6  C   UNL     1       2.973   2.034  18.226  0.00  0.00    +0.000 A 
ATOM      7  C   UNL     1       1.877   2.848  18.462  0.00  0.00    +0.000 A 
ATOM      8 CL   UNL     1       0.335   2.139  18.758  0.00  0.00    +0.000 Cl
ATOM      9  C   UNL     1       1.998   4.237  18.448  0.00  0.00    +0.000 A 
ATOM     10  C   UNL     1       3.268   4.812  18.207  0.00  0.00    +0.000 A 
ATOM     11  N   UNL     1       3.666   6.148  18.119  0.00  0.00    +0.000 N 
ENDROOT
BRANCH  11  12
ATOM     12  C   UNL     1       2.828   7.276  18.383  0.00  0.00    +0.000 A 
ATOM     13  C   UNL     1       2.428   8.275  17.470  0.00  0.00    +0.000 A 
ATOM     14  N   UNL     1       1.654   9.207  18.036  0.00  0.00    +0.000 NA
ATOM     15  N   UNL     1       1.549   8.798  19.311  0.00  0.00    +0.000 N 
ATOM     16  C   UNL     1       0.797   9.573  20.268  0.00  0.00    +0.000 C 
ATOM     17  C   UNL     1       2.225   7.638  19.567  0.00  0.00    +0.000 A 
ENDBRANCH  11  12
BRANCH   3  18
ATOM     18  C   UNL     1       6.818   4.470  17.064  0.00  0.00    +0.000 C 
BRANCH  18  19
ATOM     19  C   UNL     1       6.758   4.345  15.554  0.00  0.00    +0.000 A 
ATOM     20  C   UNL     1       5.786   3.530  14.969  0.00  0.00    +0.000 A 
ATOM     21  C   UNL     1       5.631   3.524  13.582  0.00  0.00    +0.000 A 
ATOM     22  C   UNL     1       6.451   4.325  12.800  0.00  0.00    +0.000 A 
ATOM     23  CA  UNL     1       7.401   5.095  13.446  0.00  0.00    +0.000 A 
ATOM     24  N   UNL     1       7.579   5.135  14.805  0.00  0.00    +0.000 NA
BRANCH  23  25
ATOM     25  C   UNL     1       8.310   5.975  12.648  0.00  0.00    +0.000 C 
ATOM     26  O   UNL     1       8.034   6.485  11.577  0.00  0.00    +0.000 OA
BRANCH  25  27
ATOM     27  OXT UNL     1       9.493   6.133  13.292  0.00  0.00    +0.000 OA
ATOM     28  HXT UNL     1       9.387   6.857  13.953  0.00  0.00    +0.000 HD
ENDBRANCH  25  27
ENDBRANCH  23  25
ENDBRANCH  18  19
ENDBRANCH   3  18
TORSDOF 5
ENDMDL
MODEL 2
REMARK VINA RESULT:      -7.9      1.166      1.306
REMARK  Name = 
REMARK  7 active torsions:
REMARK  status: ('A' for Active; 'I' for Inactive)
REMARK    1  A    between atoms: C_1  and  C_2
REMARK    2  A    between atoms: C_3  and  C_4
REMARK    3  A    between atoms: C_4  and  C_5
REMARK    4  A    between atoms: CA_9  and  C_10
REMARK    5  A    between atoms: C_10  and  OXT_12
REMARK    6  A    between atoms: N_21  and  C_22
REMARK    7  A    between atoms: N_25  and  C_26
REMARK                            x       y       z     vdW  Elec       q    Type
REMARK                         _______ _______ _______ _____ _____    ______ ____
ROOT
ATOM      1  C   UNL     1       5.413   7.459  17.237  0.00  0.00    +0.000 C 
ATOM      2  C   UNL     1       4.889   6.306  18.028  0.00  0.00    +0.000 A 
ATOM      3  C   UNL     1       5.520   5.091  18.286  0.00  0.00    +0.000 A 
ATOM      4  C   UNL     1       4.646   4.342  19.138  0.00  0.00    +0.000 A 
ATOM      5  C   UNL     1       4.712   3.049  19.711  0.00  0.00    +0.000 A 
ATOM      6  C   UNL     1       3.633   2.546  20.450  0.00  0.00    +0.000 A 
ATOM      7  C   UNL     1       2.482   3.303  20.600  0.00  0.00    +0.000 A 
ATOM      8 CL   UNL     1       1.138   2.652  21.458  0.00  0.00    +0.000 Cl
ATOM      9  C   UNL     1       2.388   4.582  20.053  0.00  0.00    +0.000 A 
ATOM     10  C   UNL     1       3.496   5.111  19.352  0.00  0.00    +0.000 A 
ATOM     11  N   UNL     1       3.667   6.333  18.697  0.00  0.00    +0.000 N 
ENDROOT
BRANCH  11  12
ATOM     12  C   UNL     1       2.725   7.408  18.702  0.00  0.00    +0.000 A 
ATOM     13  C   UNL     1       2.277   8.157  17.593  0.00  0.00    +0.000 A 
ATOM     14  N   UNL     1       1.404   9.109  17.935  0.00  0.00    +0.000 NA
ATOM     15  N   UNL     1       1.283   8.964  19.266  0.00  0.00    +0.000 N 
ATOM     16  C   UNL     1       0.429   9.845  20.023  0.00  0.00    +0.000 C 
ATOM     17  C   UNL     1       2.046   7.949  19.772  0.00  0.00    +0.000 A 
ENDBRANCH  11  12
BRANCH   3  18
ATOM     18  C   UNL     1       6.812   4.619  17.682  0.00  0.00    +0.000 C 
BRANCH  18  19
ATOM     19  C   UNL     1       6.598   4.345  16.206  0.00  0.00    +0.000 A 
ATOM     20  C   UNL     1       5.478   3.619  15.796  0.00  0.00    +0.000 A 
ATOM     21  C   UNL     1       5.197   3.489  14.436  0.00  0.00    +0.000 A 
ATOM     22  C   UNL     1       6.040   4.079  13.504  0.00  0.00    +0.000 A 
ATOM     23  CA  UNL     1       7.139   4.771  13.982  0.00  0.00    +0.000 A 
ATOM     24  N   UNL     1       7.444   4.928  15.309  0.00  0.00    +0.000 NA
BRANCH  23  25
ATOM     25  C   UNL     1       8.079   5.425  13.019  0.00  0.00    +0.000 C 
ATOM     26  O   UNL     1       9.055   6.084  13.327  0.00  0.00    +0.000 OA
BRANCH  25  27
ATOM     27  OXT UNL     1       7.693   5.172  11.744  0.00  0.00    +0.000 OA
ATOM     28  HXT UNL     1       7.885   4.225  11.548  0.00  0.00    +0.000 HD
ENDBRANCH  25  27
ENDBRANCH  23  25
ENDBRANCH  18  19
ENDBRANCH   3  18
TORSDOF 5
ENDMDL
MODEL 3
REMARK VINA RESULT:      -7.9      1.617      1.973
REMARK  Name = 
REMARK  7 active torsions:
REMARK  status: ('A' for Active; 'I' for Inactive)
REMARK    1  A    between atoms: C_1  and  C_2
REMARK    2  A    between atoms: C_3  and  C_4
REMARK    3  A    between atoms: C_4  and  C_5
REMARK    4  A    between atoms: CA_9  and  C_10
REMARK    5  A    between atoms: C_10  and  OXT_12
REMARK    6  A    between atoms: N_21  and  C_22
REMARK    7  A    between atoms: N_25  and  C_26
REMARK                            x       y       z     vdW  Elec       q    Type
REMARK                         _______ _______ _______ _____ _____    ______ ____
ROOT
ATOM      1  C   UNL     1       5.928   7.218  17.135  0.00  0.00    +0.000 C 
ATOM      2  C   UNL     1       5.125   5.976  17.341  0.00  0.00    +0.000 A 
ATOM      3  C   UNL     1       5.540   4.656  17.181  0.00  0.00    +0.000 A 
ATOM      4  C   UNL     1       4.436   3.825  17.556  0.00  0.00    +0.000 A 
ATOM      5  C   UNL     1       4.231   2.425  17.581  0.00  0.00    +0.000 A 
ATOM      6  C   UNL     1       2.978   1.898  17.924  0.00  0.00    +0.000 A 
ATOM      7  C   UNL     1       1.924   2.749  18.213  0.00  0.00    +0.000 A 
ATOM      8 CL   UNL     1       0.372   2.093  18.572  0.00  0.00    +0.000 Cl
ATOM      9  C   UNL     1       2.094   4.132  18.201  0.00  0.00    +0.000 A 
ATOM     10  C   UNL     1       3.371   4.664  17.908  0.00  0.00    +0.000 A 
ATOM     11  N   UNL     1       3.812   5.986  17.809  0.00  0.00    +0.000 N 
ENDROOT
BRANCH  11  12
ATOM     12  C   UNL     1       3.028   7.140  18.115  0.00  0.00    +0.000 A 
ATOM     13  C   UNL     1       2.749   8.233  17.267  0.00  0.00    +0.000 A 
ATOM     14  N   UNL     1       1.997   9.165  17.861  0.00  0.00    +0.000 NA
ATOM     15  N   UNL     1       1.784   8.663  19.089  0.00  0.00    +0.000 N 
ATOM     16  C   UNL     1       1.018   9.405  20.060  0.00  0.00    +0.000 C 
ATOM     17  C   UNL     1       2.371   7.445  19.287  0.00  0.00    +0.000 A 
ENDBRANCH  11  12
BRANCH   3  18
ATOM     18  C   UNL     1       6.853   4.204  16.607  0.00  0.00    +0.000 C 
BRANCH  18  19
ATOM     19  C   UNL     1       6.851   4.450  15.112  0.00  0.00    +0.000 A 
ATOM     20  C   UNL     1       7.729   5.391  14.567  0.00  0.00    +0.000 A 
ATOM     21  C   UNL     1       7.835   5.519  13.182  0.00  0.00    +0.000 A 
ATOM     22  C   UNL     1       7.062   4.710  12.360  0.00  0.00    +0.000 A 
ATOM     23  CA  UNL     1       6.204   3.811  12.969  0.00  0.00    +0.000 A 
ATOM     24  N   UNL     1       6.077   3.651  14.324  0.00  0.00    +0.000 NA
BRANCH  23  25
ATOM     25  C   UNL     1       5.348   2.918  12.127  0.00  0.00    +0.000 C 
ATOM     26  O   UNL     1       4.233   3.191  11.722  0.00  0.00    +0.000 OA
BRANCH  25  27
ATOM     27  OXT UNL     1       5.997   1.755  11.870  0.00  0.00    +0.000 OA
ATOM     28  HXT UNL     1       6.194   1.722  10.904  0.00  0.00    +0.000 HD
ENDBRANCH  25  27
ENDBRANCH  23  25
ENDBRANCH  18  19
ENDBRANCH   3  18
TORSDOF 5
ENDMDL
MODEL 4
REMARK VINA RESULT:      -7.8      2.646      3.843
REMARK  Name = 
REMARK  7 active torsions:
REMARK  status: ('A' for Active; 'I' for Inactive)
REMARK    1  A    between atoms: C_1  and  C_2
REMARK    2  A    between atoms: C_3  and  C_4
REMARK    3  A    between atoms: C_4  and  C_5
REMARK    4  A    between atoms: CA_9  and  C_10
REMARK    5  A    between atoms: C_10  and  OXT_12
REMARK    6  A    between atoms: N_21  and  C_22
REMARK    7  A    between atoms: N_25  and  C_26
REMARK                            x       y       z     vdW  Elec       q    Type
REMARK                         _______ _______ _______ _____ _____    ______ ____
ROOT
ATOM      1  C   UNL     1       2.590   9.574  18.079  0.00  0.00    +0.000 C 
ATOM      2  C   UNL     1       2.546   8.156  18.547  0.00  0.00    +0.000 A 
ATOM      3  C   UNL     1       3.130   7.043  17.947  0.00  0.00    +0.000 A 
ATOM      4  C   UNL     1       2.864   5.924  18.801  0.00  0.00    +0.000 A 
ATOM      5  C   UNL     1       3.164   4.543  18.724  0.00  0.00    +0.000 A 
ATOM      6  C   UNL     1       2.681   3.658  19.697  0.00  0.00    +0.000 A 
ATOM      7  C   UNL     1       1.882   4.127  20.726  0.00  0.00    +0.000 A 
ATOM      8 CL   UNL     1       1.242   3.022  21.883  0.00  0.00    +0.000 Cl
ATOM      9  C   UNL     1       1.571   5.482  20.833  0.00  0.00    +0.000 A 
ATOM     10  C   UNL     1       2.102   6.384  19.882  0.00  0.00    +0.000 A 
ATOM     11  N   UNL     1       1.941   7.764  19.739  0.00  0.00    +0.000 N 
ENDROOT
BRANCH  11  12
ATOM     12  C   UNL     1       1.248   8.611  20.658  0.00  0.00    +0.000 A 
ATOM     13  C   UNL     1       1.501   8.764  22.038  0.00  0.00    +0.000 A 
ATOM     14  N   UNL     1       0.661   9.623  22.622  0.00  0.00    +0.000 NA
ATOM     15  N   UNL     1      -0.126  10.031  21.613  0.00  0.00    +0.000 N 
ATOM     16  C   UNL     1      -1.199  10.965  21.853  0.00  0.00    +0.000 C 
ATOM     17  C   UNL     1       0.193   9.463  20.412  0.00  0.00    +0.000 A 
ENDBRANCH  11  12
BRANCH   3  18
ATOM     18  C   UNL     1       3.801   7.010  16.602  0.00  0.00    +0.000 C 
BRANCH  18  19
ATOM     19  C   UNL     1       5.064   6.178  16.701  0.00  0.00    +0.000 A 
ATOM     20  C   UNL     1       5.415   5.331  15.646  0.00  0.00    +0.000 A 
ATOM     21  C   UNL     1       6.646   4.675  15.665  0.00  0.00    +0.000 A 
ATOM     22  C   UNL     1       7.507   4.868  16.737  0.00  0.00    +0.000 A 
ATOM     23  CA  UNL     1       7.087   5.708  17.753  0.00  0.00    +0.000 A 
ATOM     24  N   UNL     1       5.890   6.377  17.767  0.00  0.00    +0.000 NA
BRANCH  23  25
ATOM     25  C   UNL     1       7.977   5.948  18.932  0.00  0.00    +0.000 C 
ATOM     26  O   UNL     1       8.233   5.131  19.798  0.00  0.00    +0.000 OA
BRANCH  25  27
ATOM     27  OXT UNL     1       8.470   7.211  18.897  0.00  0.00    +0.000 OA
ATOM     28  HXT UNL     1       8.094   7.707  19.661  0.00  0.00    +0.000 HD
ENDBRANCH  25  27
ENDBRANCH  23  25
ENDBRANCH  18  19
ENDBRANCH   3  18
TORSDOF 5
ENDMDL
MODEL 5
REMARK VINA RESULT:      -7.5      2.111      3.532
REMARK  Name = 
REMARK  7 active torsions:
REMARK  status: ('A' for Active; 'I' for Inactive)
REMARK    1  A    between atoms: C_1  and  C_2
REMARK    2  A    between atoms: C_3  and  C_4
REMARK    3  A    between atoms: C_4  and  C_5
REMARK    4  A    between atoms: CA_9  and  C_10
REMARK    5  A    between atoms: C_10  and  OXT_12
REMARK    6  A    between atoms: N_21  and  C_22
REMARK    7  A    between atoms: N_25  and  C_26
REMARK                            x       y       z     vdW  Elec       q    Type
REMARK                         _______ _______ _______ _____ _____    ______ ____
ROOT
ATOM      1  C   UNL     1       2.323   9.771  18.453  0.00  0.00    +0.000 C 
ATOM      2  C   UNL     1       2.323   8.318  18.801  0.00  0.00    +0.000 A 
ATOM      3  C   UNL     1       2.839   7.263  18.054  0.00  0.00    +0.000 A 
ATOM      4  C   UNL     1       2.657   6.075  18.833  0.00  0.00    +0.000 A 
ATOM      5  C   UNL     1       2.943   4.707  18.611  0.00  0.00    +0.000 A 
ATOM      6  C   UNL     1       2.559   3.741  19.550  0.00  0.00    +0.000 A 
ATOM      7  C   UNL     1       1.870   4.118  20.691  0.00  0.00    +0.000 A 
ATOM      8 CL   UNL     1       1.348   2.916  21.810  0.00  0.00    +0.000 Cl
ATOM      9  C   UNL     1       1.577   5.457  20.942  0.00  0.00    +0.000 A 
ATOM     10  C   UNL     1       2.011   6.439  20.021  0.00  0.00    +0.000 A 
ATOM     11  N   UNL     1       1.841   7.825  20.012  0.00  0.00    +0.000 N 
ENDROOT
BRANCH  11  12
ATOM     12  C   UNL     1       1.247   8.588  21.065  0.00  0.00    +0.000 A 
ATOM     13  C   UNL     1       1.825   8.923  22.308  0.00  0.00    +0.000 A 
ATOM     14  N   UNL     1       1.000   9.635  23.082  0.00  0.00    +0.000 NA
ATOM     15  N   UNL     1      -0.105   9.766  22.329  0.00  0.00    +0.000 N 
ATOM     16  C   UNL     1      -1.258  10.467  22.838  0.00  0.00    +0.000 C 
ATOM     17  C   UNL     1      -0.003   9.167  21.105  0.00  0.00    +0.000 A 
ENDBRANCH  11  12
BRANCH   3  18
ATOM     18  C   UNL     1       3.369   7.346  16.650  0.00  0.00    +0.000 C 
BRANCH  18  19
ATOM     19  C   UNL     1       4.796   6.835  16.630  0.00  0.00    +0.000 A 
ATOM     20  C   UNL     1       5.596   6.979  17.767  0.00  0.00    +0.000 A 
ATOM     21  C   UNL     1       6.857   6.384  17.806  0.00  0.00    +0.000 A 
ATOM     22  C   UNL     1       7.305   5.659  16.710  0.00  0.00    +0.000 A 
ATOM     23  CA  UNL     1       6.466   5.571  15.613  0.00  0.00    +0.000 A 
ATOM     24  N   UNL     1       5.218   6.134  15.539  0.00  0.00    +0.000 NA
BRANCH  23  25
ATOM     25  C   UNL     1       6.903   4.803  14.406  0.00  0.00    +0.000 C 
ATOM     26  O   UNL     1       6.411   3.758  14.021  0.00  0.00    +0.000 OA
BRANCH  25  27
ATOM     27  OXT UNL     1       7.928   5.442  13.790  0.00  0.00    +0.000 OA
ATOM     28  HXT UNL     1       8.683   5.491  14.423  0.00  0.00    +0.000 HD
ENDBRANCH  25  27
ENDBRANCH  23  25
ENDBRANCH  18  19
ENDBRANCH   3  18
TORSDOF 5
ENDMDL
MODEL 6
REMARK VINA RESULT:      -7.3      4.717      6.994
REMARK  Name = 
REMARK  7 active torsions:
REMARK  status: ('A' for Active; 'I' for Inactive)
REMARK    1  A    between atoms: C_1  and  C_2
REMARK    2  A    between atoms: C_3  and  C_4
REMARK    3  A    between atoms: C_4  and  C_5
REMARK    4  A    between atoms: CA_9  and  C_10
REMARK    5  A    between atoms: C_10  and  OXT_12
REMARK    6  A    between atoms: N_21  and  C_22
REMARK    7  A    between atoms: N_25  and  C_26
REMARK                            x       y       z     vdW  Elec       q    Type
REMARK                         _______ _______ _______ _____ _____    ______ ____
ROOT
ATOM      1  C   UNL     1       5.449   4.748  19.332  0.00  0.00    +0.000 C 
ATOM      2  C   UNL     1       5.704   4.604  17.867  0.00  0.00    +0.000 A 
ATOM      3  C   UNL     1       5.147   3.674  16.993  0.00  0.00    +0.000 A 
ATOM      4  C   UNL     1       5.651   3.979  15.687  0.00  0.00    +0.000 A 
ATOM      5  C   UNL     1       5.480   3.389  14.411  0.00  0.00    +0.000 A 
ATOM      6  C   UNL     1       6.193   3.873  13.306  0.00  0.00    +0.000 A 
ATOM      7  C   UNL     1       7.092   4.915  13.463  0.00  0.00    +0.000 A 
ATOM      8 CL   UNL     1       8.009   5.462  12.111  0.00  0.00    +0.000 Cl
ATOM      9  C   UNL     1       7.280   5.520  14.705  0.00  0.00    +0.000 A 
ATOM     10  C   UNL     1       6.522   5.068  15.809  0.00  0.00    +0.000 A 
ATOM     11  N   UNL     1       6.522   5.472  17.147  0.00  0.00    +0.000 N 
ENDROOT
BRANCH  11  12
ATOM     12  C   UNL     1       7.263   6.575  17.673  0.00  0.00    +0.000 A 
ATOM     13  C   UNL     1       8.151   6.562  18.770  0.00  0.00    +0.000 A 
ATOM     14  N   UNL     1       8.673   7.766  19.022  0.00  0.00    +0.000 NA
ATOM     15  N   UNL     1       8.126   8.551  18.078  0.00  0.00    +0.000 N 
ATOM     16  C   UNL     1       8.431   9.960  18.032  0.00  0.00    +0.000 C 
ATOM     17  C   UNL     1       7.283   7.881  17.237  0.00  0.00    +0.000 A 
ENDBRANCH  11  12
BRANCH   3  18
ATOM     18  C   UNL     1       4.282   2.506  17.374  0.00  0.00    +0.000 C 
BRANCH  18  19
ATOM     19  C   UNL     1       3.133   3.000  18.230  0.00  0.00    +0.000 A 
ATOM     20  C   UNL     1       2.089   3.713  17.637  0.00  0.00    +0.000 A 
ATOM     21  C   UNL     1       0.961   4.043  18.388  0.00  0.00    +0.000 A 
ATOM     22  C   UNL     1       0.892   3.663  19.721  0.00  0.00    +0.000 A 
ATOM     23  CA  UNL     1       1.970   2.971  20.247  0.00  0.00    +0.000 A 
ATOM     24  N   UNL     1       3.091   2.621  19.540  0.00  0.00    +0.000 NA
BRANCH  23  25
ATOM     25  C   UNL     1       1.946   2.539  21.679  0.00  0.00    +0.000 C 
ATOM     26  O   UNL     1       0.963   2.543  22.399  0.00  0.00    +0.000 OA
BRANCH  25  27
ATOM     27  OXT UNL     1       3.180   2.133  22.066  0.00  0.00    +0.000 OA
ATOM     28  HXT UNL     1       3.315   2.411  23.002  0.00  0.00    +0.000 HD
ENDBRANCH  25  27
ENDBRANCH  23  25
ENDBRANCH  18  19
ENDBRANCH   3  18
TORSDOF 5
ENDMDL
MODEL 7
REMARK VINA RESULT:      -6.9      3.196      4.118
REMARK  Name = 
REMARK  7 active torsions:
REMARK  status: ('A' for Active; 'I' for Inactive)
REMARK    1  A    between atoms: C_1  and  C_2
REMARK    2  A    between atoms: C_3  and  C_4
REMARK    3  A    between atoms: C_4  and  C_5
REMARK    4  A    between atoms: CA_9  and  C_10
REMARK    5  A    between atoms: C_10  and  OXT_12
REMARK    6  A    between atoms: N_21  and  C_22
REMARK    7  A    between atoms: N_25  and  C_26
REMARK                            x       y       z     vdW  Elec       q    Type
REMARK                         _______ _______ _______ _____ _____    ______ ____
ROOT
ATOM      1  C   UNL     1       2.678   9.474  17.931  0.00  0.00    +0.000 C 
ATOM      2  C   UNL     1       2.668   8.072  18.447  0.00  0.00    +0.000 A 
ATOM      3  C   UNL     1       3.417   6.991  17.990  0.00  0.00    +0.000 A 
ATOM      4  C   UNL     1       3.105   5.882  18.842  0.00  0.00    +0.000 A 
ATOM      5  C   UNL     1       3.514   4.527  18.871  0.00  0.00    +0.000 A 
ATOM      6  C   UNL     1       2.955   3.637  19.797  0.00  0.00    +0.000 A 
ATOM      7  C   UNL     1       1.975   4.074  20.674  0.00  0.00    +0.000 A 
ATOM      8 CL   UNL     1       1.249   2.959  21.768  0.00  0.00    +0.000 Cl
ATOM      9  C   UNL     1       1.553   5.403  20.674  0.00  0.00    +0.000 A 
ATOM     10  C   UNL     1       2.155   6.314  19.775  0.00  0.00    +0.000 A 
ATOM     11  N   UNL     1       1.917   7.672  19.551  0.00  0.00    +0.000 N 
ENDROOT
BRANCH  11  12
ATOM     12  C   UNL     1       1.031   8.490  20.317  0.00  0.00    +0.000 A 
ATOM     13  C   UNL     1       0.063   9.393  19.828  0.00  0.00    +0.000 A 
ATOM     14  N   UNL     1      -0.594  10.021  20.807  0.00  0.00    +0.000 NA
ATOM     15  N   UNL     1      -0.054   9.512  21.927  0.00  0.00    +0.000 N 
ATOM     16  C   UNL     1      -0.492   9.969  23.224  0.00  0.00    +0.000 C 
ATOM     17  C   UNL     1       0.916   8.581  21.687  0.00  0.00    +0.000 A 
ENDBRANCH  11  12
BRANCH   3  18
ATOM     18  C   UNL     1       4.286   6.968  16.765  0.00  0.00    +0.000 C 
BRANCH  18  19
ATOM     19  C   UNL     1       5.736   7.106  17.185  0.00  0.00    +0.000 A 
ATOM     20  C   UNL     1       6.345   8.363  17.158  0.00  0.00    +0.000 A 
ATOM     21  C   UNL     1       7.629   8.523  17.679  0.00  0.00    +0.000 A 
ATOM     22  C   UNL     1       8.290   7.426  18.214  0.00  0.00    +0.000 A 
ATOM     23  CA  UNL     1       7.632   6.208  18.194  0.00  0.00    +0.000 A 
ATOM     24  N   UNL     1       6.369   6.013  17.699  0.00  0.00    +0.000 NA
BRANCH  23  25
ATOM     25  C   UNL     1       8.302   4.995  18.757  0.00  0.00    +0.000 C 
ATOM     26  O   UNL     1       8.697   4.044  18.107  0.00  0.00    +0.000 OA
BRANCH  25  27
ATOM     27  OXT UNL     1       8.416   5.105  20.104  0.00  0.00    +0.000 OA
ATOM     28  HXT UNL     1       7.988   4.317  20.513  0.00  0.00    +0.000 HD
ENDBRANCH  25  27
ENDBRANCH  23  25
ENDBRANCH  18  19
ENDBRANCH   3  18
TORSDOF 5
ENDMDL
MODEL 8
REMARK VINA RESULT:      -6.8      4.772      8.150
REMARK  Name = 
REMARK  7 active torsions:
REMARK  status: ('A' for Active; 'I' for Inactive)
REMARK    1  A    between atoms: C_1  and  C_2
REMARK    2  A    between atoms: C_3  and  C_4
REMARK    3  A    between atoms: C_4  and  C_5
REMARK    4  A    between atoms: CA_9  and  C_10
REMARK    5  A    between atoms: C_10  and  OXT_12
REMARK    6  A    between atoms: N_21  and  C_22
REMARK    7  A    between atoms: N_25  and  C_26
REMARK                            x       y       z     vdW  Elec       q    Type
REMARK                         _______ _______ _______ _____ _____    ______ ____
ROOT
ATOM      1  C   UNL     1       1.643  12.245  20.364  0.00  0.00    +0.000 C 
ATOM      2  C   UNL     1       0.437  11.763  19.626  0.00  0.00    +0.000 A 
ATOM      3  C   UNL     1       0.378  10.784  18.637  0.00  0.00    +0.000 A 
ATOM      4  C   UNL     1      -1.002  10.634  18.285  0.00  0.00    +0.000 A 
ATOM      5  C   UNL     1      -1.688   9.832  17.341  0.00  0.00    +0.000 A 
ATOM      6  C   UNL     1      -3.070   9.974  17.162  0.00  0.00    +0.000 A 
ATOM      7  C   UNL     1      -3.770  10.922  17.890  0.00  0.00    +0.000 A 
ATOM      8 CL   UNL     1      -5.458  11.132  17.619  0.00  0.00    +0.000 Cl
ATOM      9  C   UNL     1      -3.125  11.725  18.830  0.00  0.00    +0.000 A 
ATOM     10  C   UNL     1      -1.739  11.546  19.049  0.00  0.00    +0.000 A 
ATOM     11  N   UNL     1      -0.853  12.212  19.899  0.00  0.00    +0.000 N 
ENDROOT
BRANCH  11  12
ATOM     12  C   UNL     1      -1.223  13.202  20.861  0.00  0.00    +0.000 A 
ATOM     13  C   UNL     1      -1.444  14.577  20.631  0.00  0.00    +0.000 A 
ATOM     14  N   UNL     1      -1.761  15.239  21.748  0.00  0.00    +0.000 NA
ATOM     15  N   UNL     1      -1.752  14.286  22.694  0.00  0.00    +0.000 N 
ATOM     16  C   UNL     1      -2.027  14.619  24.071  0.00  0.00    +0.000 C 
ATOM     17  C   UNL     1      -1.447  13.044  22.212  0.00  0.00    +0.000 A 
ENDBRANCH  11  12
BRANCH   3  18
ATOM     18  C   UNL     1       1.552  10.109  17.986  0.00  0.00    +0.000 C 
BRANCH  18  19
ATOM     19  C   UNL     1       1.852   8.819  18.722  0.00  0.00    +0.000 A 
ATOM     20  C   UNL     1       1.407   8.656  20.036  0.00  0.00    +0.000 A 
ATOM     21  C   UNL     1       1.551   7.421  20.668  0.00  0.00    +0.000 A 
ATOM     22  C   UNL     1       2.142   6.368  19.984  0.00  0.00    +0.000 A 
ATOM     23  CA  UNL     1       2.573   6.606  18.691  0.00  0.00    +0.000 A 
ATOM     24  N   UNL     1       2.443   7.801  18.033  0.00  0.00    +0.000 NA
BRANCH  23  25
ATOM     25  C   UNL     1       3.219   5.504  17.911  0.00  0.00    +0.000 C 
ATOM     26  O   UNL     1       2.693   4.443  17.625  0.00  0.00    +0.000 OA
BRANCH  25  27
ATOM     27  OXT UNL     1       4.479   5.857  17.557  0.00  0.00    +0.000 OA
ATOM     28  HXT UNL     1       4.815   5.190  16.914  0.00  0.00    +0.000 HD
ENDBRANCH  25  27
ENDBRANCH  23  25
ENDBRANCH  18  19
ENDBRANCH   3  18
TORSDOF 5
ENDMDL
MODEL 9
REMARK VINA RESULT:      -6.8      4.838      8.246
REMARK  Name = 
REMARK  7 active torsions:
REMARK  status: ('A' for Active; 'I' for Inactive)
REMARK    1  A    between atoms: C_1  and  C_2
REMARK    2  A    between atoms: C_3  and  C_4
REMARK    3  A    between atoms: C_4  and  C_5
REMARK    4  A    between atoms: CA_9  and  C_10
REMARK    5  A    between atoms: C_10  and  OXT_12
REMARK    6  A    between atoms: N_21  and  C_22
REMARK    7  A    between atoms: N_25  and  C_26
REMARK                            x       y       z     vdW  Elec       q    Type
REMARK                         _______ _______ _______ _____ _____    ______ ____
ROOT
ATOM      1  C   UNL     1       1.430  11.948  20.763  0.00  0.00    +0.000 C 
ATOM      2  C   UNL     1       0.293  11.556  19.877  0.00  0.00    +0.000 A 
ATOM      3  C   UNL     1       0.320  10.683  18.793  0.00  0.00    +0.000 A 
ATOM      4  C   UNL     1      -1.025  10.583  18.308  0.00  0.00    +0.000 A 
ATOM      5  C   UNL     1      -1.626   9.887  17.232  0.00  0.00    +0.000 A 
ATOM      6  C   UNL     1      -2.987  10.061  16.948  0.00  0.00    +0.000 A 
ATOM      7  C   UNL     1      -3.747  10.938  17.705  0.00  0.00    +0.000 A 
ATOM      8 CL   UNL     1      -5.404  11.192  17.310  0.00  0.00    +0.000 Cl
ATOM      9  C   UNL     1      -3.186  11.635  18.774  0.00  0.00    +0.000 A 
ATOM     10  C   UNL     1      -1.825  11.420  19.094  0.00  0.00    +0.000 A 
ATOM     11  N   UNL     1      -1.016  11.988  20.081  0.00  0.00    +0.000 N 
ENDROOT
BRANCH  11  12
ATOM     12  C   UNL     1      -1.467  12.880  21.103  0.00  0.00    +0.000 A 
ATOM     13  C   UNL     1      -1.912  12.540  22.399  0.00  0.00    +0.000 A 
ATOM     14  N   UNL     1      -2.285  13.608  23.110  0.00  0.00    +0.000 NA
ATOM     15  N   UNL     1      -2.068  14.636  22.273  0.00  0.00    +0.000 N 
ATOM     16  C   UNL     1      -2.379  15.986  22.677  0.00  0.00    +0.000 C 
ATOM     17  C   UNL     1      -1.566  14.254  21.061  0.00  0.00    +0.000 A 
ENDBRANCH  11  12
BRANCH   3  18
ATOM     18  C   UNL     1       1.545  10.065  18.182  0.00  0.00    +0.000 C 
BRANCH  18  19
ATOM     19  C   UNL     1       1.818   8.735  18.856  0.00  0.00    +0.000 A 
ATOM     20  C   UNL     1       1.438   8.547  20.188  0.00  0.00    +0.000 A 
ATOM     21  C   UNL     1       1.553   7.284  20.769  0.00  0.00    +0.000 A 
ATOM     22  C   UNL     1       2.050   6.229  20.017  0.00  0.00    +0.000 A 
ATOM     23  CA  UNL     1       2.421   6.491  18.710  0.00  0.00    +0.000 A 
ATOM     24  N   UNL     1       2.316   7.715  18.101  0.00  0.00    +0.000 NA
BRANCH  23  25
ATOM     25  C   UNL     1       2.964   5.388  17.858  0.00  0.00    +0.000 C 
ATOM     26  O   UNL     1       4.086   5.351  17.385  0.00  0.00    +0.000 OA
BRANCH  25  27
ATOM     27  OXT UNL     1       2.027   4.422  17.690  0.00  0.00    +0.000 OA
ATOM     28  HXT UNL     1       1.282   4.806  17.171  0.00  0.00    +0.000 HD
ENDBRANCH  25  27
ENDBRANCH  23  25
ENDBRANCH  18  19
ENDBRANCH   3  18
TORSDOF 5
ENDMDL
