MODEL 1
REMARK VINA RESULT:      -7.6      0.000      0.000
REMARK  Name = 
REMARK  5 active torsions:
REMARK  status: ('A' for Active; 'I' for Inactive)
REMARK    1  A    between atoms: C_17  and  C_18
REMARK    2  A    between atoms: C_21  and  C_22
REMARK    3  A    between atoms: C_22  and  O_23
REMARK    4  A    between atoms: C_22  and  C_24
REMARK    5  A    between atoms: C_24  and  O_25
REMARK                            x       y       z     vdW  Elec       q    Type
REMARK                         _______ _______ _______ _____ _____    ______ ____
ROOT
ATOM      1  O   UNL     1       1.049   9.482  19.219  0.00  0.00    +0.000 OA
ATOM      2  C   UNL     1       0.757   9.291  20.397  0.00  0.00    +0.000 C 
ATOM      3  N   UNL     1       0.871   8.082  21.034  0.00  0.00    +0.000 N 
ATOM      4  C   UNL     1       1.404   6.934  20.502  0.00  0.00    +0.000 A 
ATOM      5  N   UNL     1       1.190   5.770  21.070  0.00  0.00    +0.000 NA
ATOM      6  C   UNL     1       1.807   4.776  20.331  0.00  0.00    +0.000 A 
ATOM      7  C   UNL     1       1.757   3.392  20.602  0.00  0.00    +0.000 A 
ATOM      8  C   UNL     1       2.420   2.497  19.753  0.00  0.00    +0.000 A 
ATOM      9  C   UNL     1       3.128   2.967  18.653  0.00  0.00    +0.000 A 
ATOM     10 CL   UNL     1       3.931   1.847  17.620  0.00  0.00    +0.000 Cl
ATOM     11  C   UNL     1       3.202   4.332  18.364  0.00  0.00    +0.000 A 
ATOM     12  C   UNL     1       2.529   5.217  19.222  0.00  0.00    +0.000 A 
ATOM     13  S   UNL     1       2.427   6.930  19.143  0.00  0.00    +0.000 S 
ATOM     14  N   UNL     1       0.262  10.331  21.183  0.00  0.00    +0.000 N 
ATOM     15  C   UNL     1       0.042  10.290  22.630  0.00  0.00    +0.000 C 
ATOM     16  C   UNL     1      -1.084  11.197  23.028  0.00  0.00    +0.000 C 
ATOM     17  C   UNL     1      -1.672  12.078  22.195  0.00  0.00    +0.000 C 
ATOM     18  C   UNL     1      -1.186  12.288  20.789  0.00  0.00    +0.000 C 
ATOM     19  C   UNL     1       0.199  11.670  20.587  0.00  0.00    +0.000 C 
ATOM     20  H   UNL     1       0.279   7.883  21.819  0.00  0.00    +0.000 HD
ENDROOT
BRANCH  17  21
ATOM     21  C   UNL     1      -2.831  12.868  22.625  0.00  0.00    +0.000 A 
ATOM     22  N   UNL     1      -4.024  12.426  22.155  0.00  0.00    +0.000 NA
ATOM     23  C   UNL     1      -5.130  13.115  22.523  0.00  0.00    +0.000 A 
ATOM     24  C   UNL     1      -5.118  14.246  23.335  0.00  0.00    +0.000 A 
ATOM     25  C   UNL     1      -3.872  14.686  23.796  0.00  0.00    +0.000 A 
ATOM     26  C   UNL     1      -2.712  13.995  23.440  0.00  0.00    +0.000 A 
ATOM     27 CL   UNL     1      -1.197  14.582  24.021  0.00  0.00    +0.000 Cl
BRANCH  24  28
ATOM     28  C   UNL     1      -6.409  14.946  23.688  0.00  0.00    +0.000 C 
BRANCH  28  29
ATOM     29  O   UNL     1      -6.606  16.020  22.769  0.00  0.00    +0.000 OA
ATOM     30  H   UNL     1      -5.747  16.430  22.579  0.00  0.00    +0.000 HD
ENDBRANCH  28  29
BRANCH  28  31
ATOM     31  C   UNL     1      -7.632  14.011  23.702  0.00  0.00    +0.000 C 
BRANCH  31  32
ATOM     32  O   UNL     1      -7.917  13.513  25.005  0.00  0.00    +0.000 OA
ATOM     33  H   UNL     1      -8.883  13.495  25.118  0.00  0.00    +0.000 HD
ENDBRANCH  31  32
ENDBRANCH  28  31
ENDBRANCH  24  28
ENDBRANCH  17  21
TORSDOF 5
ENDMDL
MODEL 2
REMARK VINA RESULT:      -7.5      9.136     12.418
REMARK  Name = 
REMARK  5 active torsions:
REMARK  status: ('A' for Active; 'I' for Inactive)
REMARK    1  A    between atoms: C_17  and  C_18
REMARK    2  A    between atoms: C_21  and  C_22
REMARK    3  A    between atoms: C_22  and  O_23
REMARK    4  A    between atoms: C_22  and  C_24
REMARK    5  A    between atoms: C_24  and  O_25
REMARK                            x       y       z     vdW  Elec       q    Type
REMARK                         _______ _______ _______ _____ _____    ______ ____
ROOT
ATOM      1  O   UNL     1       9.365   9.047  19.409  0.00  0.00    +0.000 OA
ATOM      2  C   UNL     1       8.562   9.152  18.485  0.00  0.00    +0.000 C 
ATOM      3  N   UNL     1       8.263  10.331  17.853  0.00  0.00    +0.000 N 
ATOM      4  C   UNL     1       8.865  11.545  18.077  0.00  0.00    +0.000 A 
ATOM      5  N   UNL     1       8.310  12.656  17.654  0.00  0.00    +0.000 NA
ATOM      6  C   UNL     1       9.093  13.735  18.027  0.00  0.00    +0.000 A 
ATOM      7  C   UNL     1       8.796  15.093  17.793  0.00  0.00    +0.000 A 
ATOM      8  C   UNL     1       9.679  16.082  18.244  0.00  0.00    +0.000 A 
ATOM      9  C   UNL     1      10.845  15.729  18.915  0.00  0.00    +0.000 A 
ATOM     10 CL   UNL     1      11.913  16.963  19.466  0.00  0.00    +0.000 Cl
ATOM     11  C   UNL     1      11.170  14.392  19.154  0.00  0.00    +0.000 A 
ATOM     12  C   UNL     1      10.273  13.411  18.698  0.00  0.00    +0.000 A 
ATOM     13  S   UNL     1      10.382  11.702  18.832  0.00  0.00    +0.000 S 
ATOM     14  N   UNL     1       7.870   8.035  18.016  0.00  0.00    +0.000 N 
ATOM     15  C   UNL     1       7.026   7.983  16.821  0.00  0.00    +0.000 C 
ATOM     16  C   UNL     1       5.933   6.968  16.981  0.00  0.00    +0.000 C 
ATOM     17  C   UNL     1       5.864   6.087  17.997  0.00  0.00    +0.000 C 
ATOM     18  C   UNL     1       6.945   5.991  19.038  0.00  0.00    +0.000 C 
ATOM     19  C   UNL     1       8.207   6.729  18.590  0.00  0.00    +0.000 C 
ATOM     20  H   UNL     1       7.368  10.441  17.415  0.00  0.00    +0.000 HD
ENDROOT
BRANCH  17  21
ATOM     21  C   UNL     1       4.717   5.185  18.142  0.00  0.00    +0.000 A 
ATOM     22  N   UNL     1       3.885   5.486  19.170  0.00  0.00    +0.000 NA
ATOM     23  C   UNL     1       2.805   4.689  19.348  0.00  0.00    +0.000 A 
ATOM     24  C   UNL     1       2.506   3.582  18.559  0.00  0.00    +0.000 A 
ATOM     25  C   UNL     1       3.388   3.288  17.512  0.00  0.00    +0.000 A 
ATOM     26  C   UNL     1       4.508   4.094  17.297  0.00  0.00    +0.000 A 
ATOM     27 CL   UNL     1       5.575   3.686  16.003  0.00  0.00    +0.000 Cl
BRANCH  24  28
ATOM     28  C   UNL     1       1.276   2.752  18.841  0.00  0.00    +0.000 C 
BRANCH  28  29
ATOM     29  O   UNL     1       1.632   1.373  18.763  0.00  0.00    +0.000 OA
ATOM     30  H   UNL     1       1.986   1.093  19.622  0.00  0.00    +0.000 HD
ENDBRANCH  28  29
BRANCH  28  31
ATOM     31  C   UNL     1       0.620   3.068  20.199  0.00  0.00    +0.000 C 
BRANCH  31  32
ATOM     32  O   UNL     1       1.302   2.451  21.285  0.00  0.00    +0.000 OA
ATOM     33  H   UNL     1       2.213   2.259  21.001  0.00  0.00    +0.000 HD
ENDBRANCH  31  32
ENDBRANCH  28  31
ENDBRANCH  24  28
ENDBRANCH  17  21
TORSDOF 5
ENDMDL
MODEL 3
REMARK VINA RESULT:      -7.3      0.458      1.100
REMARK  Name = 
REMARK  5 active torsions:
REMARK  status: ('A' for Active; 'I' for Inactive)
REMARK    1  A    between atoms: C_17  and  C_18
REMARK    2  A    between atoms: C_21  and  C_22
REMARK    3  A    between atoms: C_22  and  O_23
REMARK    4  A    between atoms: C_22  and  C_24
REMARK    5  A    between atoms: C_24  and  O_25
REMARK                            x       y       z     vdW  Elec       q    Type
REMARK                         _______ _______ _______ _____ _____    ______ ____
ROOT
ATOM      1  O   UNL     1       1.286   9.436  19.391  0.00  0.00    +0.000 OA
ATOM      2  C   UNL     1       0.885   9.185  20.525  0.00  0.00    +0.000 C 
ATOM      3  N   UNL     1       0.900   7.936  21.090  0.00  0.00    +0.000 N 
ATOM      4  C   UNL     1       1.440   6.802  20.533  0.00  0.00    +0.000 A 
ATOM      5  N   UNL     1       1.137   5.615  21.004  0.00  0.00    +0.000 NA
ATOM      6  C   UNL     1       1.783   4.644  20.258  0.00  0.00    +0.000 A 
ATOM      7  C   UNL     1       1.662   3.250  20.433  0.00  0.00    +0.000 A 
ATOM      8  C   UNL     1       2.367   2.383  19.589  0.00  0.00    +0.000 A 
ATOM      9  C   UNL     1       3.185   2.892  18.587  0.00  0.00    +0.000 A 
ATOM     10 CL   UNL     1       4.038   1.806  17.557  0.00  0.00    +0.000 Cl
ATOM     11  C   UNL     1       3.331   4.267  18.394  0.00  0.00    +0.000 A 
ATOM     12  C   UNL     1       2.615   5.124  19.246  0.00  0.00    +0.000 A 
ATOM     13  S   UNL     1       2.579   6.841  19.270  0.00  0.00    +0.000 S 
ATOM     14  N   UNL     1       0.358  10.194  21.331  0.00  0.00    +0.000 N 
ATOM     15  C   UNL     1       0.010  10.073  22.747  0.00  0.00    +0.000 C 
ATOM     16  C   UNL     1      -1.116  10.997  23.105  0.00  0.00    +0.000 C 
ATOM     17  C   UNL     1      -1.598  11.950  22.283  0.00  0.00    +0.000 C 
ATOM     18  C   UNL     1      -0.982  12.227  20.940  0.00  0.00    +0.000 C 
ATOM     19  C   UNL     1       0.393  11.568  20.820  0.00  0.00    +0.000 C 
ATOM     20  H   UNL     1       0.236   7.712  21.807  0.00  0.00    +0.000 HD
ENDROOT
BRANCH  17  21
ATOM     21  C   UNL     1      -2.763  12.757  22.661  0.00  0.00    +0.000 A 
ATOM     22  N   UNL     1      -3.946  12.310  22.170  0.00  0.00    +0.000 NA
ATOM     23  C   UNL     1      -5.057  13.014  22.492  0.00  0.00    +0.000 A 
ATOM     24  C   UNL     1      -5.060  14.166  23.275  0.00  0.00    +0.000 A 
ATOM     25  C   UNL     1      -3.823  14.610  23.758  0.00  0.00    +0.000 A 
ATOM     26  C   UNL     1      -2.659  13.904  23.451  0.00  0.00    +0.000 A 
ATOM     27 CL   UNL     1      -1.156  14.496  24.058  0.00  0.00    +0.000 Cl
BRANCH  24  28
ATOM     28  C   UNL     1      -6.354  14.882  23.575  0.00  0.00    +0.000 C 
BRANCH  28  29
ATOM     29  O   UNL     1      -7.063  14.142  24.568  0.00  0.00    +0.000 OA
ATOM     30  H   UNL     1      -6.675  14.334  25.436  0.00  0.00    +0.000 HD
ENDBRANCH  28  29
BRANCH  28  31
ATOM     31  C   UNL     1      -6.159  16.343  24.022  0.00  0.00    +0.000 C 
BRANCH  31  32
ATOM     32  O   UNL     1      -6.361  17.266  22.958  0.00  0.00    +0.000 OA
ATOM     33  H   UNL     1      -6.644  18.114  23.342  0.00  0.00    +0.000 HD
ENDBRANCH  31  32
ENDBRANCH  28  31
ENDBRANCH  24  28
ENDBRANCH  17  21
TORSDOF 5
ENDMDL
MODEL 4
REMARK VINA RESULT:      -7.3      9.125     12.271
REMARK  Name = 
REMARK  5 active torsions:
REMARK  status: ('A' for Active; 'I' for Inactive)
REMARK    1  A    between atoms: C_17  and  C_18
REMARK    2  A    between atoms: C_21  and  C_22
REMARK    3  A    between atoms: C_22  and  O_23
REMARK    4  A    between atoms: C_22  and  C_24
REMARK    5  A    between atoms: C_24  and  O_25
REMARK                            x       y       z     vdW  Elec       q    Type
REMARK                         _______ _______ _______ _____ _____    ______ ____
ROOT
ATOM      1  O   UNL     1       9.408   9.022  19.447  0.00  0.00    +0.000 OA
ATOM      2  C   UNL     1       8.618   9.147  18.515  0.00  0.00    +0.000 C 
ATOM      3  N   UNL     1       8.369  10.330  17.868  0.00  0.00    +0.000 N 
ATOM      4  C   UNL     1       9.013  11.523  18.086  0.00  0.00    +0.000 A 
ATOM      5  N   UNL     1       8.503  12.650  17.647  0.00  0.00    +0.000 NA
ATOM      6  C   UNL     1       9.322  13.702  18.017  0.00  0.00    +0.000 A 
ATOM      7  C   UNL     1       9.078  15.069  17.768  0.00  0.00    +0.000 A 
ATOM      8  C   UNL     1       9.992  16.029  18.218  0.00  0.00    +0.000 A 
ATOM      9  C   UNL     1      11.138  15.640  18.902  0.00  0.00    +0.000 A 
ATOM     10 CL   UNL     1      12.246  16.839  19.451  0.00  0.00    +0.000 Cl
ATOM     11  C   UNL     1      11.411  14.294  19.158  0.00  0.00    +0.000 A 
ATOM     12  C   UNL     1      10.484  13.342  18.703  0.00  0.00    +0.000 A 
ATOM     13  S   UNL     1      10.527  11.632  18.854  0.00  0.00    +0.000 S 
ATOM     14  N   UNL     1       7.890   8.052  18.050  0.00  0.00    +0.000 N 
ATOM     15  C   UNL     1       7.055   8.019  16.848  0.00  0.00    +0.000 C 
ATOM     16  C   UNL     1       5.924   7.047  17.007  0.00  0.00    +0.000 C 
ATOM     17  C   UNL     1       5.814   6.179  18.031  0.00  0.00    +0.000 C 
ATOM     18  C   UNL     1       6.881   6.053  19.083  0.00  0.00    +0.000 C 
ATOM     19  C   UNL     1       8.174   6.740  18.640  0.00  0.00    +0.000 C 
ATOM     20  H   UNL     1       7.482  10.468  17.421  0.00  0.00    +0.000 HD
ENDROOT
BRANCH  17  21
ATOM     21  C   UNL     1       4.633   5.321  18.174  0.00  0.00    +0.000 A 
ATOM     22  N   UNL     1       4.905   3.997  18.285  0.00  0.00    +0.000 NA
ATOM     23  C   UNL     1       3.852   3.157  18.424  0.00  0.00    +0.000 A 
ATOM     24  C   UNL     1       2.520   3.562  18.447  0.00  0.00    +0.000 A 
ATOM     25  C   UNL     1       2.269   4.934  18.318  0.00  0.00    +0.000 A 
ATOM     26  C   UNL     1       3.332   5.827  18.179  0.00  0.00    +0.000 A 
ATOM     27 CL   UNL     1       2.975   7.508  18.011  0.00  0.00    +0.000 Cl
BRANCH  24  28
ATOM     28  C   UNL     1       1.415   2.545  18.604  0.00  0.00    +0.000 C 
BRANCH  28  29
ATOM     29  O   UNL     1       2.004   1.251  18.723  0.00  0.00    +0.000 OA
ATOM     30  H   UNL     1       1.843   0.916  19.619  0.00  0.00    +0.000 HD
ENDBRANCH  28  29
BRANCH  28  31
ATOM     31  C   UNL     1       0.483   2.830  19.797  0.00  0.00    +0.000 C 
BRANCH  31  32
ATOM     32  O   UNL     1       1.198   2.980  21.018  0.00  0.00    +0.000 OA
ATOM     33  H   UNL     1       2.122   3.200  20.802  0.00  0.00    +0.000 HD
ENDBRANCH  31  32
ENDBRANCH  28  31
ENDBRANCH  24  28
ENDBRANCH  17  21
TORSDOF 5
ENDMDL
MODEL 5
REMARK VINA RESULT:      -7.2      1.518      1.726
REMARK  Name = 
REMARK  5 active torsions:
REMARK  status: ('A' for Active; 'I' for Inactive)
REMARK    1  A    between atoms: C_17  and  C_18
REMARK    2  A    between atoms: C_21  and  C_22
REMARK    3  A    between atoms: C_22  and  O_23
REMARK    4  A    between atoms: C_22  and  C_24
REMARK    5  A    between atoms: C_24  and  O_25
REMARK                            x       y       z     vdW  Elec       q    Type
REMARK                         _______ _______ _______ _____ _____    ______ ____
ROOT
ATOM      1  O   UNL     1       1.389  10.307  18.080  0.00  0.00    +0.000 OA
ATOM      2  C   UNL     1       1.159   9.971  19.239  0.00  0.00    +0.000 C 
ATOM      3  N   UNL     1       1.506   8.758  19.774  0.00  0.00    +0.000 N 
ATOM      4  C   UNL     1       2.235   7.776  19.149  0.00  0.00    +0.000 A 
ATOM      5  N   UNL     1       2.251   6.551  19.620  0.00  0.00    +0.000 NA
ATOM      6  C   UNL     1       3.029   5.751  18.801  0.00  0.00    +0.000 A 
ATOM      7  C   UNL     1       3.242   4.366  18.957  0.00  0.00    +0.000 A 
ATOM      8  C   UNL     1       4.045   3.681  18.036  0.00  0.00    +0.000 A 
ATOM      9  C   UNL     1       4.634   4.362  16.977  0.00  0.00    +0.000 A 
ATOM     10 CL   UNL     1       5.613   3.498  15.854  0.00  0.00    +0.000 Cl
ATOM     11  C   UNL     1       4.447   5.735  16.800  0.00  0.00    +0.000 A 
ATOM     12  C   UNL     1       3.637   6.408  17.730  0.00  0.00    +0.000 A 
ATOM     13  S   UNL     1       3.217   8.072  17.792  0.00  0.00    +0.000 S 
ATOM     14  N   UNL     1       0.493  10.834  20.109  0.00  0.00    +0.000 N 
ATOM     15  C   UNL     1       0.310  10.637  21.548  0.00  0.00    +0.000 C 
ATOM     16  C   UNL     1      -0.958  11.283  22.021  0.00  0.00    +0.000 C 
ATOM     17  C   UNL     1      -1.715  12.102  21.266  0.00  0.00    +0.000 C 
ATOM     18  C   UNL     1      -1.301  12.512  19.879  0.00  0.00    +0.000 C 
ATOM     19  C   UNL     1       0.171  12.181  19.625  0.00  0.00    +0.000 C 
ATOM     20  H   UNL     1       0.977   8.389  20.542  0.00  0.00    +0.000 HD
ENDROOT
BRANCH  17  21
ATOM     21  C   UNL     1      -2.992  12.625  21.761  0.00  0.00    +0.000 A 
ATOM     22  N   UNL     1      -4.078  12.242  21.043  0.00  0.00    +0.000 NA
ATOM     23  C   UNL     1      -5.286  12.691  21.458  0.00  0.00    +0.000 A 
ATOM     24  C   UNL     1      -5.481  13.525  22.556  0.00  0.00    +0.000 A 
ATOM     25  C   UNL     1      -4.341  13.913  23.271  0.00  0.00    +0.000 A 
ATOM     26  C   UNL     1      -3.081  13.462  22.874  0.00  0.00    +0.000 A 
ATOM     27 CL   UNL     1      -1.704  13.977  23.778  0.00  0.00    +0.000 Cl
BRANCH  24  28
ATOM     28  C   UNL     1      -6.871  13.974  22.937  0.00  0.00    +0.000 C 
BRANCH  28  29
ATOM     29  O   UNL     1      -7.711  13.871  21.788  0.00  0.00    +0.000 OA
ATOM     30  H   UNL     1      -7.405  14.506  21.120  0.00  0.00    +0.000 HD
ENDBRANCH  28  29
BRANCH  28  31
ATOM     31  C   UNL     1      -7.469  13.188  24.119  0.00  0.00    +0.000 C 
BRANCH  31  32
ATOM     32  O   UNL     1      -7.458  11.783  23.895  0.00  0.00    +0.000 OA
ATOM     33  H   UNL     1      -8.000  11.362  24.585  0.00  0.00    +0.000 HD
ENDBRANCH  31  32
ENDBRANCH  28  31
ENDBRANCH  24  28
ENDBRANCH  17  21
TORSDOF 5
ENDMDL
MODEL 6
REMARK VINA RESULT:      -7.1      3.406     11.392
REMARK  Name = 
REMARK  5 active torsions:
REMARK  status: ('A' for Active; 'I' for Inactive)
REMARK    1  A    between atoms: C_17  and  C_18
REMARK    2  A    between atoms: C_21  and  C_22
REMARK    3  A    between atoms: C_22  and  O_23
REMARK    4  A    between atoms: C_22  and  C_24
REMARK    5  A    between atoms: C_24  and  O_25
REMARK                            x       y       z     vdW  Elec       q    Type
REMARK                         _______ _______ _______ _____ _____    ______ ____
ROOT
ATOM      1  O   UNL     1      -0.686  10.724  23.075  0.00  0.00    +0.000 OA
ATOM      2  C   UNL     1      -0.506  10.812  21.863  0.00  0.00    +0.000 C 
ATOM      3  N   UNL     1      -1.283  11.565  21.020  0.00  0.00    +0.000 N 
ATOM      4  C   UNL     1      -2.306  12.401  21.394  0.00  0.00    +0.000 A 
ATOM      5  N   UNL     1      -3.175  12.832  20.510  0.00  0.00    +0.000 NA
ATOM      6  C   UNL     1      -4.116  13.630  21.138  0.00  0.00    +0.000 A 
ATOM      7  C   UNL     1      -5.233  14.232  20.523  0.00  0.00    +0.000 A 
ATOM      8  C   UNL     1      -6.113  15.004  21.292  0.00  0.00    +0.000 A 
ATOM      9  C   UNL     1      -5.886  15.181  22.652  0.00  0.00    +0.000 A 
ATOM     10 CL   UNL     1      -6.985  16.130  23.579  0.00  0.00    +0.000 Cl
ATOM     11  C   UNL     1      -4.784  14.603  23.287  0.00  0.00    +0.000 A 
ATOM     12  C   UNL     1      -3.912  13.830  22.504  0.00  0.00    +0.000 A 
ATOM     13  S   UNL     1      -2.485  12.997  22.977  0.00  0.00    +0.000 S 
ATOM     14  N   UNL     1       0.531  10.112  21.247  0.00  0.00    +0.000 N 
ATOM     15  C   UNL     1       0.964  10.260  19.857  0.00  0.00    +0.000 C 
ATOM     16  C   UNL     1       1.537   8.976  19.333  0.00  0.00    +0.000 C 
ATOM     17  C   UNL     1       1.801   7.900  20.100  0.00  0.00    +0.000 C 
ATOM     18  C   UNL     1       1.616   7.924  21.592  0.00  0.00    +0.000 C 
ATOM     19  C   UNL     1       1.452   9.357  22.103  0.00  0.00    +0.000 C 
ATOM     20  H   UNL     1      -1.354  11.306  20.054  0.00  0.00    +0.000 HD
ENDROOT
BRANCH  17  21
ATOM     21  C   UNL     1       2.272   6.644  19.508  0.00  0.00    +0.000 A 
ATOM     22  N   UNL     1       1.895   5.526  20.176  0.00  0.00    +0.000 NA
ATOM     23  C   UNL     1       2.298   4.336  19.671  0.00  0.00    +0.000 A 
ATOM     24  C   UNL     1       3.080   4.190  18.527  0.00  0.00    +0.000 A 
ATOM     25  C   UNL     1       3.463   5.363  17.865  0.00  0.00    +0.000 A 
ATOM     26  C   UNL     1       3.060   6.605  18.356  0.00  0.00    +0.000 A 
ATOM     27 CL   UNL     1       3.567   8.024  17.514  0.00  0.00    +0.000 Cl
BRANCH  24  28
ATOM     28  C   UNL     1       3.480   2.817  18.045  0.00  0.00    +0.000 C 
BRANCH  28  29
ATOM     29  O   UNL     1       4.589   2.953  17.158  0.00  0.00    +0.000 OA
ATOM     30  H   UNL     1       5.392   2.659  17.615  0.00  0.00    +0.000 HD
ENDBRANCH  28  29
BRANCH  28  31
ATOM     31  C   UNL     1       3.814   1.838  19.187  0.00  0.00    +0.000 C 
BRANCH  31  32
ATOM     32  O   UNL     1       5.068   2.126  19.795  0.00  0.00    +0.000 OA
ATOM     33  H   UNL     1       5.154   3.093  19.868  0.00  0.00    +0.000 HD
ENDBRANCH  31  32
ENDBRANCH  28  31
ENDBRANCH  24  28
ENDBRANCH  17  21
TORSDOF 5
ENDMDL
MODEL 7
REMARK VINA RESULT:      -7.0      1.129      1.300
REMARK  Name = 
REMARK  5 active torsions:
REMARK  status: ('A' for Active; 'I' for Inactive)
REMARK    1  A    between atoms: C_17  and  C_18
REMARK    2  A    between atoms: C_21  and  C_22
REMARK    3  A    between atoms: C_22  and  O_23
REMARK    4  A    between atoms: C_22  and  C_24
REMARK    5  A    between atoms: C_24  and  O_25
REMARK                            x       y       z     vdW  Elec       q    Type
REMARK                         _______ _______ _______ _____ _____    ______ ____
ROOT
ATOM      1  O   UNL     1       1.282   9.484  19.406  0.00  0.00    +0.000 OA
ATOM      2  C   UNL     1       0.846   9.232  20.527  0.00  0.00    +0.000 C 
ATOM      3  N   UNL     1       0.842   7.981  21.089  0.00  0.00    +0.000 N 
ATOM      4  C   UNL     1       1.394   6.848  20.546  0.00  0.00    +0.000 A 
ATOM      5  N   UNL     1       1.074   5.660  21.005  0.00  0.00    +0.000 NA
ATOM      6  C   UNL     1       1.739   4.689  20.277  0.00  0.00    +0.000 A 
ATOM      7  C   UNL     1       1.610   3.295  20.446  0.00  0.00    +0.000 A 
ATOM      8  C   UNL     1       2.337   2.428  19.622  0.00  0.00    +0.000 A 
ATOM      9  C   UNL     1       3.186   2.936  18.645  0.00  0.00    +0.000 A 
ATOM     10 CL   UNL     1       4.067   1.850  17.638  0.00  0.00    +0.000 Cl
ATOM     11  C   UNL     1       3.341   4.312  18.459  0.00  0.00    +0.000 A 
ATOM     12  C   UNL     1       2.603   5.169  19.292  0.00  0.00    +0.000 A 
ATOM     13  S   UNL     1       2.570   6.886  19.318  0.00  0.00    +0.000 S 
ATOM     14  N   UNL     1       0.298  10.240  21.319  0.00  0.00    +0.000 N 
ATOM     15  C   UNL     1      -0.092  10.117  22.724  0.00  0.00    +0.000 C 
ATOM     16  C   UNL     1      -1.226  11.044  23.050  0.00  0.00    +0.000 C 
ATOM     17  C   UNL     1      -1.681  12.000  22.216  0.00  0.00    +0.000 C 
ATOM     18  C   UNL     1      -1.024  12.278  20.893  0.00  0.00    +0.000 C 
ATOM     19  C   UNL     1       0.352  11.616  20.812  0.00  0.00    +0.000 C 
ATOM     20  H   UNL     1       0.155   7.758  21.785  0.00  0.00    +0.000 HD
ENDROOT
BRANCH  17  21
ATOM     21  C   UNL     1      -2.854  12.810  22.561  0.00  0.00    +0.000 A 
ATOM     22  N   UNL     1      -2.833  13.335  23.812  0.00  0.00    +0.000 NA
ATOM     23  C   UNL     1      -3.890  14.096  24.183  0.00  0.00    +0.000 A 
ATOM     24  C   UNL     1      -4.992  14.360  23.374  0.00  0.00    +0.000 A 
ATOM     25  C   UNL     1      -4.991  13.797  22.092  0.00  0.00    +0.000 A 
ATOM     26  C   UNL     1      -3.914  13.012  21.676  0.00  0.00    +0.000 A 
ATOM     27 CL   UNL     1      -3.963  12.327  20.092  0.00  0.00    +0.000 Cl
BRANCH  24  28
ATOM     28  C   UNL     1      -6.123  15.221  23.882  0.00  0.00    +0.000 C 
BRANCH  28  29
ATOM     29  O   UNL     1      -6.126  16.445  23.149  0.00  0.00    +0.000 OA
ATOM     30  H   UNL     1      -5.618  17.107  23.644  0.00  0.00    +0.000 HD
ENDBRANCH  28  29
BRANCH  28  31
ATOM     31  C   UNL     1      -7.501  14.536  23.802  0.00  0.00    +0.000 C 
BRANCH  31  32
ATOM     32  O   UNL     1      -7.710  13.618  24.869  0.00  0.00    +0.000 OA
ATOM     33  H   UNL     1      -8.666  13.451  24.942  0.00  0.00    +0.000 HD
ENDBRANCH  31  32
ENDBRANCH  28  31
ENDBRANCH  24  28
ENDBRANCH  17  21
TORSDOF 5
ENDMDL
MODEL 8
REMARK VINA RESULT:      -7.0      2.704      3.619
REMARK  Name = 
REMARK  5 active torsions:
REMARK  status: ('A' for Active; 'I' for Inactive)
REMARK    1  A    between atoms: C_17  and  C_18
REMARK    2  A    between atoms: C_21  and  C_22
REMARK    3  A    between atoms: C_22  and  O_23
REMARK    4  A    between atoms: C_22  and  C_24
REMARK    5  A    between atoms: C_24  and  O_25
REMARK                            x       y       z     vdW  Elec       q    Type
REMARK                         _______ _______ _______ _____ _____    ______ ____
ROOT
ATOM      1  O   UNL     1       1.468   7.508  21.372  0.00  0.00    +0.000 OA
ATOM      2  C   UNL     1       1.054   8.349  20.577  0.00  0.00    +0.000 C 
ATOM      3  N   UNL     1       1.519   8.493  19.295  0.00  0.00    +0.000 N 
ATOM      4  C   UNL     1       2.433   7.682  18.670  0.00  0.00    +0.000 A 
ATOM      5  N   UNL     1       3.036   8.075  17.571  0.00  0.00    +0.000 NA
ATOM      6  C   UNL     1       3.924   7.097  17.158  0.00  0.00    +0.000 A 
ATOM      7  C   UNL     1       4.787   7.180  16.045  0.00  0.00    +0.000 A 
ATOM      8  C   UNL     1       5.647   6.114  15.755  0.00  0.00    +0.000 A 
ATOM      9  C   UNL     1       5.648   4.977  16.555  0.00  0.00    +0.000 A 
ATOM     10 CL   UNL     1       6.719   3.679  16.183  0.00  0.00    +0.000 Cl
ATOM     11  C   UNL     1       4.799   4.862  17.659  0.00  0.00    +0.000 A 
ATOM     12  C   UNL     1       3.945   5.941  17.939  0.00  0.00    +0.000 A 
ATOM     13  S   UNL     1       2.796   6.109  19.205  0.00  0.00    +0.000 S 
ATOM     14  N   UNL     1       0.058   9.250  20.952  0.00  0.00    +0.000 N 
ATOM     15  C   UNL     1      -0.644  10.178  20.064  0.00  0.00    +0.000 C 
ATOM     16  C   UNL     1      -1.072  11.410  20.805  0.00  0.00    +0.000 C 
ATOM     17  C   UNL     1      -1.000  11.548  22.143  0.00  0.00    +0.000 C 
ATOM     18  C   UNL     1      -0.549  10.425  23.034  0.00  0.00    +0.000 C 
ATOM     19  C   UNL     1      -0.544   9.093  22.280  0.00  0.00    +0.000 C 
ATOM     20  H   UNL     1       1.454   9.388  18.847  0.00  0.00    +0.000 HD
ENDROOT
BRANCH  17  21
ATOM     21  C   UNL     1      -1.348  12.816  22.794  0.00  0.00    +0.000 A 
ATOM     22  N   UNL     1      -2.505  12.790  23.501  0.00  0.00    +0.000 NA
ATOM     23  C   UNL     1      -2.874  13.932  24.128  0.00  0.00    +0.000 A 
ATOM     24  C   UNL     1      -2.154  15.124  24.081  0.00  0.00    +0.000 A 
ATOM     25  C   UNL     1      -0.970  15.123  23.334  0.00  0.00    +0.000 A 
ATOM     26  C   UNL     1      -0.558  13.961  22.680  0.00  0.00    +0.000 A 
ATOM     27 CL   UNL     1       0.902  14.011  21.760  0.00  0.00    +0.000 Cl
BRANCH  24  28
ATOM     28  C   UNL     1      -2.652  16.346  24.814  0.00  0.00    +0.000 C 
BRANCH  28  29
ATOM     29  O   UNL     1      -3.942  16.058  25.351  0.00  0.00    +0.000 OA
ATOM     30  H   UNL     1      -4.605  16.575  24.865  0.00  0.00    +0.000 HD
ENDBRANCH  28  29
BRANCH  28  31
ATOM     31  C   UNL     1      -1.698  16.831  25.921  0.00  0.00    +0.000 C 
BRANCH  31  32
ATOM     32  O   UNL     1      -1.252  15.766  26.754  0.00  0.00    +0.000 OA
ATOM     33  H   UNL     1      -0.280  15.801  26.795  0.00  0.00    +0.000 HD
ENDBRANCH  31  32
ENDBRANCH  28  31
ENDBRANCH  24  28
ENDBRANCH  17  21
TORSDOF 5
ENDMDL
MODEL 9
REMARK VINA RESULT:      -7.0      1.278      1.508
REMARK  Name = 
REMARK  5 active torsions:
REMARK  status: ('A' for Active; 'I' for Inactive)
REMARK    1  A    between atoms: C_17  and  C_18
REMARK    2  A    between atoms: C_21  and  C_22
REMARK    3  A    between atoms: C_22  and  O_23
REMARK    4  A    between atoms: C_22  and  C_24
REMARK    5  A    between atoms: C_24  and  O_25
REMARK                            x       y       z     vdW  Elec       q    Type
REMARK                         _______ _______ _______ _____ _____    ______ ____
ROOT
ATOM      1  O   UNL     1       0.963  10.232  18.292  0.00  0.00    +0.000 OA
ATOM      2  C   UNL     1       0.885  10.004  19.497  0.00  0.00    +0.000 C 
ATOM      3  N   UNL     1       1.347   8.862  20.098  0.00  0.00    +0.000 N 
ATOM      4  C   UNL     1       2.040   7.848  19.484  0.00  0.00    +0.000 A 
ATOM      5  N   UNL     1       2.166   6.676  20.062  0.00  0.00    +0.000 NA
ATOM      6  C   UNL     1       2.877   5.826  19.234  0.00  0.00    +0.000 A 
ATOM      7  C   UNL     1       3.169   4.471  19.493  0.00  0.00    +0.000 A 
ATOM      8  C   UNL     1       3.889   3.726  18.550  0.00  0.00    +0.000 A 
ATOM      9  C   UNL     1       4.318   4.318  17.368  0.00  0.00    +0.000 A 
ATOM     10 CL   UNL     1       5.197   3.380  16.221  0.00  0.00    +0.000 Cl
ATOM     11  C   UNL     1       4.051   5.660  17.087  0.00  0.00    +0.000 A 
ATOM     12  C   UNL     1       3.326   6.394  18.040  0.00  0.00    +0.000 A 
ATOM     13  S   UNL     1       2.842   8.041  17.996  0.00  0.00    +0.000 S 
ATOM     14  N   UNL     1       0.287  10.926  20.356  0.00  0.00    +0.000 N 
ATOM     15  C   UNL     1       0.284  10.866  21.818  0.00  0.00    +0.000 C 
ATOM     16  C   UNL     1      -0.948  11.513  22.379  0.00  0.00    +0.000 C 
ATOM     17  C   UNL     1      -1.824  12.228  21.646  0.00  0.00    +0.000 C 
ATOM     18  C   UNL     1      -1.594  12.512  20.188  0.00  0.00    +0.000 C 
ATOM     19  C   UNL     1      -0.149  12.207  19.790  0.00  0.00    +0.000 C 
ATOM     20  H   UNL     1       0.927   8.554  20.955  0.00  0.00    +0.000 HD
ENDROOT
BRANCH  17  21
ATOM     21  C   UNL     1      -3.057  12.755  22.241  0.00  0.00    +0.000 A 
ATOM     22  N   UNL     1      -4.200  12.303  21.668  0.00  0.00    +0.000 NA
ATOM     23  C   UNL     1      -5.370  12.752  22.181  0.00  0.00    +0.000 A 
ATOM     24  C   UNL     1      -5.472  13.651  23.239  0.00  0.00    +0.000 A 
ATOM     25  C   UNL     1      -4.276  14.109  23.804  0.00  0.00    +0.000 A 
ATOM     26  C   UNL     1      -3.052  13.661  23.303  0.00  0.00    +0.000 A 
ATOM     27 CL   UNL     1      -1.602  14.262  24.022  0.00  0.00    +0.000 Cl
BRANCH  24  28
ATOM     28  C   UNL     1      -6.827  14.094  23.737  0.00  0.00    +0.000 C 
BRANCH  28  29
ATOM     29  O   UNL     1      -6.696  15.393  24.313  0.00  0.00    +0.000 OA
ATOM     30  H   UNL     1      -6.777  15.316  25.277  0.00  0.00    +0.000 HD
ENDBRANCH  28  29
BRANCH  28  31
ATOM     31  C   UNL     1      -7.915  14.090  22.646  0.00  0.00    +0.000 C 
BRANCH  31  32
ATOM     32  O   UNL     1      -7.916  15.290  21.881  0.00  0.00    +0.000 OA
ATOM     33  H   UNL     1      -7.914  16.043  22.498  0.00  0.00    +0.000 HD
ENDBRANCH  31  32
ENDBRANCH  28  31
ENDBRANCH  24  28
ENDBRANCH  17  21
TORSDOF 5
ENDMDL
