MODEL 1
REMARK VINA RESULT:      -8.6      0.000      0.000
REMARK  Name = 
REMARK  5 active torsions:
REMARK  status: ('A' for Active; 'I' for Inactive)
REMARK    1  A    between atoms: C_2  and  C_3
REMARK    2  A    between atoms: C_6  and  C_7
REMARK    3  A    between atoms: C_12  and  C_13
REMARK    4  A    between atoms: C_18  and  C_19
REMARK    5  A    between atoms: C_19  and  C_21
REMARK                            x       y       z     vdW  Elec       q    Type
REMARK                         _______ _______ _______ _____ _____    ______ ____
ROOT
ATOM      1  C   UNL     1       1.732   8.695  18.469  0.00  0.00    +0.000 C 
ATOM      2  O   UNL     1       2.269   8.835  17.373  0.00  0.00    +0.000 OA
ATOM      3  N   UNL     1       1.926   7.630  19.323  0.00  0.00    +0.000 N 
ATOM      4  C   UNL     1       2.783   6.608  18.989  0.00  0.00    +0.000 A 
ATOM      5  N   UNL     1       3.680   6.553  18.048  0.00  0.00    +0.000 NA
ATOM      6  C   UNL     1       4.206   5.267  17.954  0.00  0.00    +0.000 A 
ATOM      7  C   UNL     1       3.715   4.367  18.899  0.00  0.00    +0.000 A 
ATOM      8  S   UNL     1       2.642   5.228  19.953  0.00  0.00    +0.000 S 
ATOM      9  H   UNL     1       1.348   7.475  20.128  0.00  0.00    +0.000 HD
ENDROOT
BRANCH   1  13
ATOM     10  C   UNL     1      -1.046  11.688  19.875  0.00  0.00    +0.000 A 
ATOM     11  C   UNL     1      -0.010  11.220  20.685  0.00  0.00    +0.000 A 
ATOM     12  C   UNL     1       0.878  10.261  20.195  0.00  0.00    +0.000 A 
ATOM     13  C   UNL     1       0.746   9.746  18.892  0.00  0.00    +0.000 A 
ATOM     14  C   UNL     1      -0.291  10.219  18.082  0.00  0.00    +0.000 A 
ATOM     15  C   UNL     1      -1.183  11.189  18.575  0.00  0.00    +0.000 A 
BRANCH  10  17
ATOM     16  N   UNL     1      -2.711  13.461  20.781  0.00  0.00    +0.000 NA
ATOM     17  C   UNL     1      -1.966  12.668  20.377  0.00  0.00    +0.000 C 
ENDBRANCH  10  17
ENDBRANCH   1  13
BRANCH   6  18
ATOM     18  C   UNL     1       5.227   5.022  16.872  0.00  0.00    +0.000 A 
ATOM     19  C   UNL     1       4.980   4.164  15.817  0.00  0.00    +0.000 A 
ATOM     20  C   UNL     1       6.044   4.145  14.867  0.00  0.00    +0.000 A 
ATOM     21  C   UNL     1       7.107   4.917  15.277  0.00  0.00    +0.000 A 
ATOM     22  S   UNL     1       6.808   5.660  16.788  0.00  0.00    +0.000 S 
ENDBRANCH   6  18
BRANCH   7  23
ATOM     23  C   UNL     1       4.086   2.983  19.181  0.00  0.00    +0.000 C 
ATOM     24  O   UNL     1       5.032   2.709  19.929  0.00  0.00    +0.000 OA
BRANCH  23  25
ATOM     25  C   UNL     1       3.271   1.828  18.580  0.00  0.00    +0.000 C 
ATOM     26  F   UNL     1       3.920   0.638  18.453  0.00  0.00    +0.000 F 
ATOM     27  F   UNL     1       2.159   1.551  19.321  0.00  0.00    +0.000 F 
ATOM     28  F   UNL     1       2.821   2.137  17.328  0.00  0.00    +0.000 F 
ENDBRANCH  23  25
ENDBRANCH   7  23
TORSDOF 5
ENDMDL
MODEL 2
REMARK VINA RESULT:      -8.6      0.142      1.186
REMARK  Name = 
REMARK  5 active torsions:
REMARK  status: ('A' for Active; 'I' for Inactive)
REMARK    1  A    between atoms: C_2  and  C_3
REMARK    2  A    between atoms: C_6  and  C_7
REMARK    3  A    between atoms: C_12  and  C_13
REMARK    4  A    between atoms: C_18  and  C_19
REMARK    5  A    between atoms: C_19  and  C_21
REMARK                            x       y       z     vdW  Elec       q    Type
REMARK                         _______ _______ _______ _____ _____    ______ ____
ROOT
ATOM      1  C   UNL     1       1.752   8.714  18.638  0.00  0.00    +0.000 C 
ATOM      2  O   UNL     1       2.267   8.875  17.534  0.00  0.00    +0.000 OA
ATOM      3  N   UNL     1       1.953   7.626  19.460  0.00  0.00    +0.000 N 
ATOM      4  C   UNL     1       2.791   6.604  19.083  0.00  0.00    +0.000 A 
ATOM      5  N   UNL     1       3.666   6.562  18.121  0.00  0.00    +0.000 NA
ATOM      6  C   UNL     1       4.176   5.274  17.984  0.00  0.00    +0.000 A 
ATOM      7  C   UNL     1       3.696   4.356  18.918  0.00  0.00    +0.000 A 
ATOM      8  S   UNL     1       2.657   5.201  20.016  0.00  0.00    +0.000 S 
ATOM      9  H   UNL     1       1.391   7.457  20.274  0.00  0.00    +0.000 HD
ENDROOT
BRANCH   1  13
ATOM     10  C   UNL     1      -1.080  11.760  19.801  0.00  0.00    +0.000 A 
ATOM     11  C   UNL     1      -1.134  11.160  18.541  0.00  0.00    +0.000 A 
ATOM     12  C   UNL     1      -0.210  10.170  18.202  0.00  0.00    +0.000 A 
ATOM     13  C   UNL     1       0.787   9.764  19.108  0.00  0.00    +0.000 A 
ATOM     14  C   UNL     1       0.835  10.364  20.371  0.00  0.00    +0.000 A 
ATOM     15  C   UNL     1      -0.098  11.359  20.713  0.00  0.00    +0.000 A 
BRANCH  10  17
ATOM     16  N   UNL     1      -2.783  13.612  20.436  0.00  0.00    +0.000 NA
ATOM     17  C   UNL     1      -2.021  12.785  20.151  0.00  0.00    +0.000 C 
ENDBRANCH  10  17
ENDBRANCH   1  13
BRANCH   6  18
ATOM     18  C   UNL     1       5.171   5.045  16.875  0.00  0.00    +0.000 A 
ATOM     19  C   UNL     1       4.903   4.192  15.820  0.00  0.00    +0.000 A 
ATOM     20  C   UNL     1       5.942   4.188  14.843  0.00  0.00    +0.000 A 
ATOM     21  C   UNL     1       7.008   4.967  15.230  0.00  0.00    +0.000 A 
ATOM     22  S   UNL     1       6.743   5.697  16.753  0.00  0.00    +0.000 S 
ENDBRANCH   6  18
BRANCH   7  23
ATOM     23  C   UNL     1       4.058   2.961  19.158  0.00  0.00    +0.000 C 
ATOM     24  O   UNL     1       5.011   2.659  19.885  0.00  0.00    +0.000 OA
BRANCH  23  25
ATOM     25  C   UNL     1       3.225   1.831  18.536  0.00  0.00    +0.000 C 
ATOM     26  F   UNL     1       2.745   2.058  17.282  0.00  0.00    +0.000 F 
ATOM     27  F   UNL     1       3.935   0.669  18.441  0.00  0.00    +0.000 F 
ATOM     28  F   UNL     1       2.132   1.541  19.302  0.00  0.00    +0.000 F 
ENDBRANCH  23  25
ENDBRANCH   7  23
TORSDOF 5
ENDMDL
MODEL 3
REMARK VINA RESULT:      -8.5      1.602      2.146
REMARK  Name = 
REMARK  5 active torsions:
REMARK  status: ('A' for Active; 'I' for Inactive)
REMARK    1  A    between atoms: C_2  and  C_3
REMARK    2  A    between atoms: C_6  and  C_7
REMARK    3  A    between atoms: C_12  and  C_13
REMARK    4  A    between atoms: C_18  and  C_19
REMARK    5  A    between atoms: C_19  and  C_21
REMARK                            x       y       z     vdW  Elec       q    Type
REMARK                         _______ _______ _______ _____ _____    ______ ____
ROOT
ATOM      1  C   UNL     1       1.224   8.567  20.284  0.00  0.00    +0.000 C 
ATOM      2  O   UNL     1       1.534   8.942  19.155  0.00  0.00    +0.000 OA
ATOM      3  N   UNL     1       1.589   7.366  20.854  0.00  0.00    +0.000 N 
ATOM      4  C   UNL     1       2.372   6.470  20.165  0.00  0.00    +0.000 A 
ATOM      5  N   UNL     1       3.066   6.640  19.078  0.00  0.00    +0.000 NA
ATOM      6  C   UNL     1       3.573   5.423  18.631  0.00  0.00    +0.000 A 
ATOM      7  C   UNL     1       3.284   4.334  19.453  0.00  0.00    +0.000 A 
ATOM      8  S   UNL     1       2.434   4.923  20.844  0.00  0.00    +0.000 S 
ATOM      9  H   UNL     1       1.182   7.032  21.708  0.00  0.00    +0.000 HD
ENDROOT
BRANCH   1  13
ATOM     10  C   UNL     1      -1.322  11.298  22.454  0.00  0.00    +0.000 A 
ATOM     11  C   UNL     1      -1.032  11.493  21.103  0.00  0.00    +0.000 A 
ATOM     12  C   UNL     1      -0.214  10.584  20.428  0.00  0.00    +0.000 A 
ATOM     13  C   UNL     1       0.333   9.469  21.089  0.00  0.00    +0.000 A 
ATOM     14  C   UNL     1       0.037   9.274  22.441  0.00  0.00    +0.000 A 
ATOM     15  C   UNL     1      -0.790  10.189  23.120  0.00  0.00    +0.000 A 
BRANCH  10  17
ATOM     16  N   UNL     1      -2.829  12.990  23.721  0.00  0.00    +0.000 NA
ATOM     17  C   UNL     1      -2.154  12.234  23.154  0.00  0.00    +0.000 C 
ENDBRANCH  10  17
ENDBRANCH   1  13
BRANCH   6  18
ATOM     18  C   UNL     1       4.363   5.440  17.347  0.00  0.00    +0.000 A 
ATOM     19  C   UNL     1       4.571   6.607  16.635  0.00  0.00    +0.000 A 
ATOM     20  C   UNL     1       5.413   6.411  15.501  0.00  0.00    +0.000 A 
ATOM     21  C   UNL     1       5.743   5.085  15.333  0.00  0.00    +0.000 A 
ATOM     22  S   UNL     1       5.047   4.099  16.544  0.00  0.00    +0.000 S 
ENDBRANCH   6  18
BRANCH   7  23
ATOM     23  C   UNL     1       3.714   2.940  19.378  0.00  0.00    +0.000 C 
ATOM     24  O   UNL     1       4.775   2.564  19.888  0.00  0.00    +0.000 OA
BRANCH  23  25
ATOM     25  C   UNL     1       2.823   1.896  18.690  0.00  0.00    +0.000 C 
ATOM     26  F   UNL     1       1.716   1.503  19.379  0.00  0.00    +0.000 F 
ATOM     27  F   UNL     1       2.354   2.339  17.487  0.00  0.00    +0.000 F 
ATOM     28  F   UNL     1       3.516   0.750  18.423  0.00  0.00    +0.000 F 
ENDBRANCH  23  25
ENDBRANCH   7  23
TORSDOF 5
ENDMDL
MODEL 4
REMARK VINA RESULT:      -8.5      1.531      1.878
REMARK  Name = 
REMARK  5 active torsions:
REMARK  status: ('A' for Active; 'I' for Inactive)
REMARK    1  A    between atoms: C_2  and  C_3
REMARK    2  A    between atoms: C_6  and  C_7
REMARK    3  A    between atoms: C_12  and  C_13
REMARK    4  A    between atoms: C_18  and  C_19
REMARK    5  A    between atoms: C_19  and  C_21
REMARK                            x       y       z     vdW  Elec       q    Type
REMARK                         _______ _______ _______ _____ _____    ______ ____
ROOT
ATOM      1  C   UNL     1       1.503   8.478  20.290  0.00  0.00    +0.000 C 
ATOM      2  O   UNL     1       2.024   8.871  19.248  0.00  0.00    +0.000 OA
ATOM      3  N   UNL     1       1.697   7.237  20.859  0.00  0.00    +0.000 N 
ATOM      4  C   UNL     1       2.535   6.318  20.273  0.00  0.00    +0.000 A 
ATOM      5  N   UNL     1       3.414   6.482  19.328  0.00  0.00    +0.000 NA
ATOM      6  C   UNL     1       3.921   5.252  18.919  0.00  0.00    +0.000 A 
ATOM      7  C   UNL     1       3.434   4.155  19.630  0.00  0.00    +0.000 A 
ATOM      8  S   UNL     1       2.392   4.748  20.881  0.00  0.00    +0.000 S 
ATOM      9  H   UNL     1       1.131   6.899  21.615  0.00  0.00    +0.000 HD
ENDROOT
BRANCH   1  13
ATOM     10  C   UNL     1      -1.282  11.014  22.402  0.00  0.00    +0.000 A 
ATOM     11  C   UNL     1      -0.634   9.956  23.041  0.00  0.00    +0.000 A 
ATOM     12  C   UNL     1       0.270   9.163  22.332  0.00  0.00    +0.000 A 
ATOM     13  C   UNL     1       0.539   9.406  20.972  0.00  0.00    +0.000 A 
ATOM     14  C   UNL     1      -0.110  10.468  20.335  0.00  0.00    +0.000 A 
ATOM     15  C   UNL     1      -1.018  11.269  21.051  0.00  0.00    +0.000 A 
BRANCH  10  17
ATOM     16  N   UNL     1      -2.976  12.486  23.706  0.00  0.00    +0.000 NA
ATOM     17  C   UNL     1      -2.219  11.826  23.123  0.00  0.00    +0.000 C 
ENDBRANCH  10  17
ENDBRANCH   1  13
BRANCH   6  18
ATOM     18  C   UNL     1       4.920   5.264  17.789  0.00  0.00    +0.000 A 
ATOM     19  C   UNL     1       4.591   5.729  16.530  0.00  0.00    +0.000 A 
ATOM     20  C   UNL     1       5.705   5.729  15.639  0.00  0.00    +0.000 A 
ATOM     21  C   UNL     1       6.823   5.178  16.222  0.00  0.00    +0.000 A 
ATOM     22  S   UNL     1       6.522   4.678  17.829  0.00  0.00    +0.000 S 
ENDBRANCH   6  18
BRANCH   7  23
ATOM     23  C   UNL     1       3.791   2.740  19.565  0.00  0.00    +0.000 C 
ATOM     24  O   UNL     1       4.705   2.274  20.255  0.00  0.00    +0.000 OA
BRANCH  23  25
ATOM     25  C   UNL     1       3.000   1.787  18.658  0.00  0.00    +0.000 C 
ATOM     26  F   UNL     1       1.819   1.327  19.155  0.00  0.00    +0.000 F 
ATOM     27  F   UNL     1       2.683   2.366  17.464  0.00  0.00    +0.000 F 
ATOM     28  F   UNL     1       3.729   0.673  18.352  0.00  0.00    +0.000 F 
ENDBRANCH  23  25
ENDBRANCH   7  23
TORSDOF 5
ENDMDL
MODEL 5
REMARK VINA RESULT:      -8.2      1.559      1.812
REMARK  Name = 
REMARK  5 active torsions:
REMARK  status: ('A' for Active; 'I' for Inactive)
REMARK    1  A    between atoms: C_2  and  C_3
REMARK    2  A    between atoms: C_6  and  C_7
REMARK    3  A    between atoms: C_12  and  C_13
REMARK    4  A    between atoms: C_18  and  C_19
REMARK    5  A    between atoms: C_19  and  C_21
REMARK                            x       y       z     vdW  Elec       q    Type
REMARK                         _______ _______ _______ _____ _____    ______ ____
ROOT
ATOM      1  C   UNL     1       1.668   8.371  20.280  0.00  0.00    +0.000 C 
ATOM      2  O   UNL     1       2.245   8.765  19.269  0.00  0.00    +0.000 OA
ATOM      3  N   UNL     1       1.815   7.123  20.846  0.00  0.00    +0.000 N 
ATOM      4  C   UNL     1       2.665   6.195  20.293  0.00  0.00    +0.000 A 
ATOM      5  N   UNL     1       3.592   6.352  19.394  0.00  0.00    +0.000 NA
ATOM      6  C   UNL     1       4.099   5.118  18.998  0.00  0.00    +0.000 A 
ATOM      7  C   UNL     1       3.560   4.023  19.674  0.00  0.00    +0.000 A 
ATOM      8  S   UNL     1       2.468   4.622  20.879  0.00  0.00    +0.000 S 
ATOM      9  H   UNL     1       1.207   6.787  21.571  0.00  0.00    +0.000 HD
ENDROOT
BRANCH   1  13
ATOM     10  C   UNL     1      -1.161  10.943  22.287  0.00  0.00    +0.000 A 
ATOM     11  C   UNL     1      -0.475   9.941  22.975  0.00  0.00    +0.000 A 
ATOM     12  C   UNL     1       0.442   9.135  22.298  0.00  0.00    +0.000 A 
ATOM     13  C   UNL     1       0.687   9.308  20.923  0.00  0.00    +0.000 A 
ATOM     14  C   UNL     1       0.000  10.315  20.238  0.00  0.00    +0.000 A 
ATOM     15  C   UNL     1      -0.921  11.130  20.921  0.00  0.00    +0.000 A 
BRANCH  10  17
ATOM     16  N   UNL     1      -2.880  12.434  23.536  0.00  0.00    +0.000 NA
ATOM     17  C   UNL     1      -2.111  11.768  22.976  0.00  0.00    +0.000 C 
ENDBRANCH  10  17
ENDBRANCH   1  13
BRANCH   6  18
ATOM     18  C   UNL     1       5.152   5.123  17.919  0.00  0.00    +0.000 A 
ATOM     19  C   UNL     1       6.479   4.848  18.193  0.00  0.00    +0.000 A 
ATOM     20  C   UNL     1       7.286   4.824  17.018  0.00  0.00    +0.000 A 
ATOM     21  C   UNL     1       6.567   5.174  15.898  0.00  0.00    +0.000 A 
ATOM     22  S   UNL     1       4.934   5.515  16.272  0.00  0.00    +0.000 S 
ENDBRANCH   6  18
BRANCH   7  23
ATOM     23  C   UNL     1       3.898   2.603  19.613  0.00  0.00    +0.000 C 
ATOM     24  O   UNL     1       4.723   2.103  20.387  0.00  0.00    +0.000 OA
BRANCH  23  25
ATOM     25  C   UNL     1       3.194   1.687  18.602  0.00  0.00    +0.000 C 
ATOM     26  F   UNL     1       3.828   0.518  18.309  0.00  0.00    +0.000 F 
ATOM     27  F   UNL     1       1.950   1.320  19.027  0.00  0.00    +0.000 F 
ATOM     28  F   UNL     1       3.011   2.316  17.404  0.00  0.00    +0.000 F 
ENDBRANCH  23  25
ENDBRANCH   7  23
TORSDOF 5
ENDMDL
MODEL 6
REMARK VINA RESULT:      -8.2      0.694      1.467
REMARK  Name = 
REMARK  5 active torsions:
REMARK  status: ('A' for Active; 'I' for Inactive)
REMARK    1  A    between atoms: C_2  and  C_3
REMARK    2  A    between atoms: C_6  and  C_7
REMARK    3  A    between atoms: C_12  and  C_13
REMARK    4  A    between atoms: C_18  and  C_19
REMARK    5  A    between atoms: C_19  and  C_21
REMARK                            x       y       z     vdW  Elec       q    Type
REMARK                         _______ _______ _______ _____ _____    ______ ____
ROOT
ATOM      1  C   UNL     1       1.801   8.662  19.003  0.00  0.00    +0.000 C 
ATOM      2  O   UNL     1       2.464   8.893  17.994  0.00  0.00    +0.000 OA
ATOM      3  N   UNL     1       1.873   7.511  19.758  0.00  0.00    +0.000 N 
ATOM      4  C   UNL     1       2.741   6.501  19.420  0.00  0.00    +0.000 A 
ATOM      5  N   UNL     1       3.738   6.510  18.584  0.00  0.00    +0.000 NA
ATOM      6  C   UNL     1       4.244   5.224  18.418  0.00  0.00    +0.000 A 
ATOM      7  C   UNL     1       3.629   4.250  19.204  0.00  0.00    +0.000 A 
ATOM      8  S   UNL     1       2.461   5.036  20.215  0.00  0.00    +0.000 S 
ATOM      9  H   UNL     1       1.203   7.296  20.474  0.00  0.00    +0.000 HD
ENDROOT
BRANCH   1  13
ATOM     10  C   UNL     1      -1.125  11.676  20.005  0.00  0.00    +0.000 A 
ATOM     11  C   UNL     1      -1.036  11.150  18.715  0.00  0.00    +0.000 A 
ATOM     12  C   UNL     1      -0.086  10.168  18.428  0.00  0.00    +0.000 A 
ATOM     13  C   UNL     1       0.795   9.697  19.419  0.00  0.00    +0.000 A 
ATOM     14  C   UNL     1       0.701  10.224  20.711  0.00  0.00    +0.000 A 
ATOM     15  C   UNL     1      -0.258  11.211  21.001  0.00  0.00    +0.000 A 
BRANCH  10  17
ATOM     16  N   UNL     1      -2.878  13.513  20.544  0.00  0.00    +0.000 NA
ATOM     17  C   UNL     1      -2.093  12.692  20.303  0.00  0.00    +0.000 C 
ENDBRANCH  10  17
ENDBRANCH   1  13
BRANCH   6  18
ATOM     18  C   UNL     1       5.378   5.054  17.438  0.00  0.00    +0.000 A 
ATOM     19  C   UNL     1       6.671   4.800  17.856  0.00  0.00    +0.000 A 
ATOM     20  C   UNL     1       7.566   4.592  16.766  0.00  0.00    +0.000 A 
ATOM     21  C   UNL     1       6.946   4.786  15.553  0.00  0.00    +0.000 A 
ATOM     22  S   UNL     1       5.299   5.205  15.740  0.00  0.00    +0.000 S 
ENDBRANCH   6  18
BRANCH   7  23
ATOM     23  C   UNL     1       3.936   2.833  19.383  0.00  0.00    +0.000 C 
ATOM     24  O   UNL     1       4.841   2.460  20.138  0.00  0.00    +0.000 OA
BRANCH  23  25
ATOM     25  C   UNL     1       3.101   1.767  18.658  0.00  0.00    +0.000 C 
ATOM     26  F   UNL     1       1.931   1.412  19.256  0.00  0.00    +0.000 F 
ATOM     27  F   UNL     1       2.754   2.161  17.399  0.00  0.00    +0.000 F 
ATOM     28  F   UNL     1       3.803   0.605  18.507  0.00  0.00    +0.000 F 
ENDBRANCH  23  25
ENDBRANCH   7  23
TORSDOF 5
ENDMDL
MODEL 7
REMARK VINA RESULT:      -8.1      0.625      1.104
REMARK  Name = 
REMARK  5 active torsions:
REMARK  status: ('A' for Active; 'I' for Inactive)
REMARK    1  A    between atoms: C_2  and  C_3
REMARK    2  A    between atoms: C_6  and  C_7
REMARK    3  A    between atoms: C_12  and  C_13
REMARK    4  A    between atoms: C_18  and  C_19
REMARK    5  A    between atoms: C_19  and  C_21
REMARK                            x       y       z     vdW  Elec       q    Type
REMARK                         _______ _______ _______ _____ _____    ______ ____
ROOT
ATOM      1  C   UNL     1       1.645   8.818  18.549  0.00  0.00    +0.000 C 
ATOM      2  O   UNL     1       2.258   9.005  17.502  0.00  0.00    +0.000 OA
ATOM      3  N   UNL     1       1.779   7.716  19.366  0.00  0.00    +0.000 N 
ATOM      4  C   UNL     1       2.660   6.709  19.049  0.00  0.00    +0.000 A 
ATOM      5  N   UNL     1       3.622   6.694  18.173  0.00  0.00    +0.000 NA
ATOM      6  C   UNL     1       4.156   5.413  18.060  0.00  0.00    +0.000 A 
ATOM      7  C   UNL     1       3.600   4.472  18.927  0.00  0.00    +0.000 A 
ATOM      8  S   UNL     1       2.454   5.287  19.939  0.00  0.00    +0.000 S 
ATOM      9  H   UNL     1       1.146   7.526  20.121  0.00  0.00    +0.000 HD
ENDROOT
BRANCH   1  13
ATOM     10  C   UNL     1      -1.212  11.770  19.883  0.00  0.00    +0.000 A 
ATOM     11  C   UNL     1      -0.136  11.385  20.685  0.00  0.00    +0.000 A 
ATOM     12  C   UNL     1       0.777  10.437  20.218  0.00  0.00    +0.000 A 
ATOM     13  C   UNL     1       0.629   9.850  18.948  0.00  0.00    +0.000 A 
ATOM     14  C   UNL     1      -0.448  10.240  18.145  0.00  0.00    +0.000 A 
ATOM     15  C   UNL     1      -1.364  11.199  18.615  0.00  0.00    +0.000 A 
BRANCH  10  17
ATOM     16  N   UNL     1      -2.923  13.518  20.749  0.00  0.00    +0.000 NA
ATOM     17  C   UNL     1      -2.157  12.737  20.362  0.00  0.00    +0.000 C 
ENDBRANCH  10  17
ENDBRANCH   1  13
BRANCH   6  18
ATOM     18  C   UNL     1       5.252   5.215  17.044  0.00  0.00    +0.000 A 
ATOM     19  C   UNL     1       6.308   6.100  16.928  0.00  0.00    +0.000 A 
ATOM     20  C   UNL     1       7.271   5.679  15.965  0.00  0.00    +0.000 A 
ATOM     21  C   UNL     1       6.872   4.535  15.312  0.00  0.00    +0.000 A 
ATOM     22  S   UNL     1       5.354   3.980  15.870  0.00  0.00    +0.000 S 
ENDBRANCH   6  18
BRANCH   7  23
ATOM     23  C   UNL     1       3.954   3.077  19.173  0.00  0.00    +0.000 C 
ATOM     24  O   UNL     1       4.909   2.772  19.897  0.00  0.00    +0.000 OA
BRANCH  23  25
ATOM     25  C   UNL     1       3.108   1.949  18.564  0.00  0.00    +0.000 C 
ATOM     26  F   UNL     1       2.606   2.179  17.320  0.00  0.00    +0.000 F 
ATOM     27  F   UNL     1       3.814   0.786  18.454  0.00  0.00    +0.000 F 
ATOM     28  F   UNL     1       2.028   1.659  19.348  0.00  0.00    +0.000 F 
ENDBRANCH  23  25
ENDBRANCH   7  23
TORSDOF 5
ENDMDL
MODEL 8
REMARK VINA RESULT:      -7.9      2.761      3.872
REMARK  Name = 
REMARK  5 active torsions:
REMARK  status: ('A' for Active; 'I' for Inactive)
REMARK    1  A    between atoms: C_2  and  C_3
REMARK    2  A    between atoms: C_6  and  C_7
REMARK    3  A    between atoms: C_12  and  C_13
REMARK    4  A    between atoms: C_18  and  C_19
REMARK    5  A    between atoms: C_19  and  C_21
REMARK                            x       y       z     vdW  Elec       q    Type
REMARK                         _______ _______ _______ _____ _____    ______ ____
ROOT
ATOM      1  C   UNL     1       1.094   8.233  20.733  0.00  0.00    +0.000 C 
ATOM      2  O   UNL     1       1.078   7.155  21.322  0.00  0.00    +0.000 OA
ATOM      3  N   UNL     1       1.734   8.479  19.537  0.00  0.00    +0.000 N 
ATOM      4  C   UNL     1       2.422   7.481  18.890  0.00  0.00    +0.000 A 
ATOM      5  N   UNL     1       2.406   6.196  19.093  0.00  0.00    +0.000 NA
ATOM      6  C   UNL     1       3.383   5.570  18.324  0.00  0.00    +0.000 A 
ATOM      7  C   UNL     1       4.101   6.424  17.487  0.00  0.00    +0.000 A 
ATOM      8  S   UNL     1       3.433   8.016  17.646  0.00  0.00    +0.000 S 
ATOM      9  H   UNL     1       1.859   9.407  19.176  0.00  0.00    +0.000 HD
ENDROOT
BRANCH   1  13
ATOM     10  C   UNL     1      -0.789  11.684  22.521  0.00  0.00    +0.000 A 
ATOM     11  C   UNL     1      -0.063  11.786  21.333  0.00  0.00    +0.000 A 
ATOM     12  C   UNL     1       0.523  10.648  20.775  0.00  0.00    +0.000 A 
ATOM     13  C   UNL     1       0.402   9.390  21.395  0.00  0.00    +0.000 A 
ATOM     14  C   UNL     1      -0.329   9.291  22.583  0.00  0.00    +0.000 A 
ATOM     15  C   UNL     1      -0.923  10.437  23.142  0.00  0.00    +0.000 A 
BRANCH  10  17
ATOM     16  N   UNL     1      -1.871  13.796  23.572  0.00  0.00    +0.000 NA
ATOM     17  C   UNL     1      -1.386  12.852  23.103  0.00  0.00    +0.000 C 
ENDBRANCH  10  17
ENDBRANCH   1  13
BRANCH   6  18
ATOM     18  C   UNL     1       3.529   4.078  18.483  0.00  0.00    +0.000 A 
ATOM     19  C   UNL     1       4.308   3.524  19.482  0.00  0.00    +0.000 A 
ATOM     20  C   UNL     1       4.238   2.100  19.503  0.00  0.00    +0.000 A 
ATOM     21  C   UNL     1       3.483   1.612  18.461  0.00  0.00    +0.000 A 
ATOM     22  S   UNL     1       2.862   2.868  17.482  0.00  0.00    +0.000 S 
ENDBRANCH   6  18
BRANCH   7  23
ATOM     23  C   UNL     1       5.117   6.139  16.478  0.00  0.00    +0.000 C 
ATOM     24  O   UNL     1       5.049   6.619  15.340  0.00  0.00    +0.000 OA
BRANCH  23  25
ATOM     25  C   UNL     1       6.327   5.261  16.829  0.00  0.00    +0.000 C 
ATOM     26  F   UNL     1       6.739   5.297  18.127  0.00  0.00    +0.000 F 
ATOM     27  F   UNL     1       6.092   3.942  16.567  0.00  0.00    +0.000 F 
ATOM     28  F   UNL     1       7.421   5.602  16.087  0.00  0.00    +0.000 F 
ENDBRANCH  23  25
ENDBRANCH   7  23
TORSDOF 5
ENDMDL
MODEL 9
REMARK VINA RESULT:      -7.9      1.873      2.321
REMARK  Name = 
REMARK  5 active torsions:
REMARK  status: ('A' for Active; 'I' for Inactive)
REMARK    1  A    between atoms: C_2  and  C_3
REMARK    2  A    between atoms: C_6  and  C_7
REMARK    3  A    between atoms: C_12  and  C_13
REMARK    4  A    between atoms: C_18  and  C_19
REMARK    5  A    between atoms: C_19  and  C_21
REMARK                            x       y       z     vdW  Elec       q    Type
REMARK                         _______ _______ _______ _____ _____    ______ ____
ROOT
ATOM      1  C   UNL     1       1.198   8.682  20.356  0.00  0.00    +0.000 C 
ATOM      2  O   UNL     1       1.635   9.063  19.273  0.00  0.00    +0.000 OA
ATOM      3  N   UNL     1       1.361   7.419  20.883  0.00  0.00    +0.000 N 
ATOM      4  C   UNL     1       2.068   6.459  20.200  0.00  0.00    +0.000 A 
ATOM      5  N   UNL     1       2.855   6.583  19.171  0.00  0.00    +0.000 NA
ATOM      6  C   UNL     1       3.230   5.331  18.693  0.00  0.00    +0.000 A 
ATOM      7  C   UNL     1       2.743   4.254  19.434  0.00  0.00    +0.000 A 
ATOM      8  S   UNL     1       1.879   4.888  20.795  0.00  0.00    +0.000 S 
ATOM      9  H   UNL     1       0.854   7.104  21.689  0.00  0.00    +0.000 HD
ENDROOT
BRANCH   1  13
ATOM     10  C   UNL     1      -1.110  11.632  22.508  0.00  0.00    +0.000 A 
ATOM     11  C   UNL     1      -0.633  11.880  21.219  0.00  0.00    +0.000 A 
ATOM     12  C   UNL     1       0.100  10.900  20.547  0.00  0.00    +0.000 A 
ATOM     13  C   UNL     1       0.376   9.658  21.149  0.00  0.00    +0.000 A 
ATOM     14  C   UNL     1      -0.106   9.411  22.438  0.00  0.00    +0.000 A 
ATOM     15  C   UNL     1      -0.848  10.398  23.113  0.00  0.00    +0.000 A 
BRANCH  10  17
ATOM     16  N   UNL     1      -2.457  13.455  23.773  0.00  0.00    +0.000 NA
ATOM     17  C   UNL     1      -1.856  12.639  23.206  0.00  0.00    +0.000 C 
ENDBRANCH  10  17
ENDBRANCH   1  13
BRANCH   6  18
ATOM     18  C   UNL     1       4.107   5.300  17.466  0.00  0.00    +0.000 A 
ATOM     19  C   UNL     1       4.332   4.132  16.760  0.00  0.00    +0.000 A 
ATOM     20  C   UNL     1       5.120   4.345  15.591  0.00  0.00    +0.000 A 
ATOM     21  C   UNL     1       5.546   5.650  15.493  0.00  0.00    +0.000 A 
ATOM     22  S   UNL     1       4.987   6.601  16.800  0.00  0.00    +0.000 S 
ENDBRANCH   6  18
BRANCH   7  23
ATOM     23  C   UNL     1       2.992   2.820  19.311  0.00  0.00    +0.000 C 
ATOM     24  O   UNL     1       2.208   2.080  18.706  0.00  0.00    +0.000 OA
BRANCH  23  25
ATOM     25  C   UNL     1       4.270   2.206  19.902  0.00  0.00    +0.000 C 
ATOM     26  F   UNL     1       4.249   1.950  21.239  0.00  0.00    +0.000 F 
ATOM     27  F   UNL     1       4.580   1.014  19.315  0.00  0.00    +0.000 F 
ATOM     28  F   UNL     1       5.350   3.016  19.699  0.00  0.00    +0.000 F 
ENDBRANCH  23  25
ENDBRANCH   7  23
TORSDOF 5
ENDMDL
