MODEL 1
REMARK VINA RESULT:      -6.6      0.000      0.000
REMARK  Name = 
REMARK  14 active torsions:
REMARK  status: ('A' for Active; 'I' for Inactive)
REMARK    1  A    between atoms: C_1  and  C_2
REMARK    2  A    between atoms: C_2  and  C_3
REMARK    3  A    between atoms: C_2  and  C_4
REMARK    4  A    between atoms: C_2  and  C_20
REMARK    5  A    between atoms: C_4  and  N_5
REMARK    6  A    between atoms: C_20  and  N_21
REMARK    7  A    between atoms: N_21  and  C_22
REMARK    8  A    between atoms: N_21  and  C_23
REMARK    9  A    between atoms: N_21  and  C_24
REMARK   10  A    between atoms: C_24  and  C_25
REMARK   11  A    between atoms: C_25  and  C_26
REMARK   12  A    between atoms: C_26  and  C_27
REMARK   13  A    between atoms: C_27  and  C_28
REMARK   14  A    between atoms: C_28  and  C_29
REMARK                            x       y       z     vdW  Elec       q    Type
REMARK                         _______ _______ _______ _____ _____    ______ ____
ROOT
ATOM      1  C   UNL     1       3.612   5.830  18.640  0.00  0.00    +0.000 C 
ENDROOT
BRANCH   1   2
ATOM      2  N   UNL     1       2.575   6.804  19.048  0.00  0.00    +0.000 N 
ATOM      3  C   UNL     1       2.117   6.778  20.372  0.00  0.00    +0.000 C 
ATOM      4  O   UNL     1       2.325   5.841  21.139  0.00  0.00    +0.000 OA
ATOM      5  C   UNL     1       1.316   7.955  20.843  0.00  0.00    +0.000 A 
ATOM      6  C   UNL     1       0.964   8.099  22.185  0.00  0.00    +0.000 A 
ATOM      7  C   UNL     1       0.178   9.185  22.579  0.00  0.00    +0.000 A 
ATOM      8  C   UNL     1      -0.307  10.092  21.631  0.00  0.00    +0.000 A 
ATOM      9  C   UNL     1       0.022   9.946  20.275  0.00  0.00    +0.000 A 
ATOM     10  C   UNL     1      -0.451  10.829  19.284  0.00  0.00    +0.000 A 
ATOM     11  C   UNL     1      -0.063  10.683  17.950  0.00  0.00    +0.000 A 
ATOM     12  C   UNL     1       0.854   9.701  17.606  0.00  0.00    +0.000 A 
ATOM     13  C   UNL     1       1.335   8.847  18.595  0.00  0.00    +0.000 A 
ATOM     14  C   UNL     1       0.884   8.895  19.904  0.00  0.00    +0.000 A 
ATOM     15  C   UNL     1       2.480   7.977  18.321  0.00  0.00    +0.000 C 
ATOM     16  O   UNL     1       3.318   8.374  17.520  0.00  0.00    +0.000 OA
ENDBRANCH   1   2
BRANCH   1  18
ATOM     17  C   UNL     1       3.232   3.310  19.045  0.00  0.00    +0.000 C 
ATOM     18  C   UNL     1       3.134   4.477  18.016  0.00  0.00    +0.000 C 
ATOM     19  C   UNL     1       1.618   4.560  17.732  0.00  0.00    +0.000 C 
BRANCH  18  20
ATOM     20  C   UNL     1       3.953   3.991  16.790  0.00  0.00    +0.000 C 
BRANCH  20  21
ATOM     21  N   UNL     1       5.304   4.611  16.361  0.00  0.00    +0.000 N 
ATOM     22  C   UNL     1       5.213   6.057  15.886  0.00  0.00    +0.000 C 
ATOM     23  C   UNL     1       6.348   4.547  17.480  0.00  0.00    +0.000 C 
BRANCH  21  24
ATOM     24  C   UNL     1       5.888   3.736  15.182  0.00  0.00    +0.000 C 
BRANCH  24  25
ATOM     25  C   UNL     1       6.814   4.547  14.274  0.00  0.00    +0.000 C 
BRANCH  25  26
ATOM     26  C   UNL     1       6.530   4.384  12.785  0.00  0.00    +0.000 C 
BRANCH  26  27
ATOM     27  C   UNL     1       6.415   2.883  12.495  0.00  0.00    +0.000 C 
BRANCH  27  28
ATOM     28  C   UNL     1       5.276   2.548  11.544  0.00  0.00    +0.000 C 
BRANCH  28  29
ATOM     29  C   UNL     1       4.181   3.598  11.653  0.00  0.00    +0.000 C 
ATOM     30 BR   UNL     1       3.209   3.711   9.977  0.00  0.00    +0.000 Br
ENDBRANCH  28  29
ENDBRANCH  27  28
ENDBRANCH  26  27
ENDBRANCH  25  26
ENDBRANCH  24  25
ENDBRANCH  21  24
ENDBRANCH  20  21
ENDBRANCH  18  20
ENDBRANCH   1  18
TORSDOF 10
ENDMDL
MODEL 2
REMARK VINA RESULT:      -6.5      3.100      4.037
REMARK  Name = 
REMARK  14 active torsions:
REMARK  status: ('A' for Active; 'I' for Inactive)
REMARK    1  A    between atoms: C_1  and  C_2
REMARK    2  A    between atoms: C_2  and  C_3
REMARK    3  A    between atoms: C_2  and  C_4
REMARK    4  A    between atoms: C_2  and  C_20
REMARK    5  A    between atoms: C_4  and  N_5
REMARK    6  A    between atoms: C_20  and  N_21
REMARK    7  A    between atoms: N_21  and  C_22
REMARK    8  A    between atoms: N_21  and  C_23
REMARK    9  A    between atoms: N_21  and  C_24
REMARK   10  A    between atoms: C_24  and  C_25
REMARK   11  A    between atoms: C_25  and  C_26
REMARK   12  A    between atoms: C_26  and  C_27
REMARK   13  A    between atoms: C_27  and  C_28
REMARK   14  A    between atoms: C_28  and  C_29
REMARK                            x       y       z     vdW  Elec       q    Type
REMARK                         _______ _______ _______ _____ _____    ______ ____
ROOT
ATOM      1  C   UNL     1       2.721   7.692  19.566  0.00  0.00    +0.000 C 
ENDROOT
BRANCH   1   2
ATOM      2  N   UNL     1       1.507   8.532  19.662  0.00  0.00    +0.000 N 
ATOM      3  C   UNL     1       1.129   9.020  20.921  0.00  0.00    +0.000 C 
ATOM      4  O   UNL     1       1.585   8.587  21.977  0.00  0.00    +0.000 OA
ATOM      5  C   UNL     1       0.100  10.110  20.952  0.00  0.00    +0.000 A 
ATOM      6  C   UNL     1      -0.213  10.775  22.137  0.00  0.00    +0.000 A 
ATOM      7  C   UNL     1      -1.211  11.753  22.137  0.00  0.00    +0.000 A 
ATOM      8  C   UNL     1      -1.937  12.027  20.974  0.00  0.00    +0.000 A 
ATOM      9  C   UNL     1      -1.647  11.350  19.779  0.00  0.00    +0.000 A 
ATOM     10  C   UNL     1      -2.358  11.585  18.585  0.00  0.00    +0.000 A 
ATOM     11  C   UNL     1      -2.009  10.929  17.402  0.00  0.00    +0.000 A 
ATOM     12  C   UNL     1      -0.906  10.088  17.384  0.00  0.00    +0.000 A 
ATOM     13  C   UNL     1      -0.194   9.879  18.562  0.00  0.00    +0.000 A 
ATOM     14  C   UNL     1      -0.583  10.426  19.775  0.00  0.00    +0.000 A 
ATOM     15  C   UNL     1       1.108   9.210  18.525  0.00  0.00    +0.000 C 
ATOM     16  O   UNL     1       1.792   9.353  17.519  0.00  0.00    +0.000 OA
ENDBRANCH   1   2
BRANCH   1  18
ATOM     17  C   UNL     1       1.589   5.558  20.474  0.00  0.00    +0.000 C 
ATOM     18  C   UNL     1       2.526   6.151  19.378  0.00  0.00    +0.000 C 
ATOM     19  C   UNL     1       1.737   5.896  18.075  0.00  0.00    +0.000 C 
BRANCH  18  20
ATOM     20  C   UNL     1       3.826   5.306  19.473  0.00  0.00    +0.000 C 
BRANCH  20  21
ATOM     21  N   UNL     1       3.997   3.919  18.809  0.00  0.00    +0.000 N 
ATOM     22  C   UNL     1       4.163   2.764  19.792  0.00  0.00    +0.000 C 
ATOM     23  C   UNL     1       2.831   3.580  17.875  0.00  0.00    +0.000 C 
BRANCH  21  24
ATOM     24  C   UNL     1       5.279   3.975  17.888  0.00  0.00    +0.000 C 
BRANCH  24  25
ATOM     25  C   UNL     1       5.043   4.816  16.632  0.00  0.00    +0.000 C 
BRANCH  25  26
ATOM     26  C   UNL     1       6.082   5.908  16.406  0.00  0.00    +0.000 C 
BRANCH  26  27
ATOM     27  C   UNL     1       7.285   5.600  17.304  0.00  0.00    +0.000 C 
BRANCH  27  28
ATOM     28  C   UNL     1       7.661   6.761  18.213  0.00  0.00    +0.000 C 
BRANCH  28  29
ATOM     29  C   UNL     1       7.502   8.077  17.468  0.00  0.00    +0.000 C 
ATOM     30 BR   UNL     1       8.569   9.452  18.328  0.00  0.00    +0.000 Br
ENDBRANCH  28  29
ENDBRANCH  27  28
ENDBRANCH  26  27
ENDBRANCH  25  26
ENDBRANCH  24  25
ENDBRANCH  21  24
ENDBRANCH  20  21
ENDBRANCH  18  20
ENDBRANCH   1  18
TORSDOF 10
ENDMDL
MODEL 3
REMARK VINA RESULT:      -6.4      3.551      8.655
REMARK  Name = 
REMARK  14 active torsions:
REMARK  status: ('A' for Active; 'I' for Inactive)
REMARK    1  A    between atoms: C_1  and  C_2
REMARK    2  A    between atoms: C_2  and  C_3
REMARK    3  A    between atoms: C_2  and  C_4
REMARK    4  A    between atoms: C_2  and  C_20
REMARK    5  A    between atoms: C_4  and  N_5
REMARK    6  A    between atoms: C_20  and  N_21
REMARK    7  A    between atoms: N_21  and  C_22
REMARK    8  A    between atoms: N_21  and  C_23
REMARK    9  A    between atoms: N_21  and  C_24
REMARK   10  A    between atoms: C_24  and  C_25
REMARK   11  A    between atoms: C_25  and  C_26
REMARK   12  A    between atoms: C_26  and  C_27
REMARK   13  A    between atoms: C_27  and  C_28
REMARK   14  A    between atoms: C_28  and  C_29
REMARK                            x       y       z     vdW  Elec       q    Type
REMARK                         _______ _______ _______ _____ _____    ______ ____
ROOT
ATOM      1  C   UNL     1       1.897   8.745  19.812  0.00  0.00    +0.000 C 
ENDROOT
BRANCH   1   2
ATOM      2  N   UNL     1       2.234   7.533  19.034  0.00  0.00    +0.000 N 
ATOM      3  C   UNL     1       3.214   7.631  18.036  0.00  0.00    +0.000 C 
ATOM      4  O   UNL     1       3.620   8.702  17.591  0.00  0.00    +0.000 OA
ATOM      5  C   UNL     1       3.760   6.347  17.485  0.00  0.00    +0.000 A 
ATOM      6  C   UNL     1       4.853   6.340  16.618  0.00  0.00    +0.000 A 
ATOM      7  C   UNL     1       5.306   5.129  16.088  0.00  0.00    +0.000 A 
ATOM      8  C   UNL     1       4.636   3.935  16.373  0.00  0.00    +0.000 A 
ATOM      9  C   UNL     1       3.523   3.931  17.227  0.00  0.00    +0.000 A 
ATOM     10  C   UNL     1       2.811   2.754  17.536  0.00  0.00    +0.000 A 
ATOM     11  C   UNL     1       1.738   2.779  18.429  0.00  0.00    +0.000 A 
ATOM     12  C   UNL     1       1.411   3.962  19.076  0.00  0.00    +0.000 A 
ATOM     13  C   UNL     1       2.134   5.116  18.784  0.00  0.00    +0.000 A 
ATOM     14  C   UNL     1       3.129   5.147  17.819  0.00  0.00    +0.000 A 
ATOM     15  C   UNL     1       1.987   6.307  19.622  0.00  0.00    +0.000 C 
ATOM     16  O   UNL     1       1.725   6.139  20.807  0.00  0.00    +0.000 OA
ENDBRANCH   1   2
BRANCH   1  18
ATOM     17  C   UNL     1       0.091   9.064  17.997  0.00  0.00    +0.000 C 
ATOM     18  C   UNL     1       0.787   9.690  19.243  0.00  0.00    +0.000 C 
ATOM     19  C   UNL     1      -0.364   9.792  20.267  0.00  0.00    +0.000 C 
BRANCH  18  20
ATOM     20  C   UNL     1       1.289  11.077  18.757  0.00  0.00    +0.000 C 
BRANCH  20  21
ATOM     21  N   UNL     1       1.018  12.400  19.512  0.00  0.00    +0.000 N 
ATOM     22  C   UNL     1       1.538  12.427  20.946  0.00  0.00    +0.000 C 
ATOM     23  C   UNL     1       1.597  13.612  18.777  0.00  0.00    +0.000 C 
BRANCH  21  24
ATOM     24  C   UNL     1      -0.546  12.628  19.547  0.00  0.00    +0.000 C 
BRANCH  24  25
ATOM     25  C   UNL     1      -1.164  12.554  18.151  0.00  0.00    +0.000 C 
BRANCH  25  26
ATOM     26  C   UNL     1      -2.551  11.923  18.113  0.00  0.00    +0.000 C 
BRANCH  26  27
ATOM     27  C   UNL     1      -2.718  11.247  16.747  0.00  0.00    +0.000 C 
BRANCH  27  28
ATOM     28  C   UNL     1      -4.174  11.086  16.339  0.00  0.00    +0.000 C 
BRANCH  28  29
ATOM     29  C   UNL     1      -5.068  11.125  17.569  0.00  0.00    +0.000 C 
ATOM     30 BR   UNL     1      -6.394  12.529  17.374  0.00  0.00    +0.000 Br
ENDBRANCH  28  29
ENDBRANCH  27  28
ENDBRANCH  26  27
ENDBRANCH  25  26
ENDBRANCH  24  25
ENDBRANCH  21  24
ENDBRANCH  20  21
ENDBRANCH  18  20
ENDBRANCH   1  18
TORSDOF 10
ENDMDL
MODEL 4
REMARK VINA RESULT:      -6.3      2.345      3.524
REMARK  Name = 
REMARK  14 active torsions:
REMARK  status: ('A' for Active; 'I' for Inactive)
REMARK    1  A    between atoms: C_1  and  C_2
REMARK    2  A    between atoms: C_2  and  C_3
REMARK    3  A    between atoms: C_2  and  C_4
REMARK    4  A    between atoms: C_2  and  C_20
REMARK    5  A    between atoms: C_4  and  N_5
REMARK    6  A    between atoms: C_20  and  N_21
REMARK    7  A    between atoms: N_21  and  C_22
REMARK    8  A    between atoms: N_21  and  C_23
REMARK    9  A    between atoms: N_21  and  C_24
REMARK   10  A    between atoms: C_24  and  C_25
REMARK   11  A    between atoms: C_25  and  C_26
REMARK   12  A    between atoms: C_26  and  C_27
REMARK   13  A    between atoms: C_27  and  C_28
REMARK   14  A    between atoms: C_28  and  C_29
REMARK                            x       y       z     vdW  Elec       q    Type
REMARK                         _______ _______ _______ _____ _____    ______ ____
ROOT
ATOM      1  C   UNL     1       2.591   7.917  19.566  0.00  0.00    +0.000 C 
ENDROOT
BRANCH   1   2
ATOM      2  N   UNL     1       1.369   8.743  19.682  0.00  0.00    +0.000 N 
ATOM      3  C   UNL     1       1.023   9.253  20.941  0.00  0.00    +0.000 C 
ATOM      4  O   UNL     1       1.516   8.847  21.992  0.00  0.00    +0.000 OA
ATOM      5  C   UNL     1      -0.019  10.330  20.981  0.00  0.00    +0.000 A 
ATOM      6  C   UNL     1      -0.305  11.016  22.162  0.00  0.00    +0.000 A 
ATOM      7  C   UNL     1      -1.315  11.981  22.172  0.00  0.00    +0.000 A 
ATOM      8  C   UNL     1      -2.079  12.222  21.026  0.00  0.00    +0.000 A 
ATOM      9  C   UNL     1      -1.816  11.524  19.837  0.00  0.00    +0.000 A 
ATOM     10  C   UNL     1      -2.565  11.726  18.660  0.00  0.00    +0.000 A 
ATOM     11  C   UNL     1      -2.243  11.050  17.481  0.00  0.00    +0.000 A 
ATOM     12  C   UNL     1      -1.130  10.223  17.446  0.00  0.00    +0.000 A 
ATOM     13  C   UNL     1      -0.381  10.047  18.607  0.00  0.00    +0.000 A 
ATOM     14  C   UNL     1      -0.740  10.614  19.819  0.00  0.00    +0.000 A 
ATOM     15  C   UNL     1       0.928   9.393  18.544  0.00  0.00    +0.000 C 
ATOM     16  O   UNL     1       1.580   9.523  17.515  0.00  0.00    +0.000 OA
ENDBRANCH   1   2
BRANCH   1  18
ATOM     17  C   UNL     1       1.486   5.810  20.566  0.00  0.00    +0.000 C 
ATOM     18  C   UNL     1       2.412   6.367  19.443  0.00  0.00    +0.000 C 
ATOM     19  C   UNL     1       1.619   6.052  18.155  0.00  0.00    +0.000 C 
BRANCH  18  20
ATOM     20  C   UNL     1       3.720   5.541  19.565  0.00  0.00    +0.000 C 
BRANCH  20  21
ATOM     21  N   UNL     1       3.838   4.056  19.149  0.00  0.00    +0.000 N 
ATOM     22  C   UNL     1       3.142   3.078  20.090  0.00  0.00    +0.000 C 
ATOM     23  C   UNL     1       3.304   3.810  17.734  0.00  0.00    +0.000 C 
BRANCH  21  24
ATOM     24  C   UNL     1       5.374   3.686  19.096  0.00  0.00    +0.000 C 
BRANCH  24  25
ATOM     25  C   UNL     1       6.259   4.931  19.026  0.00  0.00    +0.000 C 
BRANCH  25  26
ATOM     26  C   UNL     1       7.498   4.770  18.154  0.00  0.00    +0.000 C 
BRANCH  26  27
ATOM     27  C   UNL     1       7.279   5.590  16.878  0.00  0.00    +0.000 C 
BRANCH  27  28
ATOM     28  C   UNL     1       6.922   4.731  15.674  0.00  0.00    +0.000 C 
BRANCH  28  29
ATOM     29  C   UNL     1       5.609   5.202  15.069  0.00  0.00    +0.000 C 
ATOM     30 BR   UNL     1       4.953   6.747  16.043  0.00  0.00    +0.000 Br
ENDBRANCH  28  29
ENDBRANCH  27  28
ENDBRANCH  26  27
ENDBRANCH  25  26
ENDBRANCH  24  25
ENDBRANCH  21  24
ENDBRANCH  20  21
ENDBRANCH  18  20
ENDBRANCH   1  18
TORSDOF 10
ENDMDL
MODEL 5
REMARK VINA RESULT:      -6.2      2.964      4.021
REMARK  Name = 
REMARK  14 active torsions:
REMARK  status: ('A' for Active; 'I' for Inactive)
REMARK    1  A    between atoms: C_1  and  C_2
REMARK    2  A    between atoms: C_2  and  C_3
REMARK    3  A    between atoms: C_2  and  C_4
REMARK    4  A    between atoms: C_2  and  C_20
REMARK    5  A    between atoms: C_4  and  N_5
REMARK    6  A    between atoms: C_20  and  N_21
REMARK    7  A    between atoms: N_21  and  C_22
REMARK    8  A    between atoms: N_21  and  C_23
REMARK    9  A    between atoms: N_21  and  C_24
REMARK   10  A    between atoms: C_24  and  C_25
REMARK   11  A    between atoms: C_25  and  C_26
REMARK   12  A    between atoms: C_26  and  C_27
REMARK   13  A    between atoms: C_27  and  C_28
REMARK   14  A    between atoms: C_28  and  C_29
REMARK                            x       y       z     vdW  Elec       q    Type
REMARK                         _______ _______ _______ _____ _____    ______ ____
ROOT
ATOM      1  C   UNL     1       2.519   7.324  19.677  0.00  0.00    +0.000 C 
ENDROOT
BRANCH   1   2
ATOM      2  N   UNL     1       1.410   8.295  19.806  0.00  0.00    +0.000 N 
ATOM      3  C   UNL     1       1.114   8.808  21.076  0.00  0.00    +0.000 C 
ATOM      4  O   UNL     1       1.536   8.314  22.119  0.00  0.00    +0.000 OA
ATOM      5  C   UNL     1       0.216  10.008  21.137  0.00  0.00    +0.000 A 
ATOM      6  C   UNL     1       0.003  10.690  22.335  0.00  0.00    +0.000 A 
ATOM      7  C   UNL     1      -0.877  11.775  22.364  0.00  0.00    +0.000 A 
ATOM      8  C   UNL     1      -1.589  12.143  21.217  0.00  0.00    +0.000 A 
ATOM      9  C   UNL     1      -1.400  11.452  20.011  0.00  0.00    +0.000 A 
ATOM     10  C   UNL     1      -2.101  11.781  18.833  0.00  0.00    +0.000 A 
ATOM     11  C   UNL     1      -1.851  11.103  17.638  0.00  0.00    +0.000 A 
ATOM     12  C   UNL     1      -0.851  10.143  17.590  0.00  0.00    +0.000 A 
ATOM     13  C   UNL     1      -0.146   9.840  18.752  0.00  0.00    +0.000 A 
ATOM     14  C   UNL     1      -0.448  10.413  19.977  0.00  0.00    +0.000 A 
ATOM     15  C   UNL     1       1.070   9.027  18.683  0.00  0.00    +0.000 C 
ATOM     16  O   UNL     1       1.747   9.103  17.665  0.00  0.00    +0.000 OA
ENDBRANCH   1   2
BRANCH   1  18
ATOM     17  C   UNL     1       0.814   5.465  20.224  0.00  0.00    +0.000 C 
ATOM     18  C   UNL     1       2.147   5.815  19.494  0.00  0.00    +0.000 C 
ATOM     19  C   UNL     1       1.806   5.555  18.010  0.00  0.00    +0.000 C 
BRANCH  18  20
ATOM     20  C   UNL     1       3.182   4.807  20.062  0.00  0.00    +0.000 C 
BRANCH  20  21
ATOM     21  N   UNL     1       2.949   3.279  20.118  0.00  0.00    +0.000 N 
ATOM     22  C   UNL     1       2.747   2.721  21.523  0.00  0.00    +0.000 C 
ATOM     23  C   UNL     1       1.754   2.847  19.263  0.00  0.00    +0.000 C 
BRANCH  21  24
ATOM     24  C   UNL     1       4.210   2.571  19.479  0.00  0.00    +0.000 C 
BRANCH  24  25
ATOM     25  C   UNL     1       5.052   3.544  18.652  0.00  0.00    +0.000 C 
BRANCH  25  26
ATOM     26  C   UNL     1       4.684   3.589  17.174  0.00  0.00    +0.000 C 
BRANCH  26  27
ATOM     27  C   UNL     1       5.442   4.761  16.541  0.00  0.00    +0.000 C 
BRANCH  27  28
ATOM     28  C   UNL     1       6.182   5.611  17.563  0.00  0.00    +0.000 C 
BRANCH  28  29
ATOM     29  C   UNL     1       6.070   7.082  17.196  0.00  0.00    +0.000 C 
ATOM     30 BR   UNL     1       7.726   7.996  17.627  0.00  0.00    +0.000 Br
ENDBRANCH  28  29
ENDBRANCH  27  28
ENDBRANCH  26  27
ENDBRANCH  25  26
ENDBRANCH  24  25
ENDBRANCH  21  24
ENDBRANCH  20  21
ENDBRANCH  18  20
ENDBRANCH   1  18
TORSDOF 10
ENDMDL
MODEL 6
REMARK VINA RESULT:      -6.1      3.234      4.395
REMARK  Name = 
REMARK  14 active torsions:
REMARK  status: ('A' for Active; 'I' for Inactive)
REMARK    1  A    between atoms: C_1  and  C_2
REMARK    2  A    between atoms: C_2  and  C_3
REMARK    3  A    between atoms: C_2  and  C_4
REMARK    4  A    between atoms: C_2  and  C_20
REMARK    5  A    between atoms: C_4  and  N_5
REMARK    6  A    between atoms: C_20  and  N_21
REMARK    7  A    between atoms: N_21  and  C_22
REMARK    8  A    between atoms: N_21  and  C_23
REMARK    9  A    between atoms: N_21  and  C_24
REMARK   10  A    between atoms: C_24  and  C_25
REMARK   11  A    between atoms: C_25  and  C_26
REMARK   12  A    between atoms: C_26  and  C_27
REMARK   13  A    between atoms: C_27  and  C_28
REMARK   14  A    between atoms: C_28  and  C_29
REMARK                            x       y       z     vdW  Elec       q    Type
REMARK                         _______ _______ _______ _____ _____    ______ ____
ROOT
ATOM      1  C   UNL     1       3.219   6.998  18.714  0.00  0.00    +0.000 C 
ENDROOT
BRANCH   1   2
ATOM      2  N   UNL     1       2.086   7.831  19.176  0.00  0.00    +0.000 N 
ATOM      3  C   UNL     1       1.772   7.834  20.542  0.00  0.00    +0.000 C 
ATOM      4  O   UNL     1       2.201   6.998  21.335  0.00  0.00    +0.000 OA
ATOM      5  C   UNL     1       0.845   8.907  21.029  0.00  0.00    +0.000 A 
ATOM      6  C   UNL     1       0.610   9.096  22.391  0.00  0.00    +0.000 A 
ATOM      7  C   UNL     1      -0.296  10.075  22.806  0.00  0.00    +0.000 A 
ATOM      8  C   UNL     1      -1.010  10.826  21.866  0.00  0.00    +0.000 A 
ATOM      9  C   UNL     1      -0.798  10.632  20.493  0.00  0.00    +0.000 A 
ATOM     10  C   UNL     1      -1.501  11.357  19.510  0.00  0.00    +0.000 A 
ATOM     11  C   UNL     1      -1.229  11.173  18.152  0.00  0.00    +0.000 A 
ATOM     12  C   UNL     1      -0.207  10.319  17.767  0.00  0.00    +0.000 A 
ATOM     13  C   UNL     1       0.500   9.623  18.745  0.00  0.00    +0.000 A 
ATOM     14  C   UNL     1       0.178   9.699  20.091  0.00  0.00    +0.000 A 
ATOM     15  C   UNL     1       1.735   8.918  18.398  0.00  0.00    +0.000 C 
ATOM     16  O   UNL     1       2.415   9.378  17.489  0.00  0.00    +0.000 OA
ENDBRANCH   1   2
BRANCH   1  18
ATOM     17  C   UNL     1       3.040   4.492  19.303  0.00  0.00    +0.000 C 
ATOM     18  C   UNL     1       2.896   5.563  18.180  0.00  0.00    +0.000 C 
ATOM     19  C   UNL     1       1.396   5.484  17.819  0.00  0.00    +0.000 C 
BRANCH  18  20
ATOM     20  C   UNL     1       3.820   5.062  17.038  0.00  0.00    +0.000 C 
BRANCH  20  21
ATOM     21  N   UNL     1       5.356   4.939  17.169  0.00  0.00    +0.000 N 
ATOM     22  C   UNL     1       5.860   4.818  18.604  0.00  0.00    +0.000 C 
ATOM     23  C   UNL     1       5.909   3.753  16.374  0.00  0.00    +0.000 C 
BRANCH  21  24
ATOM     24  C   UNL     1       6.004   6.227  16.523  0.00  0.00    +0.000 C 
BRANCH  24  25
ATOM     25  C   UNL     1       6.338   7.287  17.574  0.00  0.00    +0.000 C 
BRANCH  25  26
ATOM     26  C   UNL     1       7.795   7.734  17.570  0.00  0.00    +0.000 C 
BRANCH  26  27
ATOM     27  C   UNL     1       7.817   9.252  17.779  0.00  0.00    +0.000 C 
BRANCH  27  28
ATOM     28  C   UNL     1       8.882   9.701  18.768  0.00  0.00    +0.000 C 
BRANCH  28  29
ATOM     29  C   UNL     1       9.779  10.748  18.127  0.00  0.00    +0.000 C 
ATOM     30 BR   UNL     1       8.770  12.376  17.815  0.00  0.00    +0.000 Br
ENDBRANCH  28  29
ENDBRANCH  27  28
ENDBRANCH  26  27
ENDBRANCH  25  26
ENDBRANCH  24  25
ENDBRANCH  21  24
ENDBRANCH  20  21
ENDBRANCH  18  20
ENDBRANCH   1  18
TORSDOF 10
ENDMDL
MODEL 7
REMARK VINA RESULT:      -6.1      4.253      9.158
REMARK  Name = 
REMARK  14 active torsions:
REMARK  status: ('A' for Active; 'I' for Inactive)
REMARK    1  A    between atoms: C_1  and  C_2
REMARK    2  A    between atoms: C_2  and  C_3
REMARK    3  A    between atoms: C_2  and  C_4
REMARK    4  A    between atoms: C_2  and  C_20
REMARK    5  A    between atoms: C_4  and  N_5
REMARK    6  A    between atoms: C_20  and  N_21
REMARK    7  A    between atoms: N_21  and  C_22
REMARK    8  A    between atoms: N_21  and  C_23
REMARK    9  A    between atoms: N_21  and  C_24
REMARK   10  A    between atoms: C_24  and  C_25
REMARK   11  A    between atoms: C_25  and  C_26
REMARK   12  A    between atoms: C_26  and  C_27
REMARK   13  A    between atoms: C_27  and  C_28
REMARK   14  A    between atoms: C_28  and  C_29
REMARK                            x       y       z     vdW  Elec       q    Type
REMARK                         _______ _______ _______ _____ _____    ______ ____
ROOT
ATOM      1  C   UNL     1       1.917   9.308  19.527  0.00  0.00    +0.000 C 
ENDROOT
BRANCH   1   2
ATOM      2  N   UNL     1       2.060   7.882  19.159  0.00  0.00    +0.000 N 
ATOM      3  C   UNL     1       2.874   7.552  18.066  0.00  0.00    +0.000 C 
ATOM      4  O   UNL     1       3.262   8.375  17.240  0.00  0.00    +0.000 OA
ATOM      5  C   UNL     1       3.255   6.110  17.908  0.00  0.00    +0.000 A 
ATOM      6  C   UNL     1       4.195   5.712  16.957  0.00  0.00    +0.000 A 
ATOM      7  C   UNL     1       4.490   4.354  16.806  0.00  0.00    +0.000 A 
ATOM      8  C   UNL     1       3.810   3.391  17.558  0.00  0.00    +0.000 A 
ATOM      9  C   UNL     1       2.847   3.777  18.503  0.00  0.00    +0.000 A 
ATOM     10  C   UNL     1       2.130   2.843  19.276  0.00  0.00    +0.000 A 
ATOM     11  C   UNL     1       1.214   3.264  20.243  0.00  0.00    +0.000 A 
ATOM     12  C   UNL     1       1.059   4.619  20.496  0.00  0.00    +0.000 A 
ATOM     13  C   UNL     1       1.789   5.537  19.744  0.00  0.00    +0.000 A 
ATOM     14  C   UNL     1       2.620   5.153  18.702  0.00  0.00    +0.000 A 
ATOM     15  C   UNL     1       1.842   6.943  20.149  0.00  0.00    +0.000 C 
ATOM     16  O   UNL     1       1.763   7.192  21.346  0.00  0.00    +0.000 OA
ENDBRANCH   1   2
BRANCH   1  18
ATOM     17  C   UNL     1      -0.071   9.455  17.889  0.00  0.00    +0.000 C 
ATOM     18  C   UNL     1       0.557  10.010  19.203  0.00  0.00    +0.000 C 
ATOM     19  C   UNL     1      -0.483   9.614  20.275  0.00  0.00    +0.000 C 
BRANCH  18  20
ATOM     20  C   UNL     1       0.643  11.544  18.982  0.00  0.00    +0.000 C 
BRANCH  20  21
ATOM     21  N   UNL     1      -0.490  12.529  19.356  0.00  0.00    +0.000 N 
ATOM     22  C   UNL     1      -1.886  12.073  18.943  0.00  0.00    +0.000 C 
ATOM     23  C   UNL     1      -0.518  12.832  20.857  0.00  0.00    +0.000 C 
BRANCH  21  24
ATOM     24  C   UNL     1      -0.189  13.909  18.646  0.00  0.00    +0.000 C 
BRANCH  24  25
ATOM     25  C   UNL     1       1.310  14.128  18.439  0.00  0.00    +0.000 C 
BRANCH  25  26
ATOM     26  C   UNL     1       1.862  15.370  19.130  0.00  0.00    +0.000 C 
BRANCH  26  27
ATOM     27  C   UNL     1       3.019  15.902  18.277  0.00  0.00    +0.000 C 
BRANCH  27  28
ATOM     28  C   UNL     1       2.612  17.061  17.380  0.00  0.00    +0.000 C 
BRANCH  28  29
ATOM     29  C   UNL     1       1.385  17.754  17.951  0.00  0.00    +0.000 C 
ATOM     30 BR   UNL     1       0.369  18.579  16.518  0.00  0.00    +0.000 Br
ENDBRANCH  28  29
ENDBRANCH  27  28
ENDBRANCH  26  27
ENDBRANCH  25  26
ENDBRANCH  24  25
ENDBRANCH  21  24
ENDBRANCH  20  21
ENDBRANCH  18  20
ENDBRANCH   1  18
TORSDOF 10
ENDMDL
MODEL 8
REMARK VINA RESULT:      -6.1      4.108      9.177
REMARK  Name = 
REMARK  14 active torsions:
REMARK  status: ('A' for Active; 'I' for Inactive)
REMARK    1  A    between atoms: C_1  and  C_2
REMARK    2  A    between atoms: C_2  and  C_3
REMARK    3  A    between atoms: C_2  and  C_4
REMARK    4  A    between atoms: C_2  and  C_20
REMARK    5  A    between atoms: C_4  and  N_5
REMARK    6  A    between atoms: C_20  and  N_21
REMARK    7  A    between atoms: N_21  and  C_22
REMARK    8  A    between atoms: N_21  and  C_23
REMARK    9  A    between atoms: N_21  and  C_24
REMARK   10  A    between atoms: C_24  and  C_25
REMARK   11  A    between atoms: C_25  and  C_26
REMARK   12  A    between atoms: C_26  and  C_27
REMARK   13  A    between atoms: C_27  and  C_28
REMARK   14  A    between atoms: C_28  and  C_29
REMARK                            x       y       z     vdW  Elec       q    Type
REMARK                         _______ _______ _______ _____ _____    ______ ____
ROOT
ATOM      1  C   UNL     1       1.179  10.319  19.554  0.00  0.00    +0.000 C 
ENDROOT
BRANCH   1   2
ATOM      2  N   UNL     1       1.589   8.927  19.266  0.00  0.00    +0.000 N 
ATOM      3  C   UNL     1       2.363   8.680  18.124  0.00  0.00    +0.000 C 
ATOM      4  O   UNL     1       2.501   9.495  17.213  0.00  0.00    +0.000 OA
ATOM      5  C   UNL     1       3.025   7.339  18.022  0.00  0.00    +0.000 A 
ATOM      6  C   UNL     1       3.948   7.063  17.012  0.00  0.00    +0.000 A 
ATOM      7  C   UNL     1       4.509   5.787  16.921  0.00  0.00    +0.000 A 
ATOM      8  C   UNL     1       4.110   4.771  17.795  0.00  0.00    +0.000 A 
ATOM      9  C   UNL     1       3.168   5.029  18.801  0.00  0.00    +0.000 A 
ATOM     10  C   UNL     1       2.728   4.035  19.698  0.00  0.00    +0.000 A 
ATOM     11  C   UNL     1       1.825   4.339  20.720  0.00  0.00    +0.000 A 
ATOM     12  C   UNL     1       1.410   5.650  20.899  0.00  0.00    +0.000 A 
ATOM     13  C   UNL     1       1.867   6.632  20.024  0.00  0.00    +0.000 A 
ATOM     14  C   UNL     1       2.672   6.341  18.934  0.00  0.00    +0.000 A 
ATOM     15  C   UNL     1       1.655   8.048  20.331  0.00  0.00    +0.000 C 
ATOM     16  O   UNL     1       1.622   8.374  21.512  0.00  0.00    +0.000 OA
ENDBRANCH   1   2
BRANCH   1  18
ATOM     17  C   UNL     1      -0.844   9.874  18.015  0.00  0.00    +0.000 C 
ATOM     18  C   UNL     1      -0.282  10.738  19.185  0.00  0.00    +0.000 C 
ATOM     19  C   UNL     1      -1.222  10.382  20.359  0.00  0.00    +0.000 C 
BRANCH  18  20
ATOM     20  C   UNL     1      -0.446  12.205  18.704  0.00  0.00    +0.000 C 
BRANCH  20  21
ATOM     21  N   UNL     1      -0.386  13.429  19.649  0.00  0.00    +0.000 N 
ATOM     22  C   UNL     1      -1.684  13.713  20.398  0.00  0.00    +0.000 C 
ATOM     23  C   UNL     1       0.738  13.304  20.682  0.00  0.00    +0.000 C 
BRANCH  21  24
ATOM     24  C   UNL     1      -0.026  14.698  18.778  0.00  0.00    +0.000 C 
BRANCH  24  25
ATOM     25  C   UNL     1       0.109  15.958  19.635  0.00  0.00    +0.000 C 
BRANCH  25  26
ATOM     26  C   UNL     1       1.472  16.634  19.543  0.00  0.00    +0.000 C 
BRANCH  26  27
ATOM     27  C   UNL     1       1.732  16.959  18.068  0.00  0.00    +0.000 C 
BRANCH  27  28
ATOM     28  C   UNL     1       3.093  16.481  17.586  0.00  0.00    +0.000 C 
BRANCH  28  29
ATOM     29  C   UNL     1       3.523  15.254  18.374  0.00  0.00    +0.000 C 
ATOM     30 BR   UNL     1       5.361  14.804  17.940  0.00  0.00    +0.000 Br
ENDBRANCH  28  29
ENDBRANCH  27  28
ENDBRANCH  26  27
ENDBRANCH  25  26
ENDBRANCH  24  25
ENDBRANCH  21  24
ENDBRANCH  20  21
ENDBRANCH  18  20
ENDBRANCH   1  18
TORSDOF 10
ENDMDL
MODEL 9
REMARK VINA RESULT:      -6.0      4.627      8.822
REMARK  Name = 
REMARK  14 active torsions:
REMARK  status: ('A' for Active; 'I' for Inactive)
REMARK    1  A    between atoms: C_1  and  C_2
REMARK    2  A    between atoms: C_2  and  C_3
REMARK    3  A    between atoms: C_2  and  C_4
REMARK    4  A    between atoms: C_2  and  C_20
REMARK    5  A    between atoms: C_4  and  N_5
REMARK    6  A    between atoms: C_20  and  N_21
REMARK    7  A    between atoms: N_21  and  C_22
REMARK    8  A    between atoms: N_21  and  C_23
REMARK    9  A    between atoms: N_21  and  C_24
REMARK   10  A    between atoms: C_24  and  C_25
REMARK   11  A    between atoms: C_25  and  C_26
REMARK   12  A    between atoms: C_26  and  C_27
REMARK   13  A    between atoms: C_27  and  C_28
REMARK   14  A    between atoms: C_28  and  C_29
REMARK                            x       y       z     vdW  Elec       q    Type
REMARK                         _______ _______ _______ _____ _____    ______ ____
ROOT
ATOM      1  C   UNL     1       1.106  10.540  19.690  0.00  0.00    +0.000 C 
ENDROOT
BRANCH   1   2
ATOM      2  N   UNL     1       1.509   9.153  19.367  0.00  0.00    +0.000 N 
ATOM      3  C   UNL     1       2.276   8.930  18.215  0.00  0.00    +0.000 C 
ATOM      4  O   UNL     1       2.413   9.765  17.324  0.00  0.00    +0.000 OA
ATOM      5  C   UNL     1       2.932   7.589  18.078  0.00  0.00    +0.000 A 
ATOM      6  C   UNL     1       3.849   7.333  17.059  0.00  0.00    +0.000 A 
ATOM      7  C   UNL     1       4.405   6.058  16.934  0.00  0.00    +0.000 A 
ATOM      8  C   UNL     1       4.006   5.023  17.786  0.00  0.00    +0.000 A 
ATOM      9  C   UNL     1       3.069   5.261  18.803  0.00  0.00    +0.000 A 
ATOM     10  C   UNL     1       2.630   4.248  19.679  0.00  0.00    +0.000 A 
ATOM     11  C   UNL     1       1.733   4.532  20.711  0.00  0.00    +0.000 A 
ATOM     12  C   UNL     1       1.324   5.840  20.923  0.00  0.00    +0.000 A 
ATOM     13  C   UNL     1       1.781   6.840  20.069  0.00  0.00    +0.000 A 
ATOM     14  C   UNL     1       2.579   6.572  18.968  0.00  0.00    +0.000 A 
ATOM     15  C   UNL     1       1.576   8.249  20.411  0.00  0.00    +0.000 C 
ATOM     16  O   UNL     1       1.550   8.547  21.599  0.00  0.00    +0.000 OA
ENDBRANCH   1   2
BRANCH   1  18
ATOM     17  C   UNL     1      -0.964  10.010  18.244  0.00  0.00    +0.000 C 
ATOM     18  C   UNL     1      -0.331  10.996  19.272  0.00  0.00    +0.000 C 
ATOM     19  C   UNL     1      -1.273  10.874  20.491  0.00  0.00    +0.000 C 
BRANCH  18  20
ATOM     20  C   UNL     1      -0.408  12.385  18.584  0.00  0.00    +0.000 C 
BRANCH  20  21
ATOM     21  N   UNL     1       0.476  13.590  18.984  0.00  0.00    +0.000 N 
ATOM     22  C   UNL     1      -0.158  14.953  18.728  0.00  0.00    +0.000 C 
ATOM     23  C   UNL     1       0.895  13.533  20.456  0.00  0.00    +0.000 C 
BRANCH  21  24
ATOM     24  C   UNL     1       1.819  13.503  18.154  0.00  0.00    +0.000 C 
BRANCH  24  25
ATOM     25  C   UNL     1       2.921  14.374  18.759  0.00  0.00    +0.000 C 
BRANCH  25  26
ATOM     26  C   UNL     1       3.685  15.213  17.741  0.00  0.00    +0.000 C 
BRANCH  26  27
ATOM     27  C   UNL     1       5.179  14.929  17.932  0.00  0.00    +0.000 C 
BRANCH  27  28
ATOM     28  C   UNL     1       5.638  15.103  19.372  0.00  0.00    +0.000 C 
BRANCH  28  29
ATOM     29  C   UNL     1       7.135  15.364  19.413  0.00  0.00    +0.000 C 
ATOM     30 BR   UNL     1       7.516  17.124  18.689  0.00  0.00    +0.000 Br
ENDBRANCH  28  29
ENDBRANCH  27  28
ENDBRANCH  26  27
ENDBRANCH  25  26
ENDBRANCH  24  25
ENDBRANCH  21  24
ENDBRANCH  20  21
ENDBRANCH  18  20
ENDBRANCH   1  18
TORSDOF 10
ENDMDL
