MODEL 1
REMARK VINA RESULT:      -7.4      0.000      0.000
REMARK  Name = 
REMARK  9 active torsions:
REMARK  status: ('A' for Active; 'I' for Inactive)
REMARK    1  A    between atoms: C_1  and  C_2
REMARK    2  A    between atoms: N_4  and  C_5
REMARK    3  A    between atoms: C_10  and  C_11
REMARK    4  A    between atoms: C_11  and  C_12
REMARK    5  A    between atoms: C_11  and  C_13
REMARK    6  A    between atoms: C_13  and  C_14
REMARK    7  A    between atoms: C_14  and  N_15
REMARK    8  A    between atoms: N_15  and  C_16
REMARK    9  A    between atoms: N_15  and  C_17
REMARK                            x       y       z     vdW  Elec       q    Type
REMARK                         _______ _______ _______ _____ _____    ______ ____
ROOT
ATOM      1  C   UNL     1       6.575   5.559  16.119  0.00  0.00    +0.000 A 
ATOM      2  C   UNL     1       6.902   4.711  17.172  0.00  0.00    +0.000 A 
ATOM      3  C   UNL     1       6.076   4.609  18.290  0.00  0.00    +0.000 A 
ATOM      4  C   UNL     1       4.903   5.341  18.386  0.00  0.00    +0.000 A 
ATOM      5  N   UNL     1       4.117   5.148  19.462  0.00  0.00    +0.000 NA
ATOM      6  C   UNL     1       2.955   5.831  19.547  0.00  0.00    +0.000 A 
ATOM      7  C   UNL     1       2.563   6.752  18.576  0.00  0.00    +0.000 A 
ATOM      8  C   UNL     1       3.387   6.953  17.469  0.00  0.00    +0.000 A 
ATOM      9  C   UNL     1       4.583   6.233  17.351  0.00  0.00    +0.000 A 
ATOM     10  C   UNL     1       5.434   6.363  16.228  0.00  0.00    +0.000 A 
ENDROOT
BRANCH   1  14
ATOM     11  C   UNL     1       7.995   5.124  12.660  0.00  0.00    +0.000 C 
ATOM     12  C   UNL     1       7.034   4.883  13.785  0.00  0.00    +0.000 C 
ATOM     13  O   UNL     1       6.083   4.123  13.633  0.00  0.00    +0.000 OA
ATOM     14  N   UNL     1       7.334   5.609  14.931  0.00  0.00    +0.000 N 
ATOM     15  H   UNL     1       8.001   6.367  14.837  0.00  0.00    +0.000 HD
ENDBRANCH   1  14
BRANCH   6  16
ATOM     16  C   UNL     1       2.074   5.568  20.760  0.00  0.00    +0.000 C 
ATOM     17  C   UNL     1       1.216   6.806  21.075  0.00  0.00    +0.000 C 
BRANCH  16  18
ATOM     18  C   UNL     1       1.177   4.325  20.553  0.00  0.00    +0.000 C 
BRANCH  18  19
ATOM     19  C   UNL     1       1.914   2.991  20.766  0.00  0.00    +0.000 C 
BRANCH  19  20
ATOM     20  N   UNL     1       1.798   2.051  19.634  0.00  0.00    +0.000 NA
ATOM     21  C   UNL     1       0.820   2.489  18.637  0.00  0.00    +0.000 C 
ATOM     22  C   UNL     1       3.108   1.874  19.003  0.00  0.00    +0.000 C 
ENDBRANCH  19  20
ENDBRANCH  18  19
ENDBRANCH  16  18
ENDBRANCH   6  16
TORSDOF 5
ENDMDL
MODEL 2
REMARK VINA RESULT:      -6.6      1.770      2.449
REMARK  Name = 
REMARK  9 active torsions:
REMARK  status: ('A' for Active; 'I' for Inactive)
REMARK    1  A    between atoms: C_1  and  C_2
REMARK    2  A    between atoms: N_4  and  C_5
REMARK    3  A    between atoms: C_10  and  C_11
REMARK    4  A    between atoms: C_11  and  C_12
REMARK    5  A    between atoms: C_11  and  C_13
REMARK    6  A    between atoms: C_13  and  C_14
REMARK    7  A    between atoms: C_14  and  N_15
REMARK    8  A    between atoms: N_15  and  C_16
REMARK    9  A    between atoms: N_15  and  C_17
REMARK                            x       y       z     vdW  Elec       q    Type
REMARK                         _______ _______ _______ _____ _____    ______ ____
ROOT
ATOM      1  C   UNL     1       6.013   4.125  14.459  0.00  0.00    +0.000 A 
ATOM      2  C   UNL     1       5.828   5.502  14.533  0.00  0.00    +0.000 A 
ATOM      3  C   UNL     1       5.201   6.081  15.635  0.00  0.00    +0.000 A 
ATOM      4  C   UNL     1       4.748   5.306  16.692  0.00  0.00    +0.000 A 
ATOM      5  N   UNL     1       4.209   5.933  17.755  0.00  0.00    +0.000 NA
ATOM      6  C   UNL     1       3.797   5.189  18.805  0.00  0.00    +0.000 A 
ATOM      7  C   UNL     1       3.879   3.797  18.806  0.00  0.00    +0.000 A 
ATOM      8  C   UNL     1       4.430   3.156  17.697  0.00  0.00    +0.000 A 
ATOM      9  C   UNL     1       4.888   3.912  16.610  0.00  0.00    +0.000 A 
ATOM     10  C   UNL     1       5.497   3.318  15.480  0.00  0.00    +0.000 A 
ENDROOT
BRANCH   1  14
ATOM     11  C   UNL     1       7.156   2.510  11.257  0.00  0.00    +0.000 C 
ATOM     12  C   UNL     1       6.169   3.118  12.206  0.00  0.00    +0.000 C 
ATOM     13  O   UNL     1       4.993   3.241  11.878  0.00  0.00    +0.000 OA
ATOM     14  N   UNL     1       6.734   3.519  13.409  0.00  0.00    +0.000 N 
ATOM     15  H   UNL     1       7.746   3.573  13.450  0.00  0.00    +0.000 HD
ENDBRANCH   1  14
BRANCH   6  16
ATOM     16  C   UNL     1       3.221   5.927  20.005  0.00  0.00    +0.000 C 
ATOM     17  C   UNL     1       2.327   7.090  19.538  0.00  0.00    +0.000 C 
BRANCH  16  18
ATOM     18  C   UNL     1       2.433   4.975  20.934  0.00  0.00    +0.000 C 
BRANCH  18  19
ATOM     19  C   UNL     1       1.013   4.657  20.431  0.00  0.00    +0.000 C 
BRANCH  19  20
ATOM     20  N   UNL     1       0.658   3.226  20.492  0.00  0.00    +0.000 NA
ATOM     21  C   UNL     1       0.721   2.575  19.183  0.00  0.00    +0.000 C 
ATOM     22  C   UNL     1       1.544   2.537  21.434  0.00  0.00    +0.000 C 
ENDBRANCH  19  20
ENDBRANCH  18  19
ENDBRANCH  16  18
ENDBRANCH   6  16
TORSDOF 5
ENDMDL
MODEL 3
REMARK VINA RESULT:      -6.6      3.991      6.483
REMARK  Name = 
REMARK  9 active torsions:
REMARK  status: ('A' for Active; 'I' for Inactive)
REMARK    1  A    between atoms: C_1  and  C_2
REMARK    2  A    between atoms: N_4  and  C_5
REMARK    3  A    between atoms: C_10  and  C_11
REMARK    4  A    between atoms: C_11  and  C_12
REMARK    5  A    between atoms: C_11  and  C_13
REMARK    6  A    between atoms: C_13  and  C_14
REMARK    7  A    between atoms: C_14  and  N_15
REMARK    8  A    between atoms: N_15  and  C_16
REMARK    9  A    between atoms: N_15  and  C_17
REMARK                            x       y       z     vdW  Elec       q    Type
REMARK                         _______ _______ _______ _____ _____    ______ ____
ROOT
ATOM      1  C   UNL     1       2.906   5.032  19.306  0.00  0.00    +0.000 A 
ATOM      2  C   UNL     1       2.240   5.315  20.494  0.00  0.00    +0.000 A 
ATOM      3  C   UNL     1       1.701   6.579  20.726  0.00  0.00    +0.000 A 
ATOM      4  C   UNL     1       1.805   7.589  19.782  0.00  0.00    +0.000 A 
ATOM      5  N   UNL     1       1.207   8.767  20.041  0.00  0.00    +0.000 NA
ATOM      6  C   UNL     1       1.274   9.746  19.112  0.00  0.00    +0.000 A 
ATOM      7  C   UNL     1       1.971   9.586  17.915  0.00  0.00    +0.000 A 
ATOM      8  C   UNL     1       2.595   8.366  17.659  0.00  0.00    +0.000 A 
ATOM      9  C   UNL     1       2.514   7.330  18.599  0.00  0.00    +0.000 A 
ATOM     10  C   UNL     1       3.089   6.058  18.372  0.00  0.00    +0.000 A 
ENDROOT
BRANCH   1  14
ATOM     11  C   UNL     1       3.340   1.474  18.154  0.00  0.00    +0.000 C 
ATOM     12  C   UNL     1       2.604   2.761  18.377  0.00  0.00    +0.000 C 
ATOM     13  O   UNL     1       1.441   2.879  18.001  0.00  0.00    +0.000 OA
ATOM     14  N   UNL     1       3.372   3.736  18.997  0.00  0.00    +0.000 N 
ATOM     15  H   UNL     1       4.374   3.582  19.034  0.00  0.00    +0.000 HD
ENDBRANCH   1  14
BRANCH   6  16
ATOM     16  C   UNL     1       0.561  11.056  19.420  0.00  0.00    +0.000 C 
ATOM     17  C   UNL     1      -0.894  11.002  18.923  0.00  0.00    +0.000 C 
BRANCH  16  18
ATOM     18  C   UNL     1       0.608  11.388  20.929  0.00  0.00    +0.000 C 
BRANCH  18  19
ATOM     19  C   UNL     1      -0.747  11.834  21.505  0.00  0.00    +0.000 C 
BRANCH  19  20
ATOM     20  N   UNL     1      -0.944  11.481  22.925  0.00  0.00    +0.000 NA
ATOM     21  C   UNL     1      -2.272  11.850  23.417  0.00  0.00    +0.000 C 
ATOM     22  C   UNL     1      -0.725  10.044  23.111  0.00  0.00    +0.000 C 
ENDBRANCH  19  20
ENDBRANCH  18  19
ENDBRANCH  16  18
ENDBRANCH   6  16
TORSDOF 5
ENDMDL
MODEL 4
REMARK VINA RESULT:      -6.6      3.941      7.166
REMARK  Name = 
REMARK  9 active torsions:
REMARK  status: ('A' for Active; 'I' for Inactive)
REMARK    1  A    between atoms: C_1  and  C_2
REMARK    2  A    between atoms: N_4  and  C_5
REMARK    3  A    between atoms: C_10  and  C_11
REMARK    4  A    between atoms: C_11  and  C_12
REMARK    5  A    between atoms: C_11  and  C_13
REMARK    6  A    between atoms: C_13  and  C_14
REMARK    7  A    between atoms: C_14  and  N_15
REMARK    8  A    between atoms: N_15  and  C_16
REMARK    9  A    between atoms: N_15  and  C_17
REMARK                            x       y       z     vdW  Elec       q    Type
REMARK                         _______ _______ _______ _____ _____    ______ ____
ROOT
ATOM      1  C   UNL     1       0.414   9.680  20.374  0.00  0.00    +0.000 A 
ATOM      2  C   UNL     1       0.835  10.145  19.133  0.00  0.00    +0.000 A 
ATOM      3  C   UNL     1       1.682   9.380  18.332  0.00  0.00    +0.000 A 
ATOM      4  C   UNL     1       2.126   8.133  18.743  0.00  0.00    +0.000 A 
ATOM      5  N   UNL     1       2.889   7.417  17.896  0.00  0.00    +0.000 NA
ATOM      6  C   UNL     1       3.297   6.186  18.273  0.00  0.00    +0.000 A 
ATOM      7  C   UNL     1       2.983   5.651  19.522  0.00  0.00    +0.000 A 
ATOM      8  C   UNL     1       2.199   6.403  20.397  0.00  0.00    +0.000 A 
ATOM      9  C   UNL     1       1.745   7.670  20.012  0.00  0.00    +0.000 A 
ATOM     10  C   UNL     1       0.910   8.456  20.841  0.00  0.00    +0.000 A 
ENDROOT
BRANCH   1  14
ATOM     11  C   UNL     1      -1.570  11.294  23.136  0.00  0.00    +0.000 C 
ATOM     12  C   UNL     1      -0.455  10.485  22.544  0.00  0.00    +0.000 C 
ATOM     13  O   UNL     1       0.414  10.010  23.268  0.00  0.00    +0.000 OA
ATOM     14  N   UNL     1      -0.523  10.381  21.161  0.00  0.00    +0.000 N 
ATOM     15  H   UNL     1      -1.152  11.014  20.679  0.00  0.00    +0.000 HD
ENDBRANCH   1  14
BRANCH   6  16
ATOM     16  C   UNL     1       4.133   5.389  17.282  0.00  0.00    +0.000 C 
ATOM     17  C   UNL     1       5.298   6.245  16.755  0.00  0.00    +0.000 C 
BRANCH  16  18
ATOM     18  C   UNL     1       4.663   4.079  17.910  0.00  0.00    +0.000 C 
BRANCH  18  19
ATOM     19  C   UNL     1       3.821   2.840  17.554  0.00  0.00    +0.000 C 
BRANCH  19  20
ATOM     20  N   UNL     1       3.540   1.954  18.700  0.00  0.00    +0.000 NA
ATOM     21  C   UNL     1       4.341   2.286  19.878  0.00  0.00    +0.000 C 
ATOM     22  C   UNL     1       2.114   2.013  19.033  0.00  0.00    +0.000 C 
ENDBRANCH  19  20
ENDBRANCH  18  19
ENDBRANCH  16  18
ENDBRANCH   6  16
TORSDOF 5
ENDMDL
MODEL 5
REMARK VINA RESULT:      -6.6      3.831      6.970
REMARK  Name = 
REMARK  9 active torsions:
REMARK  status: ('A' for Active; 'I' for Inactive)
REMARK    1  A    between atoms: C_1  and  C_2
REMARK    2  A    between atoms: N_4  and  C_5
REMARK    3  A    between atoms: C_10  and  C_11
REMARK    4  A    between atoms: C_11  and  C_12
REMARK    5  A    between atoms: C_11  and  C_13
REMARK    6  A    between atoms: C_13  and  C_14
REMARK    7  A    between atoms: C_14  and  N_15
REMARK    8  A    between atoms: N_15  and  C_16
REMARK    9  A    between atoms: N_15  and  C_17
REMARK                            x       y       z     vdW  Elec       q    Type
REMARK                         _______ _______ _______ _____ _____    ______ ____
ROOT
ATOM      1  C   UNL     1       0.997   9.790  19.360  0.00  0.00    +0.000 A 
ATOM      2  C   UNL     1       1.641   9.741  18.127  0.00  0.00    +0.000 A 
ATOM      3  C   UNL     1       2.360   8.611  17.741  0.00  0.00    +0.000 A 
ATOM      4  C   UNL     1       2.450   7.501  18.567  0.00  0.00    +0.000 A 
ATOM      5  N   UNL     1       3.105   6.417  18.108  0.00  0.00    +0.000 NA
ATOM      6  C   UNL     1       3.169   5.319  18.891  0.00  0.00    +0.000 A 
ATOM      7  C   UNL     1       2.612   5.285  20.169  0.00  0.00    +0.000 A 
ATOM      8  C   UNL     1       1.944   6.415  20.640  0.00  0.00    +0.000 A 
ATOM      9  C   UNL     1       1.844   7.554  19.831  0.00  0.00    +0.000 A 
ATOM     10  C   UNL     1       1.139   8.711  20.240  0.00  0.00    +0.000 A 
ENDROOT
BRANCH   1  14
ATOM     11  C   UNL     1      -1.789  12.267  19.880  0.00  0.00    +0.000 C 
ATOM     12  C   UNL     1      -1.140  11.032  19.331  0.00  0.00    +0.000 C 
ATOM     13  O   UNL     1      -1.779  10.266  18.616  0.00  0.00    +0.000 OA
ATOM     14  N   UNL     1       0.178  10.875  19.737  0.00  0.00    +0.000 N 
ATOM     15  H   UNL     1       0.497  11.451  20.508  0.00  0.00    +0.000 HD
ENDBRANCH   1  14
BRANCH   6  16
ATOM     16  C   UNL     1       3.889   4.100  18.333  0.00  0.00    +0.000 C 
ATOM     17  C   UNL     1       4.013   4.206  16.803  0.00  0.00    +0.000 C 
BRANCH  16  18
ATOM     18  C   UNL     1       5.282   3.916  18.980  0.00  0.00    +0.000 C 
BRANCH  18  19
ATOM     19  C   UNL     1       6.022   5.239  19.238  0.00  0.00    +0.000 C 
BRANCH  19  20
ATOM     20  N   UNL     1       7.427   5.242  18.787  0.00  0.00    +0.000 NA
ATOM     21  C   UNL     1       7.623   4.482  17.551  0.00  0.00    +0.000 C 
ATOM     22  C   UNL     1       7.885   6.622  18.601  0.00  0.00    +0.000 C 
ENDBRANCH  19  20
ENDBRANCH  18  19
ENDBRANCH  16  18
ENDBRANCH   6  16
TORSDOF 5
ENDMDL
MODEL 6
REMARK VINA RESULT:      -6.6      3.589      6.884
REMARK  Name = 
REMARK  9 active torsions:
REMARK  status: ('A' for Active; 'I' for Inactive)
REMARK    1  A    between atoms: C_1  and  C_2
REMARK    2  A    between atoms: N_4  and  C_5
REMARK    3  A    between atoms: C_10  and  C_11
REMARK    4  A    between atoms: C_11  and  C_12
REMARK    5  A    between atoms: C_11  and  C_13
REMARK    6  A    between atoms: C_13  and  C_14
REMARK    7  A    between atoms: C_14  and  N_15
REMARK    8  A    between atoms: N_15  and  C_16
REMARK    9  A    between atoms: N_15  and  C_17
REMARK                            x       y       z     vdW  Elec       q    Type
REMARK                         _______ _______ _______ _____ _____    ______ ____
ROOT
ATOM      1  C   UNL     1       1.264   9.428  19.490  0.00  0.00    +0.000 A 
ATOM      2  C   UNL     1       1.845   9.389  18.227  0.00  0.00    +0.000 A 
ATOM      3  C   UNL     1       2.452   8.227  17.755  0.00  0.00    +0.000 A 
ATOM      4  C   UNL     1       2.491   7.074  18.524  0.00  0.00    +0.000 A 
ATOM      5  N   UNL     1       3.034   5.966  17.984  0.00  0.00    +0.000 NA
ATOM      6  C   UNL     1       3.046   4.829  18.712  0.00  0.00    +0.000 A 
ATOM      7  C   UNL     1       2.547   4.776  20.014  0.00  0.00    +0.000 A 
ATOM      8  C   UNL     1       1.994   5.930  20.568  0.00  0.00    +0.000 A 
ATOM      9  C   UNL     1       1.949   7.112  19.818  0.00  0.00    +0.000 A 
ATOM     10  C   UNL     1       1.359   8.299  20.313  0.00  0.00    +0.000 A 
ENDROOT
BRANCH   1  14
ATOM     11  C   UNL     1      -1.281  12.097  20.243  0.00  0.00    +0.000 C 
ATOM     12  C   UNL     1      -0.756  10.848  19.602  0.00  0.00    +0.000 C 
ATOM     13  O   UNL     1      -1.478  10.185  18.863  0.00  0.00    +0.000 OA
ATOM     14  N   UNL     1       0.553  10.554  19.957  0.00  0.00    +0.000 N 
ATOM     15  H   UNL     1       0.941  11.051  20.750  0.00  0.00    +0.000 HD
ENDBRANCH   1  14
BRANCH   6  16
ATOM     16  C   UNL     1       3.639   3.586  18.065  0.00  0.00    +0.000 C 
ATOM     17  C   UNL     1       2.570   2.486  17.941  0.00  0.00    +0.000 C 
BRANCH  16  18
ATOM     18  C   UNL     1       4.254   3.904  16.682  0.00  0.00    +0.000 C 
BRANCH  18  19
ATOM     19  C   UNL     1       5.784   4.066  16.709  0.00  0.00    +0.000 C 
BRANCH  19  20
ATOM     20  N   UNL     1       6.273   5.285  16.035  0.00  0.00    +0.000 NA
ATOM     21  C   UNL     1       7.107   6.114  16.906  0.00  0.00    +0.000 C 
ATOM     22  C   UNL     1       7.022   4.916  14.831  0.00  0.00    +0.000 C 
ENDBRANCH  19  20
ENDBRANCH  18  19
ENDBRANCH  16  18
ENDBRANCH   6  16
TORSDOF 5
ENDMDL
MODEL 7
REMARK VINA RESULT:      -6.6      3.720      6.416
REMARK  Name = 
REMARK  9 active torsions:
REMARK  status: ('A' for Active; 'I' for Inactive)
REMARK    1  A    between atoms: C_1  and  C_2
REMARK    2  A    between atoms: N_4  and  C_5
REMARK    3  A    between atoms: C_10  and  C_11
REMARK    4  A    between atoms: C_11  and  C_12
REMARK    5  A    between atoms: C_11  and  C_13
REMARK    6  A    between atoms: C_13  and  C_14
REMARK    7  A    between atoms: C_14  and  N_15
REMARK    8  A    between atoms: N_15  and  C_16
REMARK    9  A    between atoms: N_15  and  C_17
REMARK                            x       y       z     vdW  Elec       q    Type
REMARK                         _______ _______ _______ _____ _____    ______ ____
ROOT
ATOM      1  C   UNL     1       0.711   9.708  19.763  0.00  0.00    +0.000 A 
ATOM      2  C   UNL     1       0.678   8.809  20.824  0.00  0.00    +0.000 A 
ATOM      3  C   UNL     1       1.409   7.623  20.779  0.00  0.00    +0.000 A 
ATOM      4  C   UNL     1       2.194   7.305  19.682  0.00  0.00    +0.000 A 
ATOM      5  N   UNL     1       2.925   6.175  19.728  0.00  0.00    +0.000 NA
ATOM      6  C   UNL     1       3.720   5.875  18.679  0.00  0.00    +0.000 A 
ATOM      7  C   UNL     1       3.779   6.676  17.539  0.00  0.00    +0.000 A 
ATOM      8  C   UNL     1       3.011   7.839  17.495  0.00  0.00    +0.000 A 
ATOM      9  C   UNL     1       2.201   8.181  18.586  0.00  0.00    +0.000 A 
ATOM     10  C   UNL     1       1.437   9.371  18.615  0.00  0.00    +0.000 A 
ENDROOT
BRANCH   1  14
ATOM     11  C   UNL     1      -1.620  12.646  19.438  0.00  0.00    +0.000 C 
ATOM     12  C   UNL     1      -1.152  11.239  19.217  0.00  0.00    +0.000 C 
ATOM     13  O   UNL     1      -1.842  10.453  18.575  0.00  0.00    +0.000 OA
ATOM     14  N   UNL     1       0.067  10.962  19.820  0.00  0.00    +0.000 N 
ATOM     15  H   UNL     1       0.404  11.626  20.509  0.00  0.00    +0.000 HD
ENDBRANCH   1  14
BRANCH   6  16
ATOM     16  C   UNL     1       4.559   4.608  18.773  0.00  0.00    +0.000 C 
ATOM     17  C   UNL     1       6.027   4.959  19.069  0.00  0.00    +0.000 C 
BRANCH  16  18
ATOM     18  C   UNL     1       4.005   3.638  19.843  0.00  0.00    +0.000 C 
BRANCH  18  19
ATOM     19  C   UNL     1       3.323   2.392  19.252  0.00  0.00    +0.000 C 
BRANCH  19  20
ATOM     20  N   UNL     1       1.918   2.219  19.671  0.00  0.00    +0.000 NA
ATOM     21  C   UNL     1       1.659   2.756  21.007  0.00  0.00    +0.000 C 
ATOM     22  C   UNL     1       1.030   2.859  18.696  0.00  0.00    +0.000 C 
ENDBRANCH  19  20
ENDBRANCH  18  19
ENDBRANCH  16  18
ENDBRANCH   6  16
TORSDOF 5
ENDMDL
MODEL 8
REMARK VINA RESULT:      -6.5      4.296      7.967
REMARK  Name = 
REMARK  9 active torsions:
REMARK  status: ('A' for Active; 'I' for Inactive)
REMARK    1  A    between atoms: C_1  and  C_2
REMARK    2  A    between atoms: N_4  and  C_5
REMARK    3  A    between atoms: C_10  and  C_11
REMARK    4  A    between atoms: C_11  and  C_12
REMARK    5  A    between atoms: C_11  and  C_13
REMARK    6  A    between atoms: C_13  and  C_14
REMARK    7  A    between atoms: C_14  and  N_15
REMARK    8  A    between atoms: N_15  and  C_16
REMARK    9  A    between atoms: N_15  and  C_17
REMARK                            x       y       z     vdW  Elec       q    Type
REMARK                         _______ _______ _______ _____ _____    ______ ____
ROOT
ATOM      1  C   UNL     1       0.125   9.813  20.822  0.00  0.00    +0.000 A 
ATOM      2  C   UNL     1       0.391   8.677  21.580  0.00  0.00    +0.000 A 
ATOM      3  C   UNL     1       1.213   7.665  21.086  0.00  0.00    +0.000 A 
ATOM      4  C   UNL     1       1.794   7.760  19.832  0.00  0.00    +0.000 A 
ATOM      5  N   UNL     1       2.629   6.779  19.440  0.00  0.00    +0.000 NA
ATOM      6  C   UNL     1       3.228   6.880  18.234  0.00  0.00    +0.000 A 
ATOM      7  C   UNL     1       2.981   7.947  17.370  0.00  0.00    +0.000 A 
ATOM      8  C   UNL     1       2.108   8.954  17.779  0.00  0.00    +0.000 A 
ATOM      9  C   UNL     1       1.499   8.880  19.039  0.00  0.00    +0.000 A 
ATOM     10  C   UNL     1       0.641   9.895  19.523  0.00  0.00    +0.000 A 
ENDROOT
BRANCH   1  14
ATOM     11  C   UNL     1      -1.606  12.384  22.958  0.00  0.00    +0.000 C 
ATOM     12  C   UNL     1      -0.780  11.163  22.685  0.00  0.00    +0.000 C 
ATOM     13  O   UNL     1      -0.306  10.518  23.615  0.00  0.00    +0.000 OA
ATOM     14  N   UNL     1      -0.616  10.899  21.332  0.00  0.00    +0.000 N 
ATOM     15  H   UNL     1      -0.860  11.640  20.683  0.00  0.00    +0.000 HD
ENDBRANCH   1  14
BRANCH   6  16
ATOM     16  C   UNL     1       4.190   5.771  17.832  0.00  0.00    +0.000 C 
ATOM     17  C   UNL     1       3.426   4.453  17.615  0.00  0.00    +0.000 C 
BRANCH  16  18
ATOM     18  C   UNL     1       4.995   6.147  16.566  0.00  0.00    +0.000 C 
BRANCH  18  19
ATOM     19  C   UNL     1       6.520   6.085  16.764  0.00  0.00    +0.000 C 
BRANCH  19  20
ATOM     20  N   UNL     1       6.997   6.755  17.989  0.00  0.00    +0.000 NA
ATOM     21  C   UNL     1       7.799   5.872  18.837  0.00  0.00    +0.000 C 
ATOM     22  C   UNL     1       7.775   7.944  17.631  0.00  0.00    +0.000 C 
ENDBRANCH  19  20
ENDBRANCH  18  19
ENDBRANCH  16  18
ENDBRANCH   6  16
TORSDOF 5
ENDMDL
MODEL 9
REMARK VINA RESULT:      -6.5      3.861      7.050
REMARK  Name = 
REMARK  9 active torsions:
REMARK  status: ('A' for Active; 'I' for Inactive)
REMARK    1  A    between atoms: C_1  and  C_2
REMARK    2  A    between atoms: N_4  and  C_5
REMARK    3  A    between atoms: C_10  and  C_11
REMARK    4  A    between atoms: C_11  and  C_12
REMARK    5  A    between atoms: C_11  and  C_13
REMARK    6  A    between atoms: C_13  and  C_14
REMARK    7  A    between atoms: C_14  and  N_15
REMARK    8  A    between atoms: N_15  and  C_16
REMARK    9  A    between atoms: N_15  and  C_17
REMARK                            x       y       z     vdW  Elec       q    Type
REMARK                         _______ _______ _______ _____ _____    ______ ____
ROOT
ATOM      1  C   UNL     1       0.935   9.752  19.421  0.00  0.00    +0.000 A 
ATOM      2  C   UNL     1       1.604   9.725  18.201  0.00  0.00    +0.000 A 
ATOM      3  C   UNL     1       2.318   8.596  17.803  0.00  0.00    +0.000 A 
ATOM      4  C   UNL     1       2.379   7.465  18.602  0.00  0.00    +0.000 A 
ATOM      5  N   UNL     1       3.030   6.386  18.131  0.00  0.00    +0.000 NA
ATOM      6  C   UNL     1       3.065   5.268  18.887  0.00  0.00    +0.000 A 
ATOM      7  C   UNL     1       2.481   5.210  20.152  0.00  0.00    +0.000 A 
ATOM      8  C   UNL     1       1.816   6.335  20.637  0.00  0.00    +0.000 A 
ATOM      9  C   UNL     1       1.746   7.495  19.855  0.00  0.00    +0.000 A 
ATOM     10  C   UNL     1       1.046   8.649  20.277  0.00  0.00    +0.000 A 
ENDROOT
BRANCH   1  14
ATOM     11  C   UNL     1      -0.539  12.868  20.934  0.00  0.00    +0.000 C 
ATOM     12  C   UNL     1       0.511  11.824  20.702  0.00  0.00    +0.000 C 
ATOM     13  O   UNL     1       1.599  11.908  21.264  0.00  0.00    +0.000 OA
ATOM     14  N   UNL     1       0.120  10.837  19.807  0.00  0.00    +0.000 N 
ATOM     15  H   UNL     1      -0.704  11.021  19.246  0.00  0.00    +0.000 HD
ENDBRANCH   1  14
BRANCH   6  16
ATOM     16  C   UNL     1       3.783   4.054  18.315  0.00  0.00    +0.000 C 
ATOM     17  C   UNL     1       2.815   3.213  17.465  0.00  0.00    +0.000 C 
BRANCH  16  18
ATOM     18  C   UNL     1       5.020   4.465  17.482  0.00  0.00    +0.000 C 
BRANCH  18  19
ATOM     19  C   UNL     1       4.923   4.072  15.998  0.00  0.00    +0.000 C 
BRANCH  19  20
ATOM     20  N   UNL     1       6.228   3.831  15.352  0.00  0.00    +0.000 NA
ATOM     21  C   UNL     1       6.143   3.842  13.891  0.00  0.00    +0.000 C 
ATOM     22  C   UNL     1       7.195   4.836  15.802  0.00  0.00    +0.000 C 
ENDBRANCH  19  20
ENDBRANCH  18  19
ENDBRANCH  16  18
ENDBRANCH   6  16
TORSDOF 5
ENDMDL
