MODEL 1
REMARK VINA RESULT:      -7.3      0.000      0.000
REMARK  Name = 
REMARK  10 active torsions:
REMARK  status: ('A' for Active; 'I' for Inactive)
REMARK    1  A    between atoms: C_2  and  C_3
REMARK    2  A    between atoms: C_2  and  C_15
REMARK    3  A    between atoms: C_3  and  C_4
REMARK    4  A    between atoms: C_4  and  C_5
REMARK    5  A    between atoms: C_5  and  C_6
REMARK    6  A    between atoms: C_6  and  C_7
REMARK    7  A    between atoms: C_7  and  C_8
REMARK    8  A    between atoms: C_8  and  C_9
REMARK    9  A    between atoms: C_18  and  C_19
REMARK   10  A    between atoms: C_22  and  C_23
REMARK                            x       y       z     vdW  Elec       q    Type
REMARK                         _______ _______ _______ _____ _____    ______ ____
ROOT
ATOM      1  O   UNL     1       6.080   4.135  17.126  0.00  0.00    +0.000 OA
ATOM      2  C   UNL     1       5.635   4.888  17.994  0.00  0.00    +0.000 C 
ENDROOT
BRANCH   2   3
ATOM      3  C   UNL     1       4.253   5.333  18.058  0.00  0.00    +0.000 A 
ATOM      4  N   UNL     1       3.197   4.618  17.713  0.00  0.00    +0.000 NA
ATOM      5  C   UNL     1       2.143   5.466  17.935  0.00  0.00    +0.000 A 
ATOM      6  C   UNL     1       2.593   6.681  18.401  0.00  0.00    +0.000 A 
ATOM      7  O   UNL     1       3.962   6.605  18.484  0.00  0.00    +0.000 OA
BRANCH   6   8
ATOM      8  C   UNL     1       1.940   7.908  18.815  0.00  0.00    +0.000 A 
ATOM      9  C   UNL     1       1.677   8.960  17.946  0.00  0.00    +0.000 A 
ATOM     10  C   UNL     1       1.120  10.132  18.460  0.00  0.00    +0.000 A 
ATOM     11  C   UNL     1       0.826  10.222  19.823  0.00  0.00    +0.000 A 
ATOM     12  C   UNL     1       1.103   9.107  20.607  0.00  0.00    +0.000 A 
ATOM     13  N   UNL     1       1.642   7.960  20.137  0.00  0.00    +0.000 NA
BRANCH  11  14
ATOM     14  C   UNL     1       0.254  11.461  20.433  0.00  0.00    +0.000 C 
ATOM     15 BR   UNL     1       1.567  12.892  20.369  0.00  0.00    +0.000 Br
ENDBRANCH  11  14
ENDBRANCH   6   8
ENDBRANCH   2   3
BRANCH   2  16
ATOM     16  C   UNL     1       6.533   5.366  19.127  0.00  0.00    +0.000 C 
BRANCH  16  17
ATOM     17  C   UNL     1       7.920   5.700  18.583  0.00  0.00    +0.000 C 
BRANCH  17  18
ATOM     18  C   UNL     1       8.300   7.162  18.817  0.00  0.00    +0.000 C 
BRANCH  18  19
ATOM     19  C   UNL     1       7.737   8.053  17.706  0.00  0.00    +0.000 C 
BRANCH  19  20
ATOM     20  C   UNL     1       8.215   9.500  17.842  0.00  0.00    +0.000 C 
BRANCH  20  21
ATOM     21  C   UNL     1       9.108   9.677  19.074  0.00  0.00    +0.000 C 
BRANCH  21  22
ATOM     22  C   UNL     1       9.901  10.960  19.006  0.00  0.00    +0.000 A 
ATOM     23  C   UNL     1      10.453  11.390  17.792  0.00  0.00    +0.000 A 
ATOM     24  C   UNL     1      11.215  12.558  17.734  0.00  0.00    +0.000 A 
ATOM     25  C   UNL     1      11.435  13.305  18.890  0.00  0.00    +0.000 A 
ATOM     26  C   UNL     1      10.888  12.889  20.102  0.00  0.00    +0.000 A 
ATOM     27  C   UNL     1      10.124  11.721  20.161  0.00  0.00    +0.000 A 
ENDBRANCH  21  22
ENDBRANCH  20  21
ENDBRANCH  19  20
ENDBRANCH  18  19
ENDBRANCH  17  18
ENDBRANCH  16  17
ENDBRANCH   2  16
TORSDOF 10
ENDMDL
MODEL 2
REMARK VINA RESULT:      -7.2      3.491      5.385
REMARK  Name = 
REMARK  10 active torsions:
REMARK  status: ('A' for Active; 'I' for Inactive)
REMARK    1  A    between atoms: C_2  and  C_3
REMARK    2  A    between atoms: C_2  and  C_15
REMARK    3  A    between atoms: C_3  and  C_4
REMARK    4  A    between atoms: C_4  and  C_5
REMARK    5  A    between atoms: C_5  and  C_6
REMARK    6  A    between atoms: C_6  and  C_7
REMARK    7  A    between atoms: C_7  and  C_8
REMARK    8  A    between atoms: C_8  and  C_9
REMARK    9  A    between atoms: C_18  and  C_19
REMARK   10  A    between atoms: C_22  and  C_23
REMARK                            x       y       z     vdW  Elec       q    Type
REMARK                         _______ _______ _______ _____ _____    ______ ____
ROOT
ATOM      1  O   UNL     1       3.985   5.813  19.848  0.00  0.00    +0.000 OA
ATOM      2  C   UNL     1       2.802   6.140  19.740  0.00  0.00    +0.000 C 
ENDROOT
BRANCH   2   3
ATOM      3  C   UNL     1       2.349   7.383  19.138  0.00  0.00    +0.000 A 
ATOM      4  N   UNL     1       2.689   7.827  17.941  0.00  0.00    +0.000 NA
ATOM      5  C   UNL     1       2.029   9.024  17.838  0.00  0.00    +0.000 A 
ATOM      6  C   UNL     1       1.312   9.277  18.986  0.00  0.00    +0.000 A 
ATOM      7  O   UNL     1       1.513   8.218  19.836  0.00  0.00    +0.000 OA
BRANCH   6   8
ATOM      8  C   UNL     1       0.433  10.351  19.410  0.00  0.00    +0.000 A 
ATOM      9  C   UNL     1      -0.792  10.613  18.809  0.00  0.00    +0.000 A 
ATOM     10  C   UNL     1      -1.525  11.722  19.237  0.00  0.00    +0.000 A 
ATOM     11  C   UNL     1      -1.028  12.531  20.261  0.00  0.00    +0.000 A 
ATOM     12  C   UNL     1       0.195  12.171  20.817  0.00  0.00    +0.000 A 
ATOM     13  N   UNL     1       0.927  11.105  20.423  0.00  0.00    +0.000 NA
BRANCH  11  14
ATOM     14  C   UNL     1      -1.757  13.744  20.741  0.00  0.00    +0.000 C 
ATOM     15 BR   UNL     1      -3.642  13.333  20.969  0.00  0.00    +0.000 Br
ENDBRANCH  11  14
ENDBRANCH   6   8
ENDBRANCH   2   3
BRANCH   2  16
ATOM     16  C   UNL     1       1.701   5.194  20.200  0.00  0.00    +0.000 C 
BRANCH  16  17
ATOM     17  C   UNL     1       1.782   3.885  19.416  0.00  0.00    +0.000 C 
BRANCH  17  18
ATOM     18  C   UNL     1       1.795   4.113  17.905  0.00  0.00    +0.000 C 
BRANCH  18  19
ATOM     19  C   UNL     1       2.671   3.068  17.206  0.00  0.00    +0.000 C 
BRANCH  19  20
ATOM     20  C   UNL     1       4.161   3.365  17.385  0.00  0.00    +0.000 C 
BRANCH  20  21
ATOM     21  C   UNL     1       4.610   4.521  16.486  0.00  0.00    +0.000 C 
BRANCH  21  22
ATOM     22  C   UNL     1       5.724   5.318  17.119  0.00  0.00    +0.000 A 
ATOM     23  C   UNL     1       5.892   6.674  16.808  0.00  0.00    +0.000 A 
ATOM     24  C   UNL     1       6.943   7.404  17.367  0.00  0.00    +0.000 A 
ATOM     25  C   UNL     1       7.837   6.784  18.238  0.00  0.00    +0.000 A 
ATOM     26  C   UNL     1       7.678   5.438  18.558  0.00  0.00    +0.000 A 
ATOM     27  C   UNL     1       6.626   4.706  18.001  0.00  0.00    +0.000 A 
ENDBRANCH  21  22
ENDBRANCH  20  21
ENDBRANCH  19  20
ENDBRANCH  18  19
ENDBRANCH  17  18
ENDBRANCH  16  17
ENDBRANCH   2  16
TORSDOF 10
ENDMDL
MODEL 3
REMARK VINA RESULT:      -7.2      5.140      7.696
REMARK  Name = 
REMARK  10 active torsions:
REMARK  status: ('A' for Active; 'I' for Inactive)
REMARK    1  A    between atoms: C_2  and  C_3
REMARK    2  A    between atoms: C_2  and  C_15
REMARK    3  A    between atoms: C_3  and  C_4
REMARK    4  A    between atoms: C_4  and  C_5
REMARK    5  A    between atoms: C_5  and  C_6
REMARK    6  A    between atoms: C_6  and  C_7
REMARK    7  A    between atoms: C_7  and  C_8
REMARK    8  A    between atoms: C_8  and  C_9
REMARK    9  A    between atoms: C_18  and  C_19
REMARK   10  A    between atoms: C_22  and  C_23
REMARK                            x       y       z     vdW  Elec       q    Type
REMARK                         _______ _______ _______ _____ _____    ______ ____
ROOT
ATOM      1  O   UNL     1       2.215   9.204  17.325  0.00  0.00    +0.000 OA
ATOM      2  C   UNL     1       2.058   8.462  18.296  0.00  0.00    +0.000 C 
ENDROOT
BRANCH   2   3
ATOM      3  C   UNL     1       1.465   8.880  19.555  0.00  0.00    +0.000 A 
ATOM      4  N   UNL     1       1.608   8.265  20.716  0.00  0.00    +0.000 NA
ATOM      5  C   UNL     1       0.859   9.021  21.580  0.00  0.00    +0.000 A 
ATOM      6  C   UNL     1       0.271  10.073  20.913  0.00  0.00    +0.000 A 
ATOM      7  O   UNL     1       0.658   9.991  19.598  0.00  0.00    +0.000 OA
BRANCH   6   8
ATOM      8  C   UNL     1      -0.581  11.174  21.317  0.00  0.00    +0.000 A 
ATOM      9  C   UNL     1      -1.480  11.796  20.459  0.00  0.00    +0.000 A 
ATOM     10  C   UNL     1      -2.194  12.902  20.921  0.00  0.00    +0.000 A 
ATOM     11  C   UNL     1      -2.008  13.352  22.230  0.00  0.00    +0.000 A 
ATOM     12  C   UNL     1      -1.104  12.649  23.020  0.00  0.00    +0.000 A 
ATOM     13  N   UNL     1      -0.399  11.575  22.600  0.00  0.00    +0.000 NA
BRANCH  11  14
ATOM     14  C   UNL     1      -2.725  14.547  22.770  0.00  0.00    +0.000 C 
ATOM     15 BR   UNL     1      -4.600  14.471  22.270  0.00  0.00    +0.000 Br
ENDBRANCH  11  14
ENDBRANCH   6   8
ENDBRANCH   2   3
BRANCH   2  16
ATOM     16  C   UNL     1       2.439   6.991  18.205  0.00  0.00    +0.000 C 
BRANCH  16  17
ATOM     17  C   UNL     1       3.839   6.854  17.609  0.00  0.00    +0.000 C 
BRANCH  17  18
ATOM     18  C   UNL     1       4.624   5.699  18.229  0.00  0.00    +0.000 C 
BRANCH  18  19
ATOM     19  C   UNL     1       4.964   4.644  17.171  0.00  0.00    +0.000 C 
BRANCH  19  20
ATOM     20  C   UNL     1       3.774   3.729  16.878  0.00  0.00    +0.000 C 
BRANCH  20  21
ATOM     21  C   UNL     1       3.764   2.513  17.810  0.00  0.00    +0.000 C 
BRANCH  21  22
ATOM     22  C   UNL     1       2.900   2.750  19.024  0.00  0.00    +0.000 A 
ATOM     23  C   UNL     1       3.426   2.586  20.312  0.00  0.00    +0.000 A 
ATOM     24  C   UNL     1       2.619   2.771  21.437  0.00  0.00    +0.000 A 
ATOM     25  C   UNL     1       1.279   3.118  21.283  0.00  0.00    +0.000 A 
ATOM     26  C   UNL     1       0.745   3.287  20.007  0.00  0.00    +0.000 A 
ATOM     27  C   UNL     1       1.551   3.104  18.881  0.00  0.00    +0.000 A 
ENDBRANCH  21  22
ENDBRANCH  20  21
ENDBRANCH  19  20
ENDBRANCH  18  19
ENDBRANCH  17  18
ENDBRANCH  16  17
ENDBRANCH   2  16
TORSDOF 10
ENDMDL
MODEL 4
REMARK VINA RESULT:      -7.1      3.100      8.402
REMARK  Name = 
REMARK  10 active torsions:
REMARK  status: ('A' for Active; 'I' for Inactive)
REMARK    1  A    between atoms: C_2  and  C_3
REMARK    2  A    between atoms: C_2  and  C_15
REMARK    3  A    between atoms: C_3  and  C_4
REMARK    4  A    between atoms: C_4  and  C_5
REMARK    5  A    between atoms: C_5  and  C_6
REMARK    6  A    between atoms: C_6  and  C_7
REMARK    7  A    between atoms: C_7  and  C_8
REMARK    8  A    between atoms: C_8  and  C_9
REMARK    9  A    between atoms: C_18  and  C_19
REMARK   10  A    between atoms: C_22  and  C_23
REMARK                            x       y       z     vdW  Elec       q    Type
REMARK                         _______ _______ _______ _____ _____    ______ ____
ROOT
ATOM      1  O   UNL     1       5.505   6.713  15.303  0.00  0.00    +0.000 OA
ATOM      2  C   UNL     1       5.521   6.732  16.535  0.00  0.00    +0.000 C 
ENDROOT
BRANCH   2   3
ATOM      3  C   UNL     1       6.647   7.192  17.330  0.00  0.00    +0.000 A 
ATOM      4  N   UNL     1       7.392   6.437  18.119  0.00  0.00    +0.000 NA
ATOM      5  C   UNL     1       8.298   7.319  18.651  0.00  0.00    +0.000 A 
ATOM      6  C   UNL     1       8.069   8.590  18.175  0.00  0.00    +0.000 A 
ATOM      7  O   UNL     1       7.000   8.519  17.317  0.00  0.00    +0.000 OA
BRANCH   6   8
ATOM      8  C   UNL     1       8.715   9.873  18.373  0.00  0.00    +0.000 A 
ATOM      9  C   UNL     1       9.684  10.095  19.344  0.00  0.00    +0.000 A 
ATOM     10  C   UNL     1      10.185  11.388  19.509  0.00  0.00    +0.000 A 
ATOM     11  C   UNL     1       9.719  12.423  18.695  0.00  0.00    +0.000 A 
ATOM     12  C   UNL     1       8.766  12.096  17.736  0.00  0.00    +0.000 A 
ATOM     13  N   UNL     1       8.264  10.854  17.553  0.00  0.00    +0.000 NA
BRANCH  11  14
ATOM     14  C   UNL     1      10.199  13.830  18.845  0.00  0.00    +0.000 C 
ATOM     15 BR   UNL     1       8.817  14.912  19.678  0.00  0.00    +0.000 Br
ENDBRANCH  11  14
ENDBRANCH   6   8
ENDBRANCH   2   3
BRANCH   2  16
ATOM     16  C   UNL     1       4.288   6.311  17.323  0.00  0.00    +0.000 C 
BRANCH  16  17
ATOM     17  C   UNL     1       3.394   7.523  17.574  0.00  0.00    +0.000 C 
BRANCH  17  18
ATOM     18  C   UNL     1       2.314   7.242  18.618  0.00  0.00    +0.000 C 
BRANCH  18  19
ATOM     19  C   UNL     1       2.681   6.019  19.464  0.00  0.00    +0.000 C 
BRANCH  19  20
ATOM     20  C   UNL     1       1.666   5.776  20.582  0.00  0.00    +0.000 C 
BRANCH  20  21
ATOM     21  C   UNL     1       1.353   4.284  20.735  0.00  0.00    +0.000 C 
BRANCH  21  22
ATOM     22  C   UNL     1       2.153   3.446  19.768  0.00  0.00    +0.000 A 
ATOM     23  C   UNL     1       1.652   3.162  18.491  0.00  0.00    +0.000 A 
ATOM     24  C   UNL     1       2.376   2.359  17.608  0.00  0.00    +0.000 A 
ATOM     25  C   UNL     1       3.605   1.830  17.995  0.00  0.00    +0.000 A 
ATOM     26  C   UNL     1       4.116   2.108  19.261  0.00  0.00    +0.000 A 
ATOM     27  C   UNL     1       3.393   2.913  20.145  0.00  0.00    +0.000 A 
ENDBRANCH  21  22
ENDBRANCH  20  21
ENDBRANCH  19  20
ENDBRANCH  18  19
ENDBRANCH  17  18
ENDBRANCH  16  17
ENDBRANCH   2  16
TORSDOF 10
ENDMDL
MODEL 5
REMARK VINA RESULT:      -7.1      4.739      6.729
REMARK  Name = 
REMARK  10 active torsions:
REMARK  status: ('A' for Active; 'I' for Inactive)
REMARK    1  A    between atoms: C_2  and  C_3
REMARK    2  A    between atoms: C_2  and  C_15
REMARK    3  A    between atoms: C_3  and  C_4
REMARK    4  A    between atoms: C_4  and  C_5
REMARK    5  A    between atoms: C_5  and  C_6
REMARK    6  A    between atoms: C_6  and  C_7
REMARK    7  A    between atoms: C_7  and  C_8
REMARK    8  A    between atoms: C_8  and  C_9
REMARK    9  A    between atoms: C_18  and  C_19
REMARK   10  A    between atoms: C_22  and  C_23
REMARK                            x       y       z     vdW  Elec       q    Type
REMARK                         _______ _______ _______ _____ _____    ______ ____
ROOT
ATOM      1  O   UNL     1       2.864   6.728  18.402  0.00  0.00    +0.000 OA
ATOM      2  C   UNL     1       2.240   7.208  19.350  0.00  0.00    +0.000 C 
ENDROOT
BRANCH   2   3
ATOM      3  C   UNL     1       1.627   8.526  19.341  0.00  0.00    +0.000 A 
ATOM      4  N   UNL     1       1.781   9.440  18.399  0.00  0.00    +0.000 NA
ATOM      5  C   UNL     1       1.028  10.496  18.846  0.00  0.00    +0.000 A 
ATOM      6  C   UNL     1       0.445  10.193  20.056  0.00  0.00    +0.000 A 
ATOM      7  O   UNL     1       0.827   8.917  20.386  0.00  0.00    +0.000 OA
BRANCH   6   8
ATOM      8  C   UNL     1      -0.448  10.904  20.951  0.00  0.00    +0.000 A 
ATOM      9  C   UNL     1      -0.496  10.671  22.320  0.00  0.00    +0.000 A 
ATOM     10  C   UNL     1      -1.449  11.347  23.083  0.00  0.00    +0.000 A 
ATOM     11  C   UNL     1      -2.320  12.249  22.467  0.00  0.00    +0.000 A 
ATOM     12  C   UNL     1      -2.177  12.433  21.095  0.00  0.00    +0.000 A 
ATOM     13  N   UNL     1      -1.264  11.792  20.332  0.00  0.00    +0.000 NA
BRANCH  11  14
ATOM     14  C   UNL     1      -3.377  12.981  23.229  0.00  0.00    +0.000 C 
ATOM     15 BR   UNL     1      -2.583  14.470  24.191  0.00  0.00    +0.000 Br
ENDBRANCH  11  14
ENDBRANCH   6   8
ENDBRANCH   2   3
BRANCH   2  16
ATOM     16  C   UNL     1       2.019   6.389  20.614  0.00  0.00    +0.000 C 
BRANCH  16  17
ATOM     17  C   UNL     1       2.369   4.925  20.352  0.00  0.00    +0.000 C 
BRANCH  17  18
ATOM     18  C   UNL     1       1.137   4.083  20.022  0.00  0.00    +0.000 C 
BRANCH  18  19
ATOM     19  C   UNL     1       1.323   3.348  18.691  0.00  0.00    +0.000 C 
BRANCH  19  20
ATOM     20  C   UNL     1       2.796   3.036  18.416  0.00  0.00    +0.000 C 
BRANCH  20  21
ATOM     21  C   UNL     1       3.214   3.514  17.021  0.00  0.00    +0.000 C 
BRANCH  21  22
ATOM     22  C   UNL     1       4.661   3.939  16.989  0.00  0.00    +0.000 A 
ATOM     23  C   UNL     1       5.331   4.267  18.176  0.00  0.00    +0.000 A 
ATOM     24  C   UNL     1       6.660   4.693  18.145  0.00  0.00    +0.000 A 
ATOM     25  C   UNL     1       7.330   4.799  16.928  0.00  0.00    +0.000 A 
ATOM     26  C   UNL     1       6.676   4.472  15.742  0.00  0.00    +0.000 A 
ATOM     27  C   UNL     1       5.346   4.044  15.772  0.00  0.00    +0.000 A 
ENDBRANCH  21  22
ENDBRANCH  20  21
ENDBRANCH  19  20
ENDBRANCH  18  19
ENDBRANCH  17  18
ENDBRANCH  16  17
ENDBRANCH   2  16
TORSDOF 10
ENDMDL
MODEL 6
REMARK VINA RESULT:      -7.0      3.491      5.378
REMARK  Name = 
REMARK  10 active torsions:
REMARK  status: ('A' for Active; 'I' for Inactive)
REMARK    1  A    between atoms: C_2  and  C_3
REMARK    2  A    between atoms: C_2  and  C_15
REMARK    3  A    between atoms: C_3  and  C_4
REMARK    4  A    between atoms: C_4  and  C_5
REMARK    5  A    between atoms: C_5  and  C_6
REMARK    6  A    between atoms: C_6  and  C_7
REMARK    7  A    between atoms: C_7  and  C_8
REMARK    8  A    between atoms: C_8  and  C_9
REMARK    9  A    between atoms: C_18  and  C_19
REMARK   10  A    between atoms: C_22  and  C_23
REMARK                            x       y       z     vdW  Elec       q    Type
REMARK                         _______ _______ _______ _____ _____    ______ ____
ROOT
ATOM      1  O   UNL     1       2.547   3.964  21.637  0.00  0.00    +0.000 OA
ATOM      2  C   UNL     1       1.864   4.497  20.761  0.00  0.00    +0.000 C 
ENDROOT
BRANCH   2   3
ATOM      3  C   UNL     1       1.849   5.926  20.493  0.00  0.00    +0.000 A 
ATOM      4  N   UNL     1       2.628   6.555  19.631  0.00  0.00    +0.000 NA
ATOM      5  C   UNL     1       2.251   7.868  19.750  0.00  0.00    +0.000 A 
ATOM      6  C   UNL     1       1.257   7.999  20.694  0.00  0.00    +0.000 A 
ATOM      7  O   UNL     1       0.989   6.744  21.182  0.00  0.00    +0.000 OA
BRANCH   6   8
ATOM      8  C   UNL     1       0.485   9.119  21.198  0.00  0.00    +0.000 A 
ATOM      9  C   UNL     1       0.217  10.257  20.448  0.00  0.00    +0.000 A 
ATOM     10  C   UNL     1      -0.462  11.315  21.054  0.00  0.00    +0.000 A 
ATOM     11  C   UNL     1      -0.872  11.208  22.385  0.00  0.00    +0.000 A 
ATOM     12  C   UNL     1      -0.579  10.018  23.044  0.00  0.00    +0.000 A 
ATOM     13  N   UNL     1       0.078   8.978  22.484  0.00  0.00    +0.000 NA
BRANCH  11  14
ATOM     14  C   UNL     1      -1.579  12.318  23.092  0.00  0.00    +0.000 C 
ATOM     15 BR   UNL     1      -0.868  14.029  22.507  0.00  0.00    +0.000 Br
ENDBRANCH  11  14
ENDBRANCH   6   8
ENDBRANCH   2   3
BRANCH   2  16
ATOM     16  C   UNL     1       1.005   3.646  19.836  0.00  0.00    +0.000 C 
BRANCH  16  17
ATOM     17  C   UNL     1       1.299   4.003  18.381  0.00  0.00    +0.000 C 
BRANCH  17  18
ATOM     18  C   UNL     1       2.171   2.955  17.690  0.00  0.00    +0.000 C 
BRANCH  18  19
ATOM     19  C   UNL     1       3.618   3.040  18.186  0.00  0.00    +0.000 C 
BRANCH  19  20
ATOM     20  C   UNL     1       4.586   3.393  17.055  0.00  0.00    +0.000 C 
BRANCH  20  21
ATOM     21  C   UNL     1       4.576   4.896  16.762  0.00  0.00    +0.000 C 
BRANCH  21  22
ATOM     22  C   UNL     1       5.774   5.589  17.363  0.00  0.00    +0.000 A 
ATOM     23  C   UNL     1       6.094   6.902  16.994  0.00  0.00    +0.000 A 
ATOM     24  C   UNL     1       7.222   7.532  17.524  0.00  0.00    +0.000 A 
ATOM     25  C   UNL     1       8.041   6.854  18.425  0.00  0.00    +0.000 A 
ATOM     26  C   UNL     1       7.731   5.549  18.802  0.00  0.00    +0.000 A 
ATOM     27  C   UNL     1       6.602   4.918  18.274  0.00  0.00    +0.000 A 
ENDBRANCH  21  22
ENDBRANCH  20  21
ENDBRANCH  19  20
ENDBRANCH  18  19
ENDBRANCH  17  18
ENDBRANCH  16  17
ENDBRANCH   2  16
TORSDOF 10
ENDMDL
MODEL 7
REMARK VINA RESULT:      -7.0      4.465      7.132
REMARK  Name = 
REMARK  10 active torsions:
REMARK  status: ('A' for Active; 'I' for Inactive)
REMARK    1  A    between atoms: C_2  and  C_3
REMARK    2  A    between atoms: C_2  and  C_15
REMARK    3  A    between atoms: C_3  and  C_4
REMARK    4  A    between atoms: C_4  and  C_5
REMARK    5  A    between atoms: C_5  and  C_6
REMARK    6  A    between atoms: C_6  and  C_7
REMARK    7  A    between atoms: C_7  and  C_8
REMARK    8  A    between atoms: C_8  and  C_9
REMARK    9  A    between atoms: C_18  and  C_19
REMARK   10  A    between atoms: C_22  and  C_23
REMARK                            x       y       z     vdW  Elec       q    Type
REMARK                         _______ _______ _______ _____ _____    ______ ____
ROOT
ATOM      1  O   UNL     1       2.015   9.208  17.278  0.00  0.00    +0.000 OA
ATOM      2  C   UNL     1       1.510   9.233  18.402  0.00  0.00    +0.000 C 
ENDROOT
BRANCH   2   3
ATOM      3  C   UNL     1       0.457  10.150  18.804  0.00  0.00    +0.000 A 
ATOM      4  N   UNL     1       0.541  11.037  19.780  0.00  0.00    +0.000 NA
ATOM      5  C   UNL     1      -0.692  11.638  19.779  0.00  0.00    +0.000 A 
ATOM      6  C   UNL     1      -1.494  11.089  18.804  0.00  0.00    +0.000 A 
ATOM      7  O   UNL     1      -0.758  10.122  18.166  0.00  0.00    +0.000 OA
BRANCH   6   8
ATOM      8  C   UNL     1      -2.846  11.346  18.347  0.00  0.00    +0.000 A 
ATOM      9  C   UNL     1      -3.302  10.993  17.082  0.00  0.00    +0.000 A 
ATOM     10  C   UNL     1      -4.595  11.359  16.709  0.00  0.00    +0.000 A 
ATOM     11  C   UNL     1      -5.408  12.054  17.608  0.00  0.00    +0.000 A 
ATOM     12  C   UNL     1      -4.871  12.340  18.858  0.00  0.00    +0.000 A 
ATOM     13  N   UNL     1      -3.622  11.998  19.248  0.00  0.00    +0.000 NA
BRANCH  11  14
ATOM     14  C   UNL     1      -6.791  12.495  17.252  0.00  0.00    +0.000 C 
ATOM     15 BR   UNL     1      -6.975  14.403  17.569  0.00  0.00    +0.000 Br
ENDBRANCH  11  14
ENDBRANCH   6   8
ENDBRANCH   2   3
BRANCH   2  16
ATOM     16  C   UNL     1       1.941   8.222  19.456  0.00  0.00    +0.000 C 
BRANCH  16  17
ATOM     17  C   UNL     1       2.778   7.121  18.808  0.00  0.00    +0.000 C 
BRANCH  17  18
ATOM     18  C   UNL     1       2.280   5.723  19.171  0.00  0.00    +0.000 C 
BRANCH  18  19
ATOM     19  C   UNL     1       2.012   4.897  17.909  0.00  0.00    +0.000 C 
BRANCH  19  20
ATOM     20  C   UNL     1       2.807   3.589  17.908  0.00  0.00    +0.000 C 
BRANCH  20  21
ATOM     21  C   UNL     1       3.919   3.615  16.855  0.00  0.00    +0.000 C 
BRANCH  21  22
ATOM     22  C   UNL     1       5.006   4.597  17.219  0.00  0.00    +0.000 A 
ATOM     23  C   UNL     1       5.728   4.448  18.411  0.00  0.00    +0.000 A 
ATOM     24  C   UNL     1       6.710   5.375  18.766  0.00  0.00    +0.000 A 
ATOM     25  C   UNL     1       6.978   6.460  17.933  0.00  0.00    +0.000 A 
ATOM     26  C   UNL     1       6.269   6.617  16.744  0.00  0.00    +0.000 A 
ATOM     27  C   UNL     1       5.287   5.690  16.388  0.00  0.00    +0.000 A 
ENDBRANCH  21  22
ENDBRANCH  20  21
ENDBRANCH  19  20
ENDBRANCH  18  19
ENDBRANCH  17  18
ENDBRANCH  16  17
ENDBRANCH   2  16
TORSDOF 10
ENDMDL
MODEL 8
REMARK VINA RESULT:      -7.0      4.967      7.465
REMARK  Name = 
REMARK  10 active torsions:
REMARK  status: ('A' for Active; 'I' for Inactive)
REMARK    1  A    between atoms: C_2  and  C_3
REMARK    2  A    between atoms: C_2  and  C_15
REMARK    3  A    between atoms: C_3  and  C_4
REMARK    4  A    between atoms: C_4  and  C_5
REMARK    5  A    between atoms: C_5  and  C_6
REMARK    6  A    between atoms: C_6  and  C_7
REMARK    7  A    between atoms: C_7  and  C_8
REMARK    8  A    between atoms: C_8  and  C_9
REMARK    9  A    between atoms: C_18  and  C_19
REMARK   10  A    between atoms: C_22  and  C_23
REMARK                            x       y       z     vdW  Elec       q    Type
REMARK                         _______ _______ _______ _____ _____    ______ ____
ROOT
ATOM      1  O   UNL     1       2.147   6.628  19.680  0.00  0.00    +0.000 OA
ATOM      2  C   UNL     1       2.376   7.566  18.915  0.00  0.00    +0.000 C 
ENDROOT
BRANCH   2   3
ATOM      3  C   UNL     1       1.669   8.835  18.944  0.00  0.00    +0.000 A 
ATOM      4  N   UNL     1       1.737   9.775  18.018  0.00  0.00    +0.000 NA
ATOM      5  C   UNL     1       0.919  10.765  18.499  0.00  0.00    +0.000 A 
ATOM      6  C   UNL     1       0.383  10.398  19.713  0.00  0.00    +0.000 A 
ATOM      7  O   UNL     1       0.864   9.147  20.011  0.00  0.00    +0.000 OA
BRANCH   6   8
ATOM      8  C   UNL     1      -0.541  11.024  20.639  0.00  0.00    +0.000 A 
ATOM      9  C   UNL     1      -1.524  11.923  20.242  0.00  0.00    +0.000 A 
ATOM     10  C   UNL     1      -2.309  12.535  21.220  0.00  0.00    +0.000 A 
ATOM     11  C   UNL     1      -2.106  12.226  22.567  0.00  0.00    +0.000 A 
ATOM     12  C   UNL     1      -1.115  11.297  22.863  0.00  0.00    +0.000 A 
ATOM     13  N   UNL     1      -0.339  10.688  21.937  0.00  0.00    +0.000 NA
BRANCH  11  14
ATOM     14  C   UNL     1      -2.898  12.870  23.659  0.00  0.00    +0.000 C 
ATOM     15 BR   UNL     1      -2.132  14.602  24.094  0.00  0.00    +0.000 Br
ENDBRANCH  11  14
ENDBRANCH   6   8
ENDBRANCH   2   3
BRANCH   2  16
ATOM     16  C   UNL     1       3.499   7.462  17.892  0.00  0.00    +0.000 C 
BRANCH  16  17
ATOM     17  C   UNL     1       3.765   5.995  17.560  0.00  0.00    +0.000 C 
BRANCH  17  18
ATOM     18  C   UNL     1       5.107   5.509  18.105  0.00  0.00    +0.000 C 
BRANCH  18  19
ATOM     19  C   UNL     1       5.448   4.122  17.552  0.00  0.00    +0.000 C 
BRANCH  19  20
ATOM     20  C   UNL     1       4.219   3.430  16.959  0.00  0.00    +0.000 C 
BRANCH  20  21
ATOM     21  C   UNL     1       3.809   2.212  17.794  0.00  0.00    +0.000 C 
BRANCH  21  22
ATOM     22  C   UNL     1       2.941   2.607  18.963  0.00  0.00    +0.000 A 
ATOM     23  C   UNL     1       1.680   3.179  18.749  0.00  0.00    +0.000 A 
ATOM     24  C   UNL     1       0.889   3.576  19.830  0.00  0.00    +0.000 A 
ATOM     25  C   UNL     1       1.352   3.406  21.133  0.00  0.00    +0.000 A 
ATOM     26  C   UNL     1       2.603   2.835  21.358  0.00  0.00    +0.000 A 
ATOM     27  C   UNL     1       3.395   2.436  20.278  0.00  0.00    +0.000 A 
ENDBRANCH  21  22
ENDBRANCH  20  21
ENDBRANCH  19  20
ENDBRANCH  18  19
ENDBRANCH  17  18
ENDBRANCH  16  17
ENDBRANCH   2  16
TORSDOF 10
ENDMDL
MODEL 9
REMARK VINA RESULT:      -7.0      1.162      1.523
REMARK  Name = 
REMARK  10 active torsions:
REMARK  status: ('A' for Active; 'I' for Inactive)
REMARK    1  A    between atoms: C_2  and  C_3
REMARK    2  A    between atoms: C_2  and  C_15
REMARK    3  A    between atoms: C_3  and  C_4
REMARK    4  A    between atoms: C_4  and  C_5
REMARK    5  A    between atoms: C_5  and  C_6
REMARK    6  A    between atoms: C_6  and  C_7
REMARK    7  A    between atoms: C_7  and  C_8
REMARK    8  A    between atoms: C_8  and  C_9
REMARK    9  A    between atoms: C_18  and  C_19
REMARK   10  A    between atoms: C_22  and  C_23
REMARK                            x       y       z     vdW  Elec       q    Type
REMARK                         _______ _______ _______ _____ _____    ______ ____
ROOT
ATOM      1  O   UNL     1       5.244   5.471  15.190  0.00  0.00    +0.000 OA
ATOM      2  C   UNL     1       5.538   5.893  16.310  0.00  0.00    +0.000 C 
ENDROOT
BRANCH   2   3
ATOM      3  C   UNL     1       4.578   6.114  17.378  0.00  0.00    +0.000 A 
ATOM      4  N   UNL     1       4.412   5.342  18.437  0.00  0.00    +0.000 NA
ATOM      5  C   UNL     1       3.397   5.952  19.129  0.00  0.00    +0.000 A 
ATOM      6  C   UNL     1       2.968   7.076  18.460  0.00  0.00    +0.000 A 
ATOM      7  O   UNL     1       3.727   7.191  17.323  0.00  0.00    +0.000 OA
BRANCH   6   8
ATOM      8  C   UNL     1       1.968   8.092  18.732  0.00  0.00    +0.000 A 
ATOM      9  C   UNL     1       1.423   8.906  17.747  0.00  0.00    +0.000 A 
ATOM     10  C   UNL     1       0.530   9.909  18.124  0.00  0.00    +0.000 A 
ATOM     11  C   UNL     1       0.190  10.068  19.469  0.00  0.00    +0.000 A 
ATOM     12  C   UNL     1       0.769   9.189  20.378  0.00  0.00    +0.000 A 
ATOM     13  N   UNL     1       1.637   8.208  20.042  0.00  0.00    +0.000 NA
BRANCH  11  14
ATOM     14  C   UNL     1      -0.740  11.142  19.934  0.00  0.00    +0.000 C 
ATOM     15 BR   UNL     1       0.054  12.099  21.427  0.00  0.00    +0.000 Br
ENDBRANCH  11  14
ENDBRANCH   6   8
ENDBRANCH   2   3
BRANCH   2  16
ATOM     16  C   UNL     1       6.993   6.162  16.668  0.00  0.00    +0.000 C 
BRANCH  16  17
ATOM     17  C   UNL     1       7.234   5.834  18.140  0.00  0.00    +0.000 C 
BRANCH  17  18
ATOM     18  C   UNL     1       8.205   6.811  18.802  0.00  0.00    +0.000 C 
BRANCH  18  19
ATOM     19  C   UNL     1       8.200   8.158  18.073  0.00  0.00    +0.000 C 
BRANCH  19  20
ATOM     20  C   UNL     1       8.912   9.245  18.882  0.00  0.00    +0.000 C 
BRANCH  20  21
ATOM     21  C   UNL     1       8.881  10.592  18.153  0.00  0.00    +0.000 C 
BRANCH  21  22
ATOM     22  C   UNL     1      10.103  11.420  18.463  0.00  0.00    +0.000 A 
ATOM     23  C   UNL     1      10.638  11.440  19.758  0.00  0.00    +0.000 A 
ATOM     24  C   UNL     1      11.748  12.233  20.054  0.00  0.00    +0.000 A 
ATOM     25  C   UNL     1      12.333  13.013  19.059  0.00  0.00    +0.000 A 
ATOM     26  C   UNL     1      11.813  12.998  17.766  0.00  0.00    +0.000 A 
ATOM     27  C   UNL     1      10.702  12.205  17.468  0.00  0.00    +0.000 A 
ENDBRANCH  21  22
ENDBRANCH  20  21
ENDBRANCH  19  20
ENDBRANCH  18  19
ENDBRANCH  17  18
ENDBRANCH  16  17
ENDBRANCH   2  16
TORSDOF 10
ENDMDL
