MODEL 1
REMARK VINA RESULT:      -7.9      0.000      0.000
REMARK  Name = 
REMARK  5 active torsions:
REMARK  status: ('A' for Active; 'I' for Inactive)
REMARK    1  A    between atoms: N_4  and  S_5
REMARK    2  A    between atoms: S_5  and  C_8
REMARK    3  A    between atoms: N_20  and  C_21
REMARK    4  A    between atoms: C_21  and  C_22
REMARK    5  A    between atoms: C_25  and  O_26
REMARK                            x       y       z     vdW  Elec       q    Type
REMARK                         _______ _______ _______ _____ _____    ______ ____
ROOT
ATOM      1  O   UNL     1       0.561  14.247  22.444  0.00  0.00    +0.000 OA
ATOM      2  C   UNL     1       0.348  13.707  21.356  0.00  0.00    +0.000 C 
ATOM      3  C   UNL     1       1.450  12.902  20.672  0.00  0.00    +0.000 C 
ATOM      4  N   UNL     1       0.997  11.875  19.699  0.00  0.00    +0.000 NA
ATOM      5  C   UNL     1       0.024  12.489  18.751  0.00  0.00    +0.000 C 
ATOM      6  C   UNL     1      -1.187  13.059  19.497  0.00  0.00    +0.000 C 
ATOM      7  N   UNL     1      -0.816  13.926  20.618  0.00  0.00    +0.000 N 
ENDROOT
BRANCH   4   8
ATOM      8  S   UNL     1       0.461  10.422  20.407  0.00  0.00    +0.000 S 
ATOM      9  O   UNL     1       0.867  10.420  21.795  0.00  0.00    +0.000 OA
ATOM     10  O   UNL     1      -0.923  10.224  20.028  0.00  0.00    +0.000 OA
BRANCH   8  11
ATOM     11  C   UNL     1       1.342   9.056  19.689  0.00  0.00    +0.000 A 
ATOM     12  C   UNL     1       1.971   8.907  18.471  0.00  0.00    +0.000 A 
ATOM     13  C   UNL     1       2.696   7.674  18.358  0.00  0.00    +0.000 A 
ATOM     14  C   UNL     1       3.512   7.178  17.313  0.00  0.00    +0.000 A 
ATOM     15  C   UNL     1       4.182   5.959  17.461  0.00  0.00    +0.000 A 
ATOM     16  C   UNL     1       4.043   5.226  18.630  0.00  0.00    +0.000 A 
ATOM     17 CL   UNL     1       4.902   3.744  18.812  0.00  0.00    +0.000 Cl
ATOM     18  C   UNL     1       3.224   5.674  19.669  0.00  0.00    +0.000 A 
ATOM     19  C   UNL     1       2.556   6.904  19.515  0.00  0.00    +0.000 A 
ATOM     20  S   UNL     1       1.510   7.665  20.655  0.00  0.00    +0.000 S 
ENDBRANCH   8  11
ENDBRANCH   4   8
BRANCH   7  21
ATOM     21  C   UNL     1      -1.838  14.821  21.152  0.00  0.00    +0.000 C 
BRANCH  21  22
ATOM     22  C   UNL     1      -3.000  14.089  21.763  0.00  0.00    +0.000 A 
ATOM     23  C   UNL     1      -3.023  13.636  23.034  0.00  0.00    +0.000 A 
ATOM     24  C   UNL     1      -4.354  13.179  23.249  0.00  0.00    +0.000 A 
ATOM     25  C   UNL     1      -5.053  12.651  24.261  0.00  0.00    +0.000 A 
ATOM     26  N   UNL     1      -6.386  12.366  24.098  0.00  0.00    +0.000 N 
ATOM     27  C   UNL     1      -7.057  12.611  22.922  0.00  0.00    +0.000 A 
ATOM     28  C   UNL     1      -6.473  13.131  21.831  0.00  0.00    +0.000 A 
ATOM     29  C   UNL     1      -5.035  13.453  21.960  0.00  0.00    +0.000 A 
ATOM     30  N   UNL     1      -4.225  13.989  21.086  0.00  0.00    +0.000 NA
ATOM     31  H   UNL     1      -6.873  11.986  24.901  0.00  0.00    +0.000 HD
BRANCH  25  32
ATOM     32  O   UNL     1      -4.528  12.375  25.496  0.00  0.00    +0.000 OA
ATOM     33  H   UNL     1      -3.596  12.128  25.370  0.00  0.00    +0.000 HD
ENDBRANCH  25  32
ENDBRANCH  21  22
ENDBRANCH   7  21
TORSDOF 5
ENDMDL
MODEL 2
REMARK VINA RESULT:      -7.7      4.354      7.240
REMARK  Name = 
REMARK  5 active torsions:
REMARK  status: ('A' for Active; 'I' for Inactive)
REMARK    1  A    between atoms: N_4  and  S_5
REMARK    2  A    between atoms: S_5  and  C_8
REMARK    3  A    between atoms: N_20  and  C_21
REMARK    4  A    between atoms: C_21  and  C_22
REMARK    5  A    between atoms: C_25  and  O_26
REMARK                            x       y       z     vdW  Elec       q    Type
REMARK                         _______ _______ _______ _____ _____    ______ ____
ROOT
ATOM      1  O   UNL     1       1.853   5.634  17.483  0.00  0.00    +0.000 OA
ATOM      2  C   UNL     1       1.837   5.114  18.601  0.00  0.00    +0.000 C 
ATOM      3  C   UNL     1       1.260   3.712  18.785  0.00  0.00    +0.000 C 
ATOM      4  N   UNL     1       1.742   2.960  19.971  0.00  0.00    +0.000 NA
ATOM      5  C   UNL     1       1.626   3.821  21.182  0.00  0.00    +0.000 C 
ATOM      6  C   UNL     1       2.443   5.109  21.022  0.00  0.00    +0.000 C 
ATOM      7  N   UNL     1       2.175   5.808  19.763  0.00  0.00    +0.000 N 
ENDROOT
BRANCH   4   8
ATOM      8  S   UNL     1       3.272   2.237  19.772  0.00  0.00    +0.000 S 
ATOM      9  O   UNL     1       3.989   2.348  21.023  0.00  0.00    +0.000 OA
ATOM     10  O   UNL     1       3.079   0.954  19.127  0.00  0.00    +0.000 OA
BRANCH   8  11
ATOM     11  C   UNL     1       4.232   3.196  18.626  0.00  0.00    +0.000 A 
ATOM     12  C   UNL     1       5.168   4.191  18.819  0.00  0.00    +0.000 A 
ATOM     13  C   UNL     1       5.817   4.596  17.605  0.00  0.00    +0.000 A 
ATOM     14  C   UNL     1       6.862   5.527  17.386  0.00  0.00    +0.000 A 
ATOM     15  C   UNL     1       7.386   5.708  16.102  0.00  0.00    +0.000 A 
ATOM     16  C   UNL     1       6.878   4.982  15.034  0.00  0.00    +0.000 A 
ATOM     17 CL   UNL     1       7.557   5.190  13.465  0.00  0.00    +0.000 Cl
ATOM     18  C   UNL     1       5.829   4.077  15.212  0.00  0.00    +0.000 A 
ATOM     19  C   UNL     1       5.310   3.896  16.508  0.00  0.00    +0.000 A 
ATOM     20  S   UNL     1       4.034   2.833  16.974  0.00  0.00    +0.000 S 
ENDBRANCH   8  11
ENDBRANCH   4   8
BRANCH   7  21
ATOM     21  C   UNL     1       2.578   7.207  19.663  0.00  0.00    +0.000 C 
BRANCH  21  22
ATOM     22  C   UNL     1       1.555   8.155  20.223  0.00  0.00    +0.000 A 
ATOM     23  C   UNL     1       1.232   8.232  21.531  0.00  0.00    +0.000 A 
ATOM     24  C   UNL     1       0.376   9.364  21.643  0.00  0.00    +0.000 A 
ATOM     25  C   UNL     1      -0.266  10.008  22.626  0.00  0.00    +0.000 A 
ATOM     26  N   UNL     1      -0.993  11.138  22.343  0.00  0.00    +0.000 N 
ATOM     27  C   UNL     1      -1.090  11.659  21.074  0.00  0.00    +0.000 A 
ATOM     28  C   UNL     1      -0.500  11.107  20.001  0.00  0.00    +0.000 A 
ATOM     29  C   UNL     1       0.294   9.886  20.257  0.00  0.00    +0.000 A 
ATOM     30  N   UNL     1       0.993   9.162  19.423  0.00  0.00    +0.000 NA
ATOM     31  H   UNL     1      -1.443  11.598  23.126  0.00  0.00    +0.000 HD
BRANCH  25  32
ATOM     32  O   UNL     1      -0.242   9.623  23.940  0.00  0.00    +0.000 OA
ATOM     33  H   UNL     1      -0.054   8.669  23.963  0.00  0.00    +0.000 HD
ENDBRANCH  25  32
ENDBRANCH  21  22
ENDBRANCH   7  21
TORSDOF 5
ENDMDL
MODEL 3
REMARK VINA RESULT:      -7.6      4.142      6.919
REMARK  Name = 
REMARK  5 active torsions:
REMARK  status: ('A' for Active; 'I' for Inactive)
REMARK    1  A    between atoms: N_4  and  S_5
REMARK    2  A    between atoms: S_5  and  C_8
REMARK    3  A    between atoms: N_20  and  C_21
REMARK    4  A    between atoms: C_21  and  C_22
REMARK    5  A    between atoms: C_25  and  O_26
REMARK                            x       y       z     vdW  Elec       q    Type
REMARK                         _______ _______ _______ _____ _____    ______ ____
ROOT
ATOM      1  O   UNL     1       2.498   6.664  17.586  0.00  0.00    +0.000 OA
ATOM      2  C   UNL     1       2.046   5.799  18.340  0.00  0.00    +0.000 C 
ATOM      3  C   UNL     1       1.345   4.572  17.763  0.00  0.00    +0.000 C 
ATOM      4  N   UNL     1       1.317   3.369  18.634  0.00  0.00    +0.000 NA
ATOM      5  C   UNL     1       0.836   3.755  19.992  0.00  0.00    +0.000 C 
ATOM      6  C   UNL     1       1.744   4.820  20.616  0.00  0.00    +0.000 C 
ATOM      7  N   UNL     1       1.993   5.957  19.725  0.00  0.00    +0.000 N 
ENDROOT
BRANCH   4   8
ATOM      8  S   UNL     1       2.761   2.466  18.635  0.00  0.00    +0.000 S 
ATOM      9  O   UNL     1       3.017   2.028  19.989  0.00  0.00    +0.000 OA
ATOM     10  O   UNL     1       2.699   1.522  17.538  0.00  0.00    +0.000 OA
BRANCH   8  11
ATOM     11  C   UNL     1       4.125   3.538  18.252  0.00  0.00    +0.000 A 
ATOM     12  C   UNL     1       4.612   4.013  17.053  0.00  0.00    +0.000 A 
ATOM     13  C   UNL     1       5.655   4.986  17.213  0.00  0.00    +0.000 A 
ATOM     14  C   UNL     1       6.361   5.747  16.251  0.00  0.00    +0.000 A 
ATOM     15  C   UNL     1       7.302   6.698  16.657  0.00  0.00    +0.000 A 
ATOM     16  C   UNL     1       7.555   6.895  18.007  0.00  0.00    +0.000 A 
ATOM     17 CL   UNL     1       8.691   8.094  18.493  0.00  0.00    +0.000 Cl
ATOM     18  C   UNL     1       6.896   6.142  18.981  0.00  0.00    +0.000 A 
ATOM     19  C   UNL     1       5.946   5.189  18.565  0.00  0.00    +0.000 A 
ATOM     20  S   UNL     1       5.002   4.158  19.574  0.00  0.00    +0.000 S 
ENDBRANCH   8  11
ENDBRANCH   4   8
BRANCH   7  21
ATOM     21  C   UNL     1       2.503   7.188  20.320  0.00  0.00    +0.000 C 
BRANCH  21  22
ATOM     22  C   UNL     1       1.443   8.238  20.497  0.00  0.00    +0.000 A 
ATOM     23  C   UNL     1       0.932   8.602  21.692  0.00  0.00    +0.000 A 
ATOM     24  C   UNL     1       0.110   9.733  21.423  0.00  0.00    +0.000 A 
ATOM     25  C   UNL     1      -0.648  10.579  22.132  0.00  0.00    +0.000 A 
ATOM     26  N   UNL     1      -1.284  11.620  21.503  0.00  0.00    +0.000 N 
ATOM     27  C   UNL     1      -1.172  11.849  20.151  0.00  0.00    +0.000 A 
ATOM     28  C   UNL     1      -0.450  11.073  19.327  0.00  0.00    +0.000 A 
ATOM     29  C   UNL     1       0.253   9.936  19.961  0.00  0.00    +0.000 A 
ATOM     30  N   UNL     1       1.042   9.045  19.421  0.00  0.00    +0.000 NA
ATOM     31  H   UNL     1      -1.829  12.243  22.089  0.00  0.00    +0.000 HD
BRANCH  25  32
ATOM     32  O   UNL     1      -0.833  10.494  23.486  0.00  0.00    +0.000 OA
ATOM     33  H   UNL     1      -0.732  11.389  23.853  0.00  0.00    +0.000 HD
ENDBRANCH  25  32
ENDBRANCH  21  22
ENDBRANCH   7  21
TORSDOF 5
ENDMDL
MODEL 4
REMARK VINA RESULT:      -7.6      2.203      3.105
REMARK  Name = 
REMARK  5 active torsions:
REMARK  status: ('A' for Active; 'I' for Inactive)
REMARK    1  A    between atoms: N_4  and  S_5
REMARK    2  A    between atoms: S_5  and  C_8
REMARK    3  A    between atoms: N_20  and  C_21
REMARK    4  A    between atoms: C_21  and  C_22
REMARK    5  A    between atoms: C_25  and  O_26
REMARK                            x       y       z     vdW  Elec       q    Type
REMARK                         _______ _______ _______ _____ _____    ______ ____
ROOT
ATOM      1  O   UNL     1      -1.877  10.898  23.223  0.00  0.00    +0.000 OA
ATOM      2  C   UNL     1      -1.041  11.450  22.505  0.00  0.00    +0.000 C 
ATOM      3  C   UNL     1       0.336  10.820  22.308  0.00  0.00    +0.000 C 
ATOM      4  N   UNL     1       1.059  11.211  21.071  0.00  0.00    +0.000 NA
ATOM      5  C   UNL     1       1.054  12.697  20.945  0.00  0.00    +0.000 C 
ATOM      6  C   UNL     1      -0.379  13.240  20.896  0.00  0.00    +0.000 C 
ATOM      7  N   UNL     1      -1.225  12.729  21.977  0.00  0.00    +0.000 N 
ENDROOT
BRANCH   4   8
ATOM      8  S   UNL     1       0.551  10.389  19.668  0.00  0.00    +0.000 S 
ATOM      9  O   UNL     1      -0.826   9.990  19.854  0.00  0.00    +0.000 OA
ATOM     10  O   UNL     1       0.959  11.171  18.519  0.00  0.00    +0.000 OA
BRANCH   8  11
ATOM     11  C   UNL     1       1.440   8.857  19.530  0.00  0.00    +0.000 A 
ATOM     12  C   UNL     1       1.593   7.801  20.403  0.00  0.00    +0.000 A 
ATOM     13  C   UNL     1       2.280   6.684  19.822  0.00  0.00    +0.000 A 
ATOM     14  C   UNL     1       2.577   5.406  20.355  0.00  0.00    +0.000 A 
ATOM     15  C   UNL     1       3.206   4.441  19.563  0.00  0.00    +0.000 A 
ATOM     16  C   UNL     1       3.550   4.734  18.251  0.00  0.00    +0.000 A 
ATOM     17 CL   UNL     1       4.292   3.524  17.276  0.00  0.00    +0.000 Cl
ATOM     18  C   UNL     1       3.296   5.993  17.703  0.00  0.00    +0.000 A 
ATOM     19  C   UNL     1       2.658   6.958  18.505  0.00  0.00    +0.000 A 
ATOM     20  S   UNL     1       2.230   8.566  18.050  0.00  0.00    +0.000 S 
ENDBRANCH   8  11
ENDBRANCH   4   8
BRANCH   7  21
ATOM     21  C   UNL     1      -2.461  13.447  22.270  0.00  0.00    +0.000 C 
BRANCH  21  22
ATOM     22  C   UNL     1      -3.591  13.072  21.353  0.00  0.00    +0.000 A 
ATOM     23  C   UNL     1      -3.481  12.997  20.010  0.00  0.00    +0.000 A 
ATOM     24  C   UNL     1      -4.711  12.438  19.560  0.00  0.00    +0.000 A 
ATOM     25  C   UNL     1      -5.248  12.079  18.388  0.00  0.00    +0.000 A 
ATOM     26  N   UNL     1      -6.497  11.510  18.352  0.00  0.00    +0.000 N 
ATOM     27  C   UNL     1      -7.238  11.278  19.488  0.00  0.00    +0.000 A 
ATOM     28  C   UNL     1      -6.818  11.596  20.723  0.00  0.00    +0.000 A 
ATOM     29  C   UNL     1      -5.476  12.213  20.811  0.00  0.00    +0.000 A 
ATOM     30  N   UNL     1      -4.806  12.593  21.866  0.00  0.00    +0.000 NA
ATOM     31  H   UNL     1      -6.849  11.238  17.442  0.00  0.00    +0.000 HD
BRANCH  25  32
ATOM     32  O   UNL     1      -4.621  12.225  17.178  0.00  0.00    +0.000 OA
ATOM     33  H   UNL     1      -4.730  13.151  16.902  0.00  0.00    +0.000 HD
ENDBRANCH  25  32
ENDBRANCH  21  22
ENDBRANCH   7  21
TORSDOF 5
ENDMDL
MODEL 5
REMARK VINA RESULT:      -7.5      2.190      2.785
REMARK  Name = 
REMARK  5 active torsions:
REMARK  status: ('A' for Active; 'I' for Inactive)
REMARK    1  A    between atoms: N_4  and  S_5
REMARK    2  A    between atoms: S_5  and  C_8
REMARK    3  A    between atoms: N_20  and  C_21
REMARK    4  A    between atoms: C_21  and  C_22
REMARK    5  A    between atoms: C_25  and  O_26
REMARK                            x       y       z     vdW  Elec       q    Type
REMARK                         _______ _______ _______ _____ _____    ______ ____
ROOT
ATOM      1  O   UNL     1      -1.720  10.871  23.207  0.00  0.00    +0.000 OA
ATOM      2  C   UNL     1      -0.910  11.415  22.453  0.00  0.00    +0.000 C 
ATOM      3  C   UNL     1       0.467  10.793  22.233  0.00  0.00    +0.000 C 
ATOM      4  N   UNL     1       1.153  11.161  20.968  0.00  0.00    +0.000 NA
ATOM      5  C   UNL     1       1.130  12.643  20.808  0.00  0.00    +0.000 C 
ATOM      6  C   UNL     1      -0.309  13.172  20.786  0.00  0.00    +0.000 C 
ATOM      7  N   UNL     1      -1.121  12.679  21.901  0.00  0.00    +0.000 N 
ENDROOT
BRANCH   4   8
ATOM      8  S   UNL     1       0.615  10.302  19.599  0.00  0.00    +0.000 S 
ATOM      9  O   UNL     1      -0.773   9.951  19.805  0.00  0.00    +0.000 OA
ATOM     10  O   UNL     1       1.040  11.028  18.420  0.00  0.00    +0.000 OA
BRANCH   8  11
ATOM     11  C   UNL     1       1.457   8.740  19.516  0.00  0.00    +0.000 A 
ATOM     12  C   UNL     1       1.596   7.721  20.434  0.00  0.00    +0.000 A 
ATOM     13  C   UNL     1       2.241   6.559  19.893  0.00  0.00    +0.000 A 
ATOM     14  C   UNL     1       2.512   5.299  20.479  0.00  0.00    +0.000 A 
ATOM     15  C   UNL     1       3.100   4.281  19.721  0.00  0.00    +0.000 A 
ATOM     16  C   UNL     1       3.429   4.505  18.392  0.00  0.00    +0.000 A 
ATOM     17 CL   UNL     1       4.120   3.231  17.461  0.00  0.00    +0.000 Cl
ATOM     18  C   UNL     1       3.201   5.745  17.791  0.00  0.00    +0.000 A 
ATOM     19  C   UNL     1       2.604   6.763  18.559  0.00  0.00    +0.000 A 
ATOM     20  S   UNL     1       2.213   8.360  18.038  0.00  0.00    +0.000 S 
ENDBRANCH   8  11
ENDBRANCH   4   8
BRANCH   7  21
ATOM     21  C   UNL     1      -2.355  13.392  22.212  0.00  0.00    +0.000 C 
BRANCH  21  22
ATOM     22  C   UNL     1      -3.542  12.873  21.450  0.00  0.00    +0.000 A 
ATOM     23  C   UNL     1      -4.785  12.769  21.966  0.00  0.00    +0.000 A 
ATOM     24  C   UNL     1      -5.622  12.415  20.870  0.00  0.00    +0.000 A 
ATOM     25  C   UNL     1      -6.926  12.187  20.672  0.00  0.00    +0.000 A 
ATOM     26  N   UNL     1      -7.388  11.901  19.412  0.00  0.00    +0.000 N 
ATOM     27  C   UNL     1      -6.560  11.845  18.314  0.00  0.00    +0.000 A 
ATOM     28  C   UNL     1      -5.234  12.048  18.377  0.00  0.00    +0.000 A 
ATOM     29  C   UNL     1      -4.690  12.359  19.717  0.00  0.00    +0.000 A 
ATOM     30  N   UNL     1      -3.462  12.629  20.070  0.00  0.00    +0.000 NA
ATOM     31  H   UNL     1      -8.386  11.756  19.314  0.00  0.00    +0.000 HD
BRANCH  25  32
ATOM     32  O   UNL     1      -7.872  12.232  21.662  0.00  0.00    +0.000 OA
ATOM     33  H   UNL     1      -7.405  12.244  22.515  0.00  0.00    +0.000 HD
ENDBRANCH  25  32
ENDBRANCH  21  22
ENDBRANCH   7  21
TORSDOF 5
ENDMDL
MODEL 6
REMARK VINA RESULT:      -7.4      4.468      7.696
REMARK  Name = 
REMARK  5 active torsions:
REMARK  status: ('A' for Active; 'I' for Inactive)
REMARK    1  A    between atoms: N_4  and  S_5
REMARK    2  A    between atoms: S_5  and  C_8
REMARK    3  A    between atoms: N_20  and  C_21
REMARK    4  A    between atoms: C_21  and  C_22
REMARK    5  A    between atoms: C_25  and  O_26
REMARK                            x       y       z     vdW  Elec       q    Type
REMARK                         _______ _______ _______ _____ _____    ______ ____
ROOT
ATOM      1  O   UNL     1       1.081   4.749  17.215  0.00  0.00    +0.000 OA
ATOM      2  C   UNL     1       1.524   4.682  18.365  0.00  0.00    +0.000 C 
ATOM      3  C   UNL     1       1.135   3.515  19.268  0.00  0.00    +0.000 C 
ATOM      4  N   UNL     1       2.076   3.208  20.376  0.00  0.00    +0.000 NA
ATOM      5  C   UNL     1       2.391   4.463  21.117  0.00  0.00    +0.000 C 
ATOM      6  C   UNL     1       3.015   5.509  20.187  0.00  0.00    +0.000 C 
ATOM      7  N   UNL     1       2.247   5.718  18.957  0.00  0.00    +0.000 N 
ENDROOT
BRANCH   4   8
ATOM      8  S   UNL     1       3.445   2.310  19.909  0.00  0.00    +0.000 S 
ATOM      9  O   UNL     1       4.333   2.217  21.047  0.00  0.00    +0.000 OA
ATOM     10  O   UNL     1       2.987   1.124  19.214  0.00  0.00    +0.000 OA
BRANCH   8  11
ATOM     11  C   UNL     1       4.369   3.230  18.702  0.00  0.00    +0.000 A 
ATOM     12  C   UNL     1       5.363   4.177  18.832  0.00  0.00    +0.000 A 
ATOM     13  C   UNL     1       5.945   4.559  17.578  0.00  0.00    +0.000 A 
ATOM     14  C   UNL     1       7.016   5.439  17.290  0.00  0.00    +0.000 A 
ATOM     15  C   UNL     1       7.458   5.603  15.973  0.00  0.00    +0.000 A 
ATOM     16  C   UNL     1       6.842   4.910  14.941  0.00  0.00    +0.000 A 
ATOM     17 CL   UNL     1       7.420   5.096  13.329  0.00  0.00    +0.000 Cl
ATOM     18  C   UNL     1       5.765   4.056  15.188  0.00  0.00    +0.000 A 
ATOM     19  C   UNL     1       5.330   3.891  16.516  0.00  0.00    +0.000 A 
ATOM     20  S   UNL     1       4.039   2.888  17.067  0.00  0.00    +0.000 S 
ENDBRANCH   8  11
ENDBRANCH   4   8
BRANCH   7  21
ATOM     21  C   UNL     1       2.508   6.932  18.190  0.00  0.00    +0.000 C 
BRANCH  21  22
ATOM     22  C   UNL     1       1.900   8.160  18.807  0.00  0.00    +0.000 A 
ATOM     23  C   UNL     1       1.454   9.219  18.100  0.00  0.00    +0.000 A 
ATOM     24  C   UNL     1       0.800  10.058  19.047  0.00  0.00    +0.000 A 
ATOM     25  C   UNL     1       0.132  11.218  19.024  0.00  0.00    +0.000 A 
ATOM     26  N   UNL     1      -0.416  11.714  20.181  0.00  0.00    +0.000 N 
ATOM     27  C   UNL     1      -0.319  11.060  21.387  0.00  0.00    +0.000 A 
ATOM     28  C   UNL     1       0.327   9.894  21.547  0.00  0.00    +0.000 A 
ATOM     29  C   UNL     1       0.936   9.321  20.327  0.00  0.00    +0.000 A 
ATOM     30  N   UNL     1       1.590   8.200  20.175  0.00  0.00    +0.000 NA
ATOM     31  H   UNL     1      -0.929  12.586  20.105  0.00  0.00    +0.000 HD
BRANCH  25  32
ATOM     32  O   UNL     1      -0.068  11.968  17.896  0.00  0.00    +0.000 OA
ATOM     33  H   UNL     1       0.433  12.795  18.002  0.00  0.00    +0.000 HD
ENDBRANCH  25  32
ENDBRANCH  21  22
ENDBRANCH   7  21
TORSDOF 5
ENDMDL
MODEL 7
REMARK VINA RESULT:      -7.3      4.498     10.043
REMARK  Name = 
REMARK  5 active torsions:
REMARK  status: ('A' for Active; 'I' for Inactive)
REMARK    1  A    between atoms: N_4  and  S_5
REMARK    2  A    between atoms: S_5  and  C_8
REMARK    3  A    between atoms: N_20  and  C_21
REMARK    4  A    between atoms: C_21  and  C_22
REMARK    5  A    between atoms: C_25  and  O_26
REMARK                            x       y       z     vdW  Elec       q    Type
REMARK                         _______ _______ _______ _____ _____    ______ ____
ROOT
ATOM      1  O   UNL     1       2.167   7.901  20.844  0.00  0.00    +0.000 OA
ATOM      2  C   UNL     1       1.401   8.540  20.119  0.00  0.00    +0.000 C 
ATOM      3  C   UNL     1       0.047   9.001  20.653  0.00  0.00    +0.000 C 
ATOM      4  N   UNL     1      -0.560  10.169  19.966  0.00  0.00    +0.000 NA
ATOM      5  C   UNL     1      -0.541   9.939  18.493  0.00  0.00    +0.000 C 
ATOM      6  C   UNL     1       0.891   9.732  17.986  0.00  0.00    +0.000 C 
ATOM      7  N   UNL     1       1.635   8.732  18.757  0.00  0.00    +0.000 N 
ENDROOT
BRANCH   4   8
ATOM      8  S   UNL     1       0.072  11.675  20.447  0.00  0.00    +0.000 S 
ATOM      9  O   UNL     1       1.233  11.433  21.275  0.00  0.00    +0.000 OA
ATOM     10  O   UNL     1       0.148  12.523  19.274  0.00  0.00    +0.000 OA
BRANCH   8  11
ATOM     11  C   UNL     1      -1.083  12.480  21.531  0.00  0.00    +0.000 A 
ATOM     12  C   UNL     1      -0.958  12.948  22.822  0.00  0.00    +0.000 A 
ATOM     13  C   UNL     1      -2.111  13.674  23.271  0.00  0.00    +0.000 A 
ATOM     14  C   UNL     1      -2.353  14.357  24.488  0.00  0.00    +0.000 A 
ATOM     15  C   UNL     1      -3.546  15.062  24.675  0.00  0.00    +0.000 A 
ATOM     16  C   UNL     1      -4.504  15.089  23.671  0.00  0.00    +0.000 A 
ATOM     17 CL   UNL     1      -5.953  15.990  23.902  0.00  0.00    +0.000 Cl
ATOM     18  C   UNL     1      -4.308  14.403  22.470  0.00  0.00    +0.000 A 
ATOM     19  C   UNL     1      -3.103  13.700  22.287  0.00  0.00    +0.000 A 
ATOM     20  S   UNL     1      -2.631  12.796  20.896  0.00  0.00    +0.000 S 
ENDBRANCH   8  11
ENDBRANCH   4   8
BRANCH   7  21
ATOM     21  C   UNL     1       2.840   8.170  18.156  0.00  0.00    +0.000 C 
BRANCH  21  22
ATOM     22  C   UNL     1       2.870   6.668  18.196  0.00  0.00    +0.000 A 
ATOM     23  C   UNL     1       3.954   5.943  18.543  0.00  0.00    +0.000 A 
ATOM     24  C   UNL     1       3.498   4.596  18.625  0.00  0.00    +0.000 A 
ATOM     25  C   UNL     1       4.025   3.405  18.935  0.00  0.00    +0.000 A 
ATOM     26  N   UNL     1       3.230   2.286  18.946  0.00  0.00    +0.000 N 
ATOM     27  C   UNL     1       1.886   2.330  18.655  0.00  0.00    +0.000 A 
ATOM     28  C   UNL     1       1.237   3.458  18.323  0.00  0.00    +0.000 A 
ATOM     29  C   UNL     1       2.055   4.690  18.297  0.00  0.00    +0.000 A 
ATOM     30  N   UNL     1       1.693   5.919  18.043  0.00  0.00    +0.000 NA
ATOM     31  H   UNL     1       3.674   1.413  19.207  0.00  0.00    +0.000 HD
BRANCH  25  32
ATOM     32  O   UNL     1       5.339   3.210  19.270  0.00  0.00    +0.000 OA
ATOM     33  H   UNL     1       5.716   4.077  19.498  0.00  0.00    +0.000 HD
ENDBRANCH  25  32
ENDBRANCH  21  22
ENDBRANCH   7  21
TORSDOF 5
ENDMDL
MODEL 8
REMARK VINA RESULT:      -7.2      4.664      9.823
REMARK  Name = 
REMARK  5 active torsions:
REMARK  status: ('A' for Active; 'I' for Inactive)
REMARK    1  A    between atoms: N_4  and  S_5
REMARK    2  A    between atoms: S_5  and  C_8
REMARK    3  A    between atoms: N_20  and  C_21
REMARK    4  A    between atoms: C_21  and  C_22
REMARK    5  A    between atoms: C_25  and  O_26
REMARK                            x       y       z     vdW  Elec       q    Type
REMARK                         _______ _______ _______ _____ _____    ______ ____
ROOT
ATOM      1  O   UNL     1       1.717   8.792  22.237  0.00  0.00    +0.000 OA
ATOM      2  C   UNL     1       1.040   9.230  21.303  0.00  0.00    +0.000 C 
ATOM      3  C   UNL     1      -0.256   9.985  21.586  0.00  0.00    +0.000 C 
ATOM      4  N   UNL     1      -0.713  10.916  20.523  0.00  0.00    +0.000 NA
ATOM      5  C   UNL     1      -0.703  10.208  19.210  0.00  0.00    +0.000 C 
ATOM      6  C   UNL     1       0.701   9.692  18.874  0.00  0.00    +0.000 C 
ATOM      7  N   UNL     1       1.312   8.932  19.968  0.00  0.00    +0.000 N 
ENDROOT
BRANCH   4   8
ATOM      8  S   UNL     1       0.087  12.420  20.512  0.00  0.00    +0.000 S 
ATOM      9  O   UNL     1       1.459  12.203  20.916  0.00  0.00    +0.000 OA
ATOM     10  O   UNL     1      -0.233  13.088  19.267  0.00  0.00    +0.000 OA
BRANCH   8  11
ATOM     11  C   UNL     1      -0.590  13.456  21.786  0.00  0.00    +0.000 A 
ATOM     12  C   UNL     1      -1.648  13.276  22.652  0.00  0.00    +0.000 A 
ATOM     13  C   UNL     1      -1.757  14.317  23.633  0.00  0.00    +0.000 A 
ATOM     14  C   UNL     1      -2.651  14.468  24.720  0.00  0.00    +0.000 A 
ATOM     15  C   UNL     1      -2.519  15.550  25.596  0.00  0.00    +0.000 A 
ATOM     16  C   UNL     1      -1.515  16.487  25.398  0.00  0.00    +0.000 A 
ATOM     17 CL   UNL     1      -1.343  17.796  26.504  0.00  0.00    +0.000 Cl
ATOM     18  C   UNL     1      -0.634  16.383  24.319  0.00  0.00    +0.000 A 
ATOM     19  C   UNL     1      -0.770  15.288  23.445  0.00  0.00    +0.000 A 
ATOM     20  S   UNL     1       0.200  14.939  22.062  0.00  0.00    +0.000 S 
ENDBRANCH   8  11
ENDBRANCH   4   8
BRANCH   7  21
ATOM     21  C   UNL     1       2.449   8.076  19.648  0.00  0.00    +0.000 C 
BRANCH  21  22
ATOM     22  C   UNL     1       2.073   6.628  19.503  0.00  0.00    +0.000 A 
ATOM     23  C   UNL     1       2.258   5.908  18.377  0.00  0.00    +0.000 A 
ATOM     24  C   UNL     1       1.941   4.565  18.730  0.00  0.00    +0.000 A 
ATOM     25  C   UNL     1       1.934   3.373  18.122  0.00  0.00    +0.000 A 
ATOM     26  N   UNL     1       1.595   2.246  18.828  0.00  0.00    +0.000 N 
ATOM     27  C   UNL     1       1.263   2.280  20.163  0.00  0.00    +0.000 A 
ATOM     28  C   UNL     1       1.225   3.410  20.887  0.00  0.00    +0.000 A 
ATOM     29  C   UNL     1       1.582   4.651  20.166  0.00  0.00    +0.000 A 
ATOM     30  N   UNL     1       1.661   5.876  20.615  0.00  0.00    +0.000 NA
ATOM     31  H   UNL     1       1.626   1.366  18.326  0.00  0.00    +0.000 HD
BRANCH  25  32
ATOM     32  O   UNL     1       2.265   3.179  16.806  0.00  0.00    +0.000 OA
ATOM     33  H   UNL     1       3.198   2.905  16.776  0.00  0.00    +0.000 HD
ENDBRANCH  25  32
ENDBRANCH  21  22
ENDBRANCH   7  21
TORSDOF 5
ENDMDL
MODEL 9
REMARK VINA RESULT:      -7.2      4.567      9.855
REMARK  Name = 
REMARK  5 active torsions:
REMARK  status: ('A' for Active; 'I' for Inactive)
REMARK    1  A    between atoms: N_4  and  S_5
REMARK    2  A    between atoms: S_5  and  C_8
REMARK    3  A    between atoms: N_20  and  C_21
REMARK    4  A    between atoms: C_21  and  C_22
REMARK    5  A    between atoms: C_25  and  O_26
REMARK                            x       y       z     vdW  Elec       q    Type
REMARK                         _______ _______ _______ _____ _____    ______ ____
ROOT
ATOM      1  O   UNL     1       1.402   8.642  22.059  0.00  0.00    +0.000 OA
ATOM      2  C   UNL     1       0.926   9.115  21.024  0.00  0.00    +0.000 C 
ATOM      3  C   UNL     1      -0.363   9.931  21.077  0.00  0.00    +0.000 C 
ATOM      4  N   UNL     1      -0.575  10.885  19.959  0.00  0.00    +0.000 NA
ATOM      5  C   UNL     1      -0.363  10.180  18.662  0.00  0.00    +0.000 C 
ATOM      6  C   UNL     1       1.052   9.597  18.578  0.00  0.00    +0.000 C 
ATOM      7  N   UNL     1       1.420   8.807  19.755  0.00  0.00    +0.000 N 
ENDROOT
BRANCH   4   8
ATOM      8  S   UNL     1       0.284  12.348  20.108  0.00  0.00    +0.000 S 
ATOM      9  O   UNL     1       1.362  12.143  21.049  0.00  0.00    +0.000 OA
ATOM     10  O   UNL     1       0.535  12.857  18.775  0.00  0.00    +0.000 OA
BRANCH   8  11
ATOM     11  C   UNL     1      -0.754  13.564  20.884  0.00  0.00    +0.000 A 
ATOM     12  C   UNL     1      -1.522  14.584  20.363  0.00  0.00    +0.000 A 
ATOM     13  C   UNL     1      -2.329  15.242  21.350  0.00  0.00    +0.000 A 
ATOM     14  C   UNL     1      -3.285  16.278  21.216  0.00  0.00    +0.000 A 
ATOM     15  C   UNL     1      -4.008  16.717  22.330  0.00  0.00    +0.000 A 
ATOM     16  C   UNL     1      -3.786  16.144  23.574  0.00  0.00    +0.000 A 
ATOM     17 CL   UNL     1      -4.709  16.671  24.929  0.00  0.00    +0.000 Cl
ATOM     18  C   UNL     1      -2.831  15.140  23.745  0.00  0.00    +0.000 A 
ATOM     19  C   UNL     1      -2.110  14.700  22.619  0.00  0.00    +0.000 A 
ATOM     20  S   UNL     1      -0.899  13.472  22.578  0.00  0.00    +0.000 S 
ENDBRANCH   8  11
ENDBRANCH   4   8
BRANCH   7  21
ATOM     21  C   UNL     1       2.554   7.897  19.637  0.00  0.00    +0.000 C 
BRANCH  21  22
ATOM     22  C   UNL     1       2.141   6.463  19.457  0.00  0.00    +0.000 A 
ATOM     23  C   UNL     1       2.313   5.764  18.316  0.00  0.00    +0.000 A 
ATOM     24  C   UNL     1       1.960   4.422  18.636  0.00  0.00    +0.000 A 
ATOM     25  C   UNL     1       1.926   3.244  18.001  0.00  0.00    +0.000 A 
ATOM     26  N   UNL     1       1.555   2.111  18.680  0.00  0.00    +0.000 N 
ATOM     27  C   UNL     1       1.218   2.123  20.014  0.00  0.00    +0.000 A 
ATOM     28  C   UNL     1       1.205   3.237  20.764  0.00  0.00    +0.000 A 
ATOM     29  C   UNL     1       1.597   4.485  20.073  0.00  0.00    +0.000 A 
ATOM     30  N   UNL     1       1.705   5.697  20.549  0.00  0.00    +0.000 NA
ATOM     31  H   UNL     1       1.565   1.242  18.158  0.00  0.00    +0.000 HD
BRANCH  25  32
ATOM     32  O   UNL     1       2.258   3.072  16.683  0.00  0.00    +0.000 OA
ATOM     33  H   UNL     1       2.772   2.250  16.616  0.00  0.00    +0.000 HD
ENDBRANCH  25  32
ENDBRANCH  21  22
ENDBRANCH   7  21
TORSDOF 5
ENDMDL
