MODEL 1
REMARK VINA RESULT:      -8.2      0.000      0.000
REMARK  Name = 
REMARK  3 active torsions:
REMARK  status: ('A' for Active; 'I' for Inactive)
REMARK    1  A    between atoms: C_1  and  C_2
REMARK    2  A    between atoms: N_7  and  C_8
REMARK    3  A    between atoms: C_19  and  C_20
REMARK                            x       y       z     vdW  Elec       q    Type
REMARK                         _______ _______ _______ _____ _____    ______ ____
ROOT
ATOM      1  C   UNL     1      -5.027  11.951  19.088  0.00  0.00    +0.000 A 
ATOM      2  C   UNL     1      -5.605  11.002  18.217  0.00  0.00    +0.000 A 
ATOM      3  N   UNL     1      -4.725  10.451  17.385  0.00  0.00    +0.000 NA
ATOM      4  N   UNL     1      -3.560  11.053  17.701  0.00  0.00    +0.000 N 
ATOM      5  C   UNL     1      -2.357  10.898  17.041  0.00  0.00    +0.000 A 
ATOM      6  C   UNL     1      -1.275  11.548  17.469  0.00  0.00    +0.000 A 
ATOM      7  C   UNL     1      -1.410  12.333  18.755  0.00  0.00    +0.000 A 
ATOM      8  N   UNL     1      -0.229  12.786  19.307  0.00  0.00    +0.000 N 
ATOM      9  C   UNL     1       0.717  13.630  18.600  0.00  0.00    +0.000 C 
ATOM     10  C   UNL     1       2.007  13.397  19.362  0.00  0.00    +0.000 C 
ATOM     11  C   UNL     1       1.528  13.333  20.809  0.00  0.00    +0.000 C 
ATOM     12  C   UNL     1       0.115  12.702  20.736  0.00  0.00    +0.000 C 
ATOM     13  N   UNL     1      -2.565  12.519  19.357  0.00  0.00    +0.000 NA
ATOM     14  C   UNL     1      -3.673  11.921  18.795  0.00  0.00    +0.000 A 
ENDROOT
BRANCH   1  21
ATOM     15  C   UNL     1      -5.086  15.020  23.158  0.00  0.00    +0.000 C 
ATOM     16  C   UNL     1      -6.603  15.206  23.051  0.00  0.00    +0.000 C 
ATOM     17  C   UNL     1      -7.144  14.597  21.734  0.00  0.00    +0.000 C 
ATOM     18  N   UNL     1      -7.156  13.138  21.801  0.00  0.00    +0.000 N 
ATOM     19  C   UNL     1      -6.522  12.238  20.975  0.00  0.00    +0.000 C 
ATOM     20  O   UNL     1      -6.737  11.034  21.091  0.00  0.00    +0.000 OA
ATOM     21  N   UNL     1      -5.643  12.753  20.044  0.00  0.00    +0.000 N 
ATOM     22  C   UNL     1      -7.915  12.621  22.944  0.00  0.00    +0.000 C 
ATOM     23  C   UNL     1      -7.373  13.211  24.258  0.00  0.00    +0.000 C 
ATOM     24  N   UNL     1      -7.300  14.684  24.250  0.00  0.00    +0.000 NA
ATOM     25  H   UNL     1      -5.262  13.681  20.146  0.00  0.00    +0.000 HD
ATOM     26  H   UNL     1      -6.820  14.997  25.093  0.00  0.00    +0.000 HD
ENDBRANCH   1  21
BRANCH  12  27
ATOM     27  C   UNL     1       0.128  11.281  21.271  0.00  0.00    +0.000 A 
ATOM     28  C   UNL     1       0.809  10.236  20.623  0.00  0.00    +0.000 A 
ATOM     29  C   UNL     1       0.794   8.948  21.155  0.00  0.00    +0.000 A 
ATOM     30  F   UNL     1       1.429   7.963  20.503  0.00  0.00    +0.000 F 
ATOM     31  C   UNL     1       0.141   8.667  22.349  0.00  0.00    +0.000 A 
ATOM     32  C   UNL     1      -0.513   9.698  23.022  0.00  0.00    +0.000 A 
ATOM     33  C   UNL     1      -0.518  10.986  22.478  0.00  0.00    +0.000 A 
ATOM     34  F   UNL     1      -1.149  11.959  23.155  0.00  0.00    +0.000 F 
ENDBRANCH  12  27
TORSDOF 2
ENDMDL
MODEL 2
REMARK VINA RESULT:      -7.9      1.083      1.287
REMARK  Name = 
REMARK  3 active torsions:
REMARK  status: ('A' for Active; 'I' for Inactive)
REMARK    1  A    between atoms: C_1  and  C_2
REMARK    2  A    between atoms: N_7  and  C_8
REMARK    3  A    between atoms: C_19  and  C_20
REMARK                            x       y       z     vdW  Elec       q    Type
REMARK                         _______ _______ _______ _____ _____    ______ ____
ROOT
ATOM      1  C   UNL     1      -5.210  12.256  19.406  0.00  0.00    +0.000 A 
ATOM      2  C   UNL     1      -5.922  11.234  18.741  0.00  0.00    +0.000 A 
ATOM      3  N   UNL     1      -5.148  10.472  17.972  0.00  0.00    +0.000 NA
ATOM      4  N   UNL     1      -3.918  11.007  18.120  0.00  0.00    +0.000 N 
ATOM      5  C   UNL     1      -2.779  10.632  17.436  0.00  0.00    +0.000 A 
ATOM      6  C   UNL     1      -1.620  11.241  17.690  0.00  0.00    +0.000 A 
ATOM      7  C   UNL     1      -1.603  12.237  18.827  0.00  0.00    +0.000 A 
ATOM      8  N   UNL     1      -0.355  12.663  19.232  0.00  0.00    +0.000 N 
ATOM      9  C   UNL     1       0.609  13.286  18.343  0.00  0.00    +0.000 C 
ATOM     10  C   UNL     1       1.924  13.063  19.067  0.00  0.00    +0.000 C 
ATOM     11  C   UNL     1       1.538  13.285  20.526  0.00  0.00    +0.000 C 
ATOM     12  C   UNL     1       0.076  12.786  20.634  0.00  0.00    +0.000 C 
ATOM     13  N   UNL     1      -2.696  12.629  19.447  0.00  0.00    +0.000 NA
ATOM     14  C   UNL     1      -3.885  12.052  19.053  0.00  0.00    +0.000 A 
ENDROOT
BRANCH   1  21
ATOM     15  C   UNL     1      -5.373  17.003  21.259  0.00  0.00    +0.000 C 
ATOM     16  C   UNL     1      -6.525  16.643  22.202  0.00  0.00    +0.000 C 
ATOM     17  C   UNL     1      -7.077  15.230  21.887  0.00  0.00    +0.000 C 
ATOM     18  N   UNL     1      -6.151  14.196  22.347  0.00  0.00    +0.000 N 
ATOM     19  C   UNL     1      -5.541  13.206  21.612  0.00  0.00    +0.000 C 
ATOM     20  O   UNL     1      -4.886  12.333  22.174  0.00  0.00    +0.000 OA
ATOM     21  N   UNL     1      -5.691  13.260  20.241  0.00  0.00    +0.000 N 
ATOM     22  C   UNL     1      -5.830  14.306  23.773  0.00  0.00    +0.000 C 
ATOM     23  C   UNL     1      -5.268  15.703  24.090  0.00  0.00    +0.000 C 
ATOM     24  N   UNL     1      -6.135  16.800  23.622  0.00  0.00    +0.000 NA
ATOM     25  H   UNL     1      -5.972  14.112  19.781  0.00  0.00    +0.000 HD
ATOM     26  H   UNL     1      -5.647  17.686  23.751  0.00  0.00    +0.000 HD
ENDBRANCH   1  21
BRANCH  12  27
ATOM     27  C   UNL     1       0.005  11.479  21.404  0.00  0.00    +0.000 A 
ATOM     28  C   UNL     1       0.738  10.341  21.028  0.00  0.00    +0.000 A 
ATOM     29  C   UNL     1       0.643   9.164  21.768  0.00  0.00    +0.000 A 
ATOM     30  F   UNL     1       1.332   8.083  21.373  0.00  0.00    +0.000 F 
ATOM     31  C   UNL     1      -0.146   9.091  22.910  0.00  0.00    +0.000 A 
ATOM     32  C   UNL     1      -0.856  10.219  23.316  0.00  0.00    +0.000 A 
ATOM     33  C   UNL     1      -0.778  11.395  22.561  0.00  0.00    +0.000 A 
ATOM     34  F   UNL     1      -1.467  12.467  22.984  0.00  0.00    +0.000 F 
ENDBRANCH  12  27
TORSDOF 2
ENDMDL
MODEL 3
REMARK VINA RESULT:      -7.4      1.427      1.862
REMARK  Name = 
REMARK  3 active torsions:
REMARK  status: ('A' for Active; 'I' for Inactive)
REMARK    1  A    between atoms: C_1  and  C_2
REMARK    2  A    between atoms: N_7  and  C_8
REMARK    3  A    between atoms: C_19  and  C_20
REMARK                            x       y       z     vdW  Elec       q    Type
REMARK                         _______ _______ _______ _____ _____    ______ ____
ROOT
ATOM      1  C   UNL     1      -5.107  12.545  19.846  0.00  0.00    +0.000 A 
ATOM      2  C   UNL     1      -5.969  11.637  19.194  0.00  0.00    +0.000 A 
ATOM      3  N   UNL     1      -5.343  10.861  18.312  0.00  0.00    +0.000 NA
ATOM      4  N   UNL     1      -4.059  11.271  18.376  0.00  0.00    +0.000 N 
ATOM      5  C   UNL     1      -3.026  10.840  17.567  0.00  0.00    +0.000 A 
ATOM      6  C   UNL     1      -1.796  11.323  17.747  0.00  0.00    +0.000 A 
ATOM      7  C   UNL     1      -1.584  12.236  18.933  0.00  0.00    +0.000 A 
ATOM      8  N   UNL     1      -0.269  12.519  19.242  0.00  0.00    +0.000 N 
ATOM      9  C   UNL     1       0.669  13.110  18.304  0.00  0.00    +0.000 C 
ATOM     10  C   UNL     1       2.014  12.721  18.888  0.00  0.00    +0.000 C 
ATOM     11  C   UNL     1       1.781  12.881  20.387  0.00  0.00    +0.000 C 
ATOM     12  C   UNL     1       0.293  12.511  20.603  0.00  0.00    +0.000 C 
ATOM     13  N   UNL     1      -2.575  12.684  19.673  0.00  0.00    +0.000 NA
ATOM     14  C   UNL     1      -3.844  12.244  19.360  0.00  0.00    +0.000 A 
ENDROOT
BRANCH   1  21
ATOM     15  C   UNL     1      -7.811  14.576  23.660  0.00  0.00    +0.000 C 
ATOM     16  C   UNL     1      -6.898  15.804  23.713  0.00  0.00    +0.000 C 
ATOM     17  C   UNL     1      -5.652  15.607  22.814  0.00  0.00    +0.000 C 
ATOM     18  N   UNL     1      -6.007  15.718  21.401  0.00  0.00    +0.000 N 
ATOM     19  C   UNL     1      -5.837  14.789  20.401  0.00  0.00    +0.000 C 
ATOM     20  O   UNL     1      -6.074  15.087  19.233  0.00  0.00    +0.000 OA
ATOM     21  N   UNL     1      -5.414  13.531  20.779  0.00  0.00    +0.000 N 
ATOM     22  C   UNL     1      -6.669  16.985  21.073  0.00  0.00    +0.000 C 
ATOM     23  C   UNL     1      -7.917  17.181  21.952  0.00  0.00    +0.000 C 
ATOM     24  N   UNL     1      -7.640  17.047  23.395  0.00  0.00    +0.000 NA
ATOM     25  H   UNL     1      -5.501  13.217  21.733  0.00  0.00    +0.000 HD
ATOM     26  H   UNL     1      -8.523  17.063  23.905  0.00  0.00    +0.000 HD
ENDBRANCH   1  21
BRANCH  12  27
ATOM     27  C   UNL     1       0.164  11.167  21.300  0.00  0.00    +0.000 A 
ATOM     28  C   UNL     1       0.779  10.002  20.812  0.00  0.00    +0.000 A 
ATOM     29  C   UNL     1       0.635   8.792  21.489  0.00  0.00    +0.000 A 
ATOM     30  F   UNL     1       1.210   7.688  20.989  0.00  0.00    +0.000 F 
ATOM     31  C   UNL     1      -0.087   8.709  22.674  0.00  0.00    +0.000 A 
ATOM     32  C   UNL     1      -0.679   9.861  23.189  0.00  0.00    +0.000 A 
ATOM     33  C   UNL     1      -0.552  11.071  22.499  0.00  0.00    +0.000 A 
ATOM     34  F   UNL     1      -1.126  12.165  23.026  0.00  0.00    +0.000 F 
ENDBRANCH  12  27
TORSDOF 2
ENDMDL
MODEL 4
REMARK VINA RESULT:      -7.4      0.808      1.453
REMARK  Name = 
REMARK  3 active torsions:
REMARK  status: ('A' for Active; 'I' for Inactive)
REMARK    1  A    between atoms: C_1  and  C_2
REMARK    2  A    between atoms: N_7  and  C_8
REMARK    3  A    between atoms: C_19  and  C_20
REMARK                            x       y       z     vdW  Elec       q    Type
REMARK                         _______ _______ _______ _____ _____    ______ ____
ROOT
ATOM      1  C   UNL     1      -4.978  11.965  19.115  0.00  0.00    +0.000 A 
ATOM      2  C   UNL     1      -5.575  11.048  18.223  0.00  0.00    +0.000 A 
ATOM      3  N   UNL     1      -4.721  10.558  17.328  0.00  0.00    +0.000 NA
ATOM      4  N   UNL     1      -3.556  11.170  17.624  0.00  0.00    +0.000 N 
ATOM      5  C   UNL     1      -2.380  11.074  16.906  0.00  0.00    +0.000 A 
ATOM      6  C   UNL     1      -1.294  11.727  17.319  0.00  0.00    +0.000 A 
ATOM      7  C   UNL     1      -1.388  12.444  18.648  0.00  0.00    +0.000 A 
ATOM      8  N   UNL     1      -0.193  12.895  19.170  0.00  0.00    +0.000 N 
ATOM      9  C   UNL     1       0.704  13.794  18.466  0.00  0.00    +0.000 C 
ATOM     10  C   UNL     1       2.031  13.553  19.160  0.00  0.00    +0.000 C 
ATOM     11  C   UNL     1       1.617  13.407  20.621  0.00  0.00    +0.000 C 
ATOM     12  C   UNL     1       0.215  12.749  20.577  0.00  0.00    +0.000 C 
ATOM     13  N   UNL     1      -2.518  12.575  19.307  0.00  0.00    +0.000 NA
ATOM     14  C   UNL     1      -3.638  11.980  18.763  0.00  0.00    +0.000 A 
ENDROOT
BRANCH   1  21
ATOM     15  C   UNL     1      -4.947  14.634  23.459  0.00  0.00    +0.000 C 
ATOM     16  C   UNL     1      -6.449  14.912  23.351  0.00  0.00    +0.000 C 
ATOM     17  C   UNL     1      -6.998  14.461  21.975  0.00  0.00    +0.000 C 
ATOM     18  N   UNL     1      -7.089  13.005  21.902  0.00  0.00    +0.000 N 
ATOM     19  C   UNL     1      -6.490  12.154  21.002  0.00  0.00    +0.000 C 
ATOM     20  O   UNL     1      -6.770  10.958  20.999  0.00  0.00    +0.000 OA
ATOM     21  N   UNL     1      -5.567  12.706  20.136  0.00  0.00    +0.000 N 
ATOM     22  C   UNL     1      -7.895  12.425  22.981  0.00  0.00    +0.000 C 
ATOM     23  C   UNL     1      -7.347  12.856  24.352  0.00  0.00    +0.000 C 
ATOM     24  N   UNL     1      -7.195  14.318  24.485  0.00  0.00    +0.000 NA
ATOM     25  H   UNL     1      -5.139  13.598  20.331  0.00  0.00    +0.000 HD
ATOM     26  H   UNL     1      -6.714  14.522  25.361  0.00  0.00    +0.000 HD
ENDBRANCH   1  21
BRANCH  12  27
ATOM     27  C   UNL     1       0.280  11.304  21.039  0.00  0.00    +0.000 A 
ATOM     28  C   UNL     1      -0.264  10.877  22.262  0.00  0.00    +0.000 A 
ATOM     29  C   UNL     1      -0.184   9.539  22.641  0.00  0.00    +0.000 A 
ATOM     30  F   UNL     1      -0.686   9.162  23.826  0.00  0.00    +0.000 F 
ATOM     31  C   UNL     1       0.401   8.588  21.814  0.00  0.00    +0.000 A 
ATOM     32  C   UNL     1       0.918   8.987  20.583  0.00  0.00    +0.000 A 
ATOM     33  C   UNL     1       0.857  10.334  20.211  0.00  0.00    +0.000 A 
ATOM     34  F   UNL     1       1.356  10.685  19.014  0.00  0.00    +0.000 F 
ENDBRANCH  12  27
TORSDOF 2
ENDMDL
MODEL 5
REMARK VINA RESULT:      -7.2      3.638      7.574
REMARK  Name = 
REMARK  3 active torsions:
REMARK  status: ('A' for Active; 'I' for Inactive)
REMARK    1  A    between atoms: C_1  and  C_2
REMARK    2  A    between atoms: N_7  and  C_8
REMARK    3  A    between atoms: C_19  and  C_20
REMARK                            x       y       z     vdW  Elec       q    Type
REMARK                         _______ _______ _______ _____ _____    ______ ____
ROOT
ATOM      1  C   UNL     1       0.388  15.078  21.732  0.00  0.00    +0.000 A 
ATOM      2  C   UNL     1      -0.058  15.384  23.036  0.00  0.00    +0.000 A 
ATOM      3  N   UNL     1      -1.172  14.739  23.373  0.00  0.00    +0.000 NA
ATOM      4  N   UNL     1      -1.469  14.012  22.276  0.00  0.00    +0.000 N 
ATOM      5  C   UNL     1      -2.603  13.247  22.088  0.00  0.00    +0.000 A 
ATOM      6  C   UNL     1      -2.766  12.567  20.953  0.00  0.00    +0.000 A 
ATOM      7  C   UNL     1      -1.612  12.576  19.976  0.00  0.00    +0.000 A 
ATOM      8  N   UNL     1      -1.700  11.673  18.936  0.00  0.00    +0.000 N 
ATOM      9  C   UNL     1      -2.813  11.626  18.005  0.00  0.00    +0.000 C 
ATOM     10  C   UNL     1      -2.728  10.215  17.454  0.00  0.00    +0.000 C 
ATOM     11  C   UNL     1      -1.223  10.008  17.310  0.00  0.00    +0.000 C 
ATOM     12  C   UNL     1      -0.594  10.822  18.469  0.00  0.00    +0.000 C 
ATOM     13  N   UNL     1      -0.553  13.341  20.132  0.00  0.00    +0.000 NA
ATOM     14  C   UNL     1      -0.499  14.119  21.270  0.00  0.00    +0.000 A 
ENDROOT
BRANCH   1  21
ATOM     15  C   UNL     1       3.408  15.577  17.655  0.00  0.00    +0.000 C 
ATOM     16  C   UNL     1       4.276  16.618  18.369  0.00  0.00    +0.000 C 
ATOM     17  C   UNL     1       3.632  17.048  19.711  0.00  0.00    +0.000 C 
ATOM     18  N   UNL     1       3.769  15.994  20.715  0.00  0.00    +0.000 N 
ATOM     19  C   UNL     1       2.778  15.343  21.412  0.00  0.00    +0.000 C 
ATOM     20  O   UNL     1       3.066  14.566  22.318  0.00  0.00    +0.000 OA
ATOM     21  N   UNL     1       1.474  15.595  21.032  0.00  0.00    +0.000 N 
ATOM     22  C   UNL     1       5.160  15.584  20.931  0.00  0.00    +0.000 C 
ATOM     23  C   UNL     1       5.801  15.142  19.604  0.00  0.00    +0.000 C 
ATOM     24  N   UNL     1       5.671  16.145  18.531  0.00  0.00    +0.000 NA
ATOM     25  H   UNL     1       1.263  15.992  20.129  0.00  0.00    +0.000 HD
ATOM     26  H   UNL     1       6.002  15.739  17.656  0.00  0.00    +0.000 HD
ENDBRANCH   1  21
BRANCH  12  27
ATOM     27  C   UNL     1      -0.047   9.900  19.544  0.00  0.00    +0.000 A 
ATOM     28  C   UNL     1      -0.720   9.671  20.757  0.00  0.00    +0.000 A 
ATOM     29  C   UNL     1      -0.180   8.812  21.712  0.00  0.00    +0.000 A 
ATOM     30  F   UNL     1      -0.827   8.632  22.873  0.00  0.00    +0.000 F 
ATOM     31  C   UNL     1       1.012   8.136  21.483  0.00  0.00    +0.000 A 
ATOM     32  C   UNL     1       1.678   8.326  20.273  0.00  0.00    +0.000 A 
ATOM     33  C   UNL     1       1.148   9.204  19.322  0.00  0.00    +0.000 A 
ATOM     34  F   UNL     1       1.808   9.358  18.163  0.00  0.00    +0.000 F 
ENDBRANCH  12  27
TORSDOF 2
ENDMDL
MODEL 6
REMARK VINA RESULT:      -7.2      2.020      2.727
REMARK  Name = 
REMARK  3 active torsions:
REMARK  status: ('A' for Active; 'I' for Inactive)
REMARK    1  A    between atoms: C_1  and  C_2
REMARK    2  A    between atoms: N_7  and  C_8
REMARK    3  A    between atoms: C_19  and  C_20
REMARK                            x       y       z     vdW  Elec       q    Type
REMARK                         _______ _______ _______ _____ _____    ______ ____
ROOT
ATOM      1  C   UNL     1      -4.904  13.474  21.028  0.00  0.00    +0.000 A 
ATOM      2  C   UNL     1      -6.030  12.745  20.588  0.00  0.00    +0.000 A 
ATOM      3  N   UNL     1      -5.754  11.908  19.591  0.00  0.00    +0.000 NA
ATOM      4  N   UNL     1      -4.438  12.098  19.363  0.00  0.00    +0.000 N 
ATOM      5  C   UNL     1      -3.698  11.531  18.345  0.00  0.00    +0.000 A 
ATOM      6  C   UNL     1      -2.395  11.798  18.243  0.00  0.00    +0.000 A 
ATOM      7  C   UNL     1      -1.774  12.621  19.349  0.00  0.00    +0.000 A 
ATOM      8  N   UNL     1      -0.395  12.672  19.355  0.00  0.00    +0.000 N 
ATOM      9  C   UNL     1       0.397  13.133  18.229  0.00  0.00    +0.000 C 
ATOM     10  C   UNL     1       1.753  12.507  18.498  0.00  0.00    +0.000 C 
ATOM     11  C   UNL     1       1.888  12.649  20.011  0.00  0.00    +0.000 C 
ATOM     12  C   UNL     1       0.444  12.522  20.556  0.00  0.00    +0.000 C 
ATOM     13  N   UNL     1      -2.487  13.199  20.291  0.00  0.00    +0.000 NA
ATOM     14  C   UNL     1      -3.850  12.987  20.272  0.00  0.00    +0.000 A 
ENDROOT
BRANCH   1  21
ATOM     15  C   UNL     1      -3.422  17.984  22.886  0.00  0.00    +0.000 C 
ATOM     16  C   UNL     1      -4.176  17.742  24.197  0.00  0.00    +0.000 C 
ATOM     17  C   UNL     1      -5.069  16.480  24.097  0.00  0.00    +0.000 C 
ATOM     18  N   UNL     1      -4.259  15.265  24.139  0.00  0.00    +0.000 N 
ATOM     19  C   UNL     1      -4.179  14.257  23.206  0.00  0.00    +0.000 C 
ATOM     20  O   UNL     1      -3.543  13.236  23.450  0.00  0.00    +0.000 OA
ATOM     21  N   UNL     1      -4.826  14.463  22.004  0.00  0.00    +0.000 N 
ATOM     22  C   UNL     1      -3.404  15.185  25.328  0.00  0.00    +0.000 C 
ATOM     23  C   UNL     1      -2.503  16.428  25.425  0.00  0.00    +0.000 C 
ATOM     24  N   UNL     1      -3.252  17.697  25.355  0.00  0.00    +0.000 NA
ATOM     25  H   UNL     1      -5.089  15.390  21.707  0.00  0.00    +0.000 HD
ATOM     26  H   UNL     1      -2.590  18.470  25.299  0.00  0.00    +0.000 HD
ENDBRANCH   1  21
BRANCH  12  27
ATOM     27  C   UNL     1       0.247  11.195  21.266  0.00  0.00    +0.000 A 
ATOM     28  C   UNL     1       0.751   9.985  20.759  0.00  0.00    +0.000 A 
ATOM     29  C   UNL     1       0.548   8.792  21.450  0.00  0.00    +0.000 A 
ATOM     30  F   UNL     1       1.015   7.646  20.931  0.00  0.00    +0.000 F 
ATOM     31  C   UNL     1      -0.122   8.767  22.667  0.00  0.00    +0.000 A 
ATOM     32  C   UNL     1      -0.601   9.962  23.202  0.00  0.00    +0.000 A 
ATOM     33  C   UNL     1      -0.417  11.157  22.498  0.00  0.00    +0.000 A 
ATOM     34  F   UNL     1      -0.882  12.292  23.044  0.00  0.00    +0.000 F 
ENDBRANCH  12  27
TORSDOF 2
ENDMDL
MODEL 7
REMARK VINA RESULT:      -7.2      9.518     11.848
REMARK  Name = 
REMARK  3 active torsions:
REMARK  status: ('A' for Active; 'I' for Inactive)
REMARK    1  A    between atoms: C_1  and  C_2
REMARK    2  A    between atoms: N_7  and  C_8
REMARK    3  A    between atoms: C_19  and  C_20
REMARK                            x       y       z     vdW  Elec       q    Type
REMARK                         _______ _______ _______ _____ _____    ______ ____
ROOT
ATOM      1  C   UNL     1       5.782  15.588  22.319  0.00  0.00    +0.000 A 
ATOM      2  C   UNL     1       4.532  15.878  21.730  0.00  0.00    +0.000 A 
ATOM      3  N   UNL     1       4.632  16.297  20.471  0.00  0.00    +0.000 NA
ATOM      4  N   UNL     1       5.960  16.296  20.234  0.00  0.00    +0.000 N 
ATOM      5  C   UNL     1       6.584  16.756  19.091  0.00  0.00    +0.000 A 
ATOM      6  C   UNL     1       7.911  16.685  18.984  0.00  0.00    +0.000 A 
ATOM      7  C   UNL     1       8.652  15.973  20.093  0.00  0.00    +0.000 A 
ATOM      8  N   UNL     1       9.980  15.693  19.842  0.00  0.00    +0.000 N 
ATOM      9  C   UNL     1      10.963  16.704  19.497  0.00  0.00    +0.000 C 
ATOM     10  C   UNL     1      12.048  15.894  18.813  0.00  0.00    +0.000 C 
ATOM     11  C   UNL     1      12.094  14.624  19.658  0.00  0.00    +0.000 C 
ATOM     12  C   UNL     1      10.636  14.408  20.134  0.00  0.00    +0.000 C 
ATOM     13  N   UNL     1       8.065  15.577  21.201  0.00  0.00    +0.000 NA
ATOM     14  C   UNL     1       6.706  15.791  21.307  0.00  0.00    +0.000 A 
ENDROOT
BRANCH   1  21
ATOM     15  C   UNL     1       8.885  14.335  26.165  0.00  0.00    +0.000 C 
ATOM     16  C   UNL     1       7.700  14.123  27.112  0.00  0.00    +0.000 C 
ATOM     17  C   UNL     1       6.380  14.610  26.463  0.00  0.00    +0.000 C 
ATOM     18  N   UNL     1       5.937  13.683  25.425  0.00  0.00    +0.000 N 
ATOM     19  C   UNL     1       5.705  13.936  24.093  0.00  0.00    +0.000 C 
ATOM     20  O   UNL     1       5.211  13.071  23.375  0.00  0.00    +0.000 OA
ATOM     21  N   UNL     1       6.066  15.182  23.620  0.00  0.00    +0.000 N 
ATOM     22  C   UNL     1       5.783  12.307  25.911  0.00  0.00    +0.000 C 
ATOM     23  C   UNL     1       7.095  11.812  26.543  0.00  0.00    +0.000 C 
ATOM     24  N   UNL     1       7.622  12.720  27.580  0.00  0.00    +0.000 NA
ATOM     25  H   UNL     1       6.717  15.763  24.126  0.00  0.00    +0.000 HD
ATOM     26  H   UNL     1       8.547  12.398  27.864  0.00  0.00    +0.000 HD
ENDBRANCH   1  21
BRANCH  12  27
ATOM     27  C   UNL     1      10.000  13.230  19.415  0.00  0.00    +0.000 A 
ATOM     28  C   UNL     1       9.118  13.392  18.334  0.00  0.00    +0.000 A 
ATOM     29  C   UNL     1       8.563  12.280  17.704  0.00  0.00    +0.000 A 
ATOM     30  F   UNL     1       7.702  12.461  16.692  0.00  0.00    +0.000 F 
ATOM     31  C   UNL     1       8.889  10.988  18.100  0.00  0.00    +0.000 A 
ATOM     32  C   UNL     1       9.787  10.807  19.151  0.00  0.00    +0.000 A 
ATOM     33  C   UNL     1      10.328  11.923  19.798  0.00  0.00    +0.000 A 
ATOM     34  F   UNL     1      11.197  11.716  20.800  0.00  0.00    +0.000 F 
ENDBRANCH  12  27
TORSDOF 2
ENDMDL
MODEL 8
REMARK VINA RESULT:      -7.2      1.655      2.346
REMARK  Name = 
REMARK  3 active torsions:
REMARK  status: ('A' for Active; 'I' for Inactive)
REMARK    1  A    between atoms: C_1  and  C_2
REMARK    2  A    between atoms: N_7  and  C_8
REMARK    3  A    between atoms: C_19  and  C_20
REMARK                            x       y       z     vdW  Elec       q    Type
REMARK                         _______ _______ _______ _____ _____    ______ ____
ROOT
ATOM      1  C   UNL     1      -4.817  12.528  20.150  0.00  0.00    +0.000 A 
ATOM      2  C   UNL     1      -5.733  11.691  19.474  0.00  0.00    +0.000 A 
ATOM      3  N   UNL     1      -5.195  11.060  18.434  0.00  0.00    +0.000 NA
ATOM      4  N   UNL     1      -3.918  11.495  18.416  0.00  0.00    +0.000 N 
ATOM      5  C   UNL     1      -2.973  11.207  17.451  0.00  0.00    +0.000 A 
ATOM      6  C   UNL     1      -1.739  11.698  17.562  0.00  0.00    +0.000 A 
ATOM      7  C   UNL     1      -1.411  12.449  18.833  0.00  0.00    +0.000 A 
ATOM      8  N   UNL     1      -0.075  12.727  19.037  0.00  0.00    +0.000 N 
ATOM      9  C   UNL     1       0.746  13.466  18.094  0.00  0.00    +0.000 C 
ATOM     10  C   UNL     1       2.153  13.042  18.473  0.00  0.00    +0.000 C 
ATOM     11  C   UNL     1       2.083  12.991  19.996  0.00  0.00    +0.000 C 
ATOM     12  C   UNL     1       0.632  12.552  20.316  0.00  0.00    +0.000 C 
ATOM     13  N   UNL     1      -2.322  12.764  19.729  0.00  0.00    +0.000 NA
ATOM     14  C   UNL     1      -3.611  12.333  19.496  0.00  0.00    +0.000 A 
ENDROOT
BRANCH   1  21
ATOM     15  C   UNL     1      -4.494  16.946  22.672  0.00  0.00    +0.000 C 
ATOM     16  C   UNL     1      -5.287  16.381  23.854  0.00  0.00    +0.000 C 
ATOM     17  C   UNL     1      -5.879  14.992  23.509  0.00  0.00    +0.000 C 
ATOM     18  N   UNL     1      -4.835  13.969  23.500  0.00  0.00    +0.000 N 
ATOM     19  C   UNL     1      -4.464  13.135  22.471  0.00  0.00    +0.000 C 
ATOM     20  O   UNL     1      -3.648  12.238  22.664  0.00  0.00    +0.000 OA
ATOM     21  N   UNL     1      -5.035  13.370  21.236  0.00  0.00    +0.000 N 
ATOM     22  C   UNL     1      -4.087  13.900  24.759  0.00  0.00    +0.000 C 
ATOM     23  C   UNL     1      -3.484  15.273  25.100  0.00  0.00    +0.000 C 
ATOM     24  N   UNL     1      -4.477  16.364  25.094  0.00  0.00    +0.000 NA
ATOM     25  H   UNL     1      -5.464  14.257  21.021  0.00  0.00    +0.000 HD
ATOM     26  H   UNL     1      -3.992  17.255  25.203  0.00  0.00    +0.000 HD
ENDBRANCH   1  21
BRANCH  12  27
ATOM     27  C   UNL     1       0.600  11.123  20.832  0.00  0.00    +0.000 A 
ATOM     28  C   UNL     1       0.192  10.800  22.137  0.00  0.00    +0.000 A 
ATOM     29  C   UNL     1       0.176   9.474  22.563  0.00  0.00    +0.000 A 
ATOM     30  F   UNL     1      -0.191   9.194  23.822  0.00  0.00    +0.000 F 
ATOM     31  C   UNL     1       0.527   8.436  21.708  0.00  0.00    +0.000 A 
ATOM     32  C   UNL     1       0.905   8.735  20.400  0.00  0.00    +0.000 A 
ATOM     33  C   UNL     1       0.942  10.068  19.977  0.00  0.00    +0.000 A 
ATOM     34  F   UNL     1       1.301  10.322  18.708  0.00  0.00    +0.000 F 
ENDBRANCH  12  27
TORSDOF 2
ENDMDL
MODEL 9
REMARK VINA RESULT:      -7.0      8.831     11.482
REMARK  Name = 
REMARK  3 active torsions:
REMARK  status: ('A' for Active; 'I' for Inactive)
REMARK    1  A    between atoms: C_1  and  C_2
REMARK    2  A    between atoms: N_7  and  C_8
REMARK    3  A    between atoms: C_19  and  C_20
REMARK                            x       y       z     vdW  Elec       q    Type
REMARK                         _______ _______ _______ _____ _____    ______ ____
ROOT
ATOM      1  C   UNL     1       5.258  14.871  22.018  0.00  0.00    +0.000 A 
ATOM      2  C   UNL     1       4.057  14.689  21.299  0.00  0.00    +0.000 A 
ATOM      3  N   UNL     1       4.199  14.873  19.988  0.00  0.00    +0.000 NA
ATOM      4  N   UNL     1       5.502  15.193  19.846  0.00  0.00    +0.000 N 
ATOM      5  C   UNL     1       6.122  15.583  18.676  0.00  0.00    +0.000 A 
ATOM      6  C   UNL     1       7.426  15.861  18.675  0.00  0.00    +0.000 A 
ATOM      7  C   UNL     1       8.184  15.603  19.958  0.00  0.00    +0.000 A 
ATOM      8  N   UNL     1       9.559  15.658  19.863  0.00  0.00    +0.000 N 
ATOM      9  C   UNL     1      10.286  16.816  19.375  0.00  0.00    +0.000 C 
ATOM     10  C   UNL     1      11.617  16.222  18.956  0.00  0.00    +0.000 C 
ATOM     11  C   UNL     1      11.882  15.198  20.054  0.00  0.00    +0.000 C 
ATOM     12  C   UNL     1      10.481  14.682  20.467  0.00  0.00    +0.000 C 
ATOM     13  N   UNL     1       7.586  15.278  21.084  0.00  0.00    +0.000 NA
ATOM     14  C   UNL     1       6.216  15.125  21.050  0.00  0.00    +0.000 A 
ENDROOT
BRANCH   1  21
ATOM     15  C   UNL     1       7.966  15.602  26.275  0.00  0.00    +0.000 C 
ATOM     16  C   UNL     1       6.833  15.048  27.145  0.00  0.00    +0.000 C 
ATOM     17  C   UNL     1       5.546  14.837  26.308  0.00  0.00    +0.000 C 
ATOM     18  N   UNL     1       5.677  13.672  25.437  0.00  0.00    +0.000 N 
ATOM     19  C   UNL     1       5.573  13.611  24.066  0.00  0.00    +0.000 C 
ATOM     20  O   UNL     1       5.583  12.526  23.492  0.00  0.00    +0.000 OA
ATOM     21  N   UNL     1       5.475  14.812  23.392  0.00  0.00    +0.000 N 
ATOM     22  C   UNL     1       6.012  12.444  26.166  0.00  0.00    +0.000 C 
ATOM     23  C   UNL     1       7.297  12.642  26.988  0.00  0.00    +0.000 C 
ATOM     24  N   UNL     1       7.250  13.825  27.868  0.00  0.00    +0.000 NA
ATOM     25  H   UNL     1       5.753  15.678  23.828  0.00  0.00    +0.000 HD
ATOM     26  H   UNL     1       8.171  13.965  28.284  0.00  0.00    +0.000 HD
ENDBRANCH   1  21
BRANCH  12  27
ATOM     27  C   UNL     1      10.261  13.261  19.978  0.00  0.00    +0.000 A 
ATOM     28  C   UNL     1      10.674  12.828  18.706  0.00  0.00    +0.000 A 
ATOM     29  C   UNL     1      10.453  11.512  18.304  0.00  0.00    +0.000 A 
ATOM     30  F   UNL     1      10.832  11.131  17.075  0.00  0.00    +0.000 F 
ATOM     31  C   UNL     1       9.853  10.588  19.151  0.00  0.00    +0.000 A 
ATOM     32  C   UNL     1       9.465  10.992  20.427  0.00  0.00    +0.000 A 
ATOM     33  C   UNL     1       9.667  12.318  20.825  0.00  0.00    +0.000 A 
ATOM     34  F   UNL     1       9.290  12.673  22.064  0.00  0.00    +0.000 F 
ENDBRANCH  12  27
TORSDOF 2
ENDMDL
