MODEL 1
REMARK VINA RESULT:      -6.2      0.000      0.000
REMARK  Name = 
REMARK  7 active torsions:
REMARK  status: ('A' for Active; 'I' for Inactive)
REMARK    1  A    between atoms: C_1  and  C_2
REMARK    2  A    between atoms: C_2  and  N_3
REMARK    3  A    between atoms: C_4  and  C_6
REMARK    4  A    between atoms: C_6  and  N_7
REMARK    5  A    between atoms: N_7  and  C_8
REMARK    6  A    between atoms: C_8  and  C_9
REMARK    7  A    between atoms: C_10  and  C_12
REMARK                            x       y       z     vdW  Elec       q    Type
REMARK                         _______ _______ _______ _____ _____    ______ ____
ROOT
ATOM      1  N   UNL     1       5.037   4.670  17.984  0.00  0.00    +0.000 N 
ATOM      2  C   UNL     1       4.576   3.762  18.949  0.00  0.00    +0.000 C 
ATOM      3  O   UNL     1       5.374   3.182  19.685  0.00  0.00    +0.000 OA
ENDROOT
BRANCH   2   4
ATOM      4  C   UNL     1       3.129   3.582  19.139  0.00  0.00    +0.000 A 
ATOM      5  C   UNL     1       2.225   4.272  20.021  0.00  0.00    +0.000 A 
ATOM      6  C   UNL     1       0.957   3.730  20.029  0.00  0.00    +0.000 A 
ATOM      7  S   UNL     1       0.788   2.507  18.856  0.00  0.00    +0.000 S 
ATOM      8  C   UNL     1       2.420   2.670  18.374  0.00  0.00    +0.000 A 
ENDBRANCH   2   4
BRANCH   1   9
ATOM      9  C   UNL     1       4.143   5.534  17.204  0.00  0.00    +0.000 C 
ATOM     10  C   UNL     1       3.897   6.953  17.674  0.00  0.00    +0.000 C 
ENDBRANCH   1   9
BRANCH   1  11
ATOM     11  C   UNL     1       6.478   4.653  17.693  0.00  0.00    +0.000 C 
BRANCH  11  13
ATOM     12  N   UNL     1       6.484   4.102  15.258  0.00  0.00    +0.000 N 
ATOM     13  C   UNL     1       6.914   4.968  16.247  0.00  0.00    +0.000 C 
ATOM     14  O   UNL     1       7.484   6.025  15.987  0.00  0.00    +0.000 OA
ATOM     15  H   UNL     1       5.673   3.531  15.493  0.00  0.00    +0.000 HD
BRANCH  12  17
ATOM     16  C   UNL     1       6.067   3.527  12.871  0.00  0.00    +0.000 C 
ATOM     17  C   UNL     1       6.685   4.486  13.870  0.00  0.00    +0.000 C 
ENDBRANCH  12  17
ENDBRANCH  11  13
ENDBRANCH   1  11
TORSDOF 5
ENDMDL
MODEL 2
REMARK VINA RESULT:      -6.1      0.588      1.021
REMARK  Name = 
REMARK  7 active torsions:
REMARK  status: ('A' for Active; 'I' for Inactive)
REMARK    1  A    between atoms: C_1  and  C_2
REMARK    2  A    between atoms: C_2  and  N_3
REMARK    3  A    between atoms: C_4  and  C_6
REMARK    4  A    between atoms: C_6  and  N_7
REMARK    5  A    between atoms: N_7  and  C_8
REMARK    6  A    between atoms: C_8  and  C_9
REMARK    7  A    between atoms: C_10  and  C_12
REMARK                            x       y       z     vdW  Elec       q    Type
REMARK                         _______ _______ _______ _____ _____    ______ ____
ROOT
ATOM      1  N   UNL     1       5.000   4.592  18.044  0.00  0.00    +0.000 N 
ATOM      2  C   UNL     1       4.577   3.621  18.963  0.00  0.00    +0.000 C 
ATOM      3  O   UNL     1       5.396   3.058  19.690  0.00  0.00    +0.000 OA
ENDROOT
BRANCH   2   4
ATOM      4  C   UNL     1       3.141   3.350  19.119  0.00  0.00    +0.000 A 
ATOM      5  C   UNL     1       2.270   2.525  18.323  0.00  0.00    +0.000 A 
ATOM      6  C   UNL     1       0.944   2.628  18.689  0.00  0.00    +0.000 A 
ATOM      7  S   UNL     1       0.750   3.568  20.096  0.00  0.00    +0.000 S 
ATOM      8  C   UNL     1       2.429   3.878  20.185  0.00  0.00    +0.000 A 
ENDBRANCH   2   4
BRANCH   1   9
ATOM      9  C   UNL     1       4.070   5.434  17.282  0.00  0.00    +0.000 C 
ATOM     10  C   UNL     1       3.683   6.789  17.837  0.00  0.00    +0.000 C 
ENDBRANCH   1   9
BRANCH   1  11
ATOM     11  C   UNL     1       6.444   4.670  17.779  0.00  0.00    +0.000 C 
BRANCH  11  13
ATOM     12  N   UNL     1       6.564   4.089  15.354  0.00  0.00    +0.000 N 
ATOM     13  C   UNL     1       6.885   5.005  16.339  0.00  0.00    +0.000 C 
ATOM     14  O   UNL     1       7.360   6.107  16.076  0.00  0.00    +0.000 OA
ATOM     15  H   UNL     1       5.804   3.448  15.578  0.00  0.00    +0.000 HD
BRANCH  12  17
ATOM     16  C   UNL     1       6.028   3.590  12.973  0.00  0.00    +0.000 C 
ATOM     17  C   UNL     1       6.762   4.472  13.965  0.00  0.00    +0.000 C 
ENDBRANCH  12  17
ENDBRANCH  11  13
ENDBRANCH   1  11
TORSDOF 5
ENDMDL
MODEL 3
REMARK VINA RESULT:      -5.9      1.743      2.193
REMARK  Name = 
REMARK  7 active torsions:
REMARK  status: ('A' for Active; 'I' for Inactive)
REMARK    1  A    between atoms: C_1  and  C_2
REMARK    2  A    between atoms: C_2  and  N_3
REMARK    3  A    between atoms: C_4  and  C_6
REMARK    4  A    between atoms: C_6  and  N_7
REMARK    5  A    between atoms: N_7  and  C_8
REMARK    6  A    between atoms: C_8  and  C_9
REMARK    7  A    between atoms: C_10  and  C_12
REMARK                            x       y       z     vdW  Elec       q    Type
REMARK                         _______ _______ _______ _____ _____    ______ ____
ROOT
ATOM      1  N   UNL     1       5.499   5.135  17.910  0.00  0.00    +0.000 N 
ATOM      2  C   UNL     1       4.245   4.506  17.905  0.00  0.00    +0.000 C 
ATOM      3  O   UNL     1       3.666   4.285  16.842  0.00  0.00    +0.000 OA
ENDROOT
BRANCH   2   4
ATOM      4  C   UNL     1       3.673   4.026  19.172  0.00  0.00    +0.000 A 
ATOM      5  C   UNL     1       3.897   2.788  19.871  0.00  0.00    +0.000 A 
ATOM      6  C   UNL     1       3.069   2.625  20.963  0.00  0.00    +0.000 A 
ATOM      7  S   UNL     1       2.145   4.023  21.266  0.00  0.00    +0.000 S 
ATOM      8  C   UNL     1       2.813   4.823  19.911  0.00  0.00    +0.000 A 
ENDBRANCH   2   4
BRANCH   1   9
ATOM      9  C   UNL     1       6.329   5.261  19.114  0.00  0.00    +0.000 C 
ATOM     10  C   UNL     1       7.680   5.938  19.007  0.00  0.00    +0.000 C 
ENDBRANCH   1   9
BRANCH   1  11
ATOM     11  C   UNL     1       5.922   5.778  16.657  0.00  0.00    +0.000 C 
BRANCH  11  13
ATOM     12  N   UNL     1       5.828   4.534  14.494  0.00  0.00    +0.000 N 
ATOM     13  C   UNL     1       6.593   4.886  15.592  0.00  0.00    +0.000 C 
ATOM     14  O   UNL     1       7.795   4.639  15.657  0.00  0.00    +0.000 OA
ATOM     15  H   UNL     1       5.024   5.131  14.307  0.00  0.00    +0.000 HD
BRANCH  12  17
ATOM     16  C   UNL     1       5.536   3.369  12.313  0.00  0.00    +0.000 C 
ATOM     17  C   UNL     1       6.489   3.887  13.372  0.00  0.00    +0.000 C 
ENDBRANCH  12  17
ENDBRANCH  11  13
ENDBRANCH   1  11
TORSDOF 5
ENDMDL
MODEL 4
REMARK VINA RESULT:      -5.9      1.428      1.639
REMARK  Name = 
REMARK  7 active torsions:
REMARK  status: ('A' for Active; 'I' for Inactive)
REMARK    1  A    between atoms: C_1  and  C_2
REMARK    2  A    between atoms: C_2  and  N_3
REMARK    3  A    between atoms: C_4  and  C_6
REMARK    4  A    between atoms: C_6  and  N_7
REMARK    5  A    between atoms: N_7  and  C_8
REMARK    6  A    between atoms: C_8  and  C_9
REMARK    7  A    between atoms: C_10  and  C_12
REMARK                            x       y       z     vdW  Elec       q    Type
REMARK                         _______ _______ _______ _____ _____    ______ ____
ROOT
ATOM      1  N   UNL     1       4.277   5.753  18.228  0.00  0.00    +0.000 N 
ATOM      2  C   UNL     1       4.465   4.452  18.717  0.00  0.00    +0.000 C 
ATOM      3  O   UNL     1       5.601   4.034  18.946  0.00  0.00    +0.000 OA
ENDROOT
BRANCH   2   4
ATOM      4  C   UNL     1       3.294   3.626  19.044  0.00  0.00    +0.000 A 
ATOM      5  C   UNL     1       2.512   2.765  18.196  0.00  0.00    +0.000 A 
ATOM      6  C   UNL     1       1.392   2.259  18.825  0.00  0.00    +0.000 A 
ATOM      7  S   UNL     1       1.360   2.665  20.478  0.00  0.00    +0.000 S 
ATOM      8  C   UNL     1       2.814   3.555  20.343  0.00  0.00    +0.000 A 
ENDBRANCH   2   4
BRANCH   1   9
ATOM      9  C   UNL     1       2.956   6.382  18.110  0.00  0.00    +0.000 C 
ATOM     10  C   UNL     1       2.872   7.880  17.894  0.00  0.00    +0.000 C 
ENDBRANCH   1   9
BRANCH   1  11
ATOM     11  C   UNL     1       5.469   6.449  17.722  0.00  0.00    +0.000 C 
BRANCH  11  13
ATOM     12  N   UNL     1       6.753   5.212  15.974  0.00  0.00    +0.000 N 
ATOM     13  C   UNL     1       5.849   6.224  16.243  0.00  0.00    +0.000 C 
ATOM     14  O   UNL     1       5.250   6.820  15.350  0.00  0.00    +0.000 OA
ATOM     15  H   UNL     1       6.848   4.501  16.697  0.00  0.00    +0.000 HD
BRANCH  12  17
ATOM     16  C   UNL     1       5.987   3.776  14.089  0.00  0.00    +0.000 C 
ATOM     17  C   UNL     1       6.962   4.825  14.587  0.00  0.00    +0.000 C 
ENDBRANCH  12  17
ENDBRANCH  11  13
ENDBRANCH   1  11
TORSDOF 5
ENDMDL
MODEL 5
REMARK VINA RESULT:      -5.8      1.694      2.005
REMARK  Name = 
REMARK  7 active torsions:
REMARK  status: ('A' for Active; 'I' for Inactive)
REMARK    1  A    between atoms: C_1  and  C_2
REMARK    2  A    between atoms: C_2  and  N_3
REMARK    3  A    between atoms: C_4  and  C_6
REMARK    4  A    between atoms: C_6  and  N_7
REMARK    5  A    between atoms: N_7  and  C_8
REMARK    6  A    between atoms: C_8  and  C_9
REMARK    7  A    between atoms: C_10  and  C_12
REMARK                            x       y       z     vdW  Elec       q    Type
REMARK                         _______ _______ _______ _____ _____    ______ ____
ROOT
ATOM      1  N   UNL     1       5.246   5.271  18.029  0.00  0.00    +0.000 N 
ATOM      2  C   UNL     1       3.961   4.712  17.978  0.00  0.00    +0.000 C 
ATOM      3  O   UNL     1       3.416   4.508  16.893  0.00  0.00    +0.000 OA
ENDROOT
BRANCH   2   4
ATOM      4  C   UNL     1       3.309   4.284  19.224  0.00  0.00    +0.000 A 
ATOM      5  C   UNL     1       2.537   5.050  20.167  0.00  0.00    +0.000 A 
ATOM      6  C   UNL     1       2.203   4.337  21.300  0.00  0.00    +0.000 A 
ATOM      7  S   UNL     1       2.655   2.700  21.169  0.00  0.00    +0.000 S 
ATOM      8  C   UNL     1       3.338   2.957  19.623  0.00  0.00    +0.000 A 
ENDBRANCH   2   4
BRANCH   1   9
ATOM      9  C   UNL     1       6.030   5.369  19.266  0.00  0.00    +0.000 C 
ATOM     10  C   UNL     1       7.496   5.740  19.180  0.00  0.00    +0.000 C 
ENDBRANCH   1   9
BRANCH   1  11
ATOM     11  C   UNL     1       5.758   5.871  16.788  0.00  0.00    +0.000 C 
BRANCH  11  13
ATOM     12  N   UNL     1       5.639   4.484  14.715  0.00  0.00    +0.000 N 
ATOM     13  C   UNL     1       6.423   4.928  15.765  0.00  0.00    +0.000 C 
ATOM     14  O   UNL     1       7.633   4.716  15.811  0.00  0.00    +0.000 OA
ATOM     15  H   UNL     1       4.814   5.047  14.513  0.00  0.00    +0.000 HD
BRANCH  12  17
ATOM     16  C   UNL     1       5.371   3.498  12.444  0.00  0.00    +0.000 C 
ATOM     17  C   UNL     1       6.287   3.781  13.619  0.00  0.00    +0.000 C 
ENDBRANCH  12  17
ENDBRANCH  11  13
ENDBRANCH   1  11
TORSDOF 5
ENDMDL
MODEL 6
REMARK VINA RESULT:      -5.8      1.848      2.487
REMARK  Name = 
REMARK  7 active torsions:
REMARK  status: ('A' for Active; 'I' for Inactive)
REMARK    1  A    between atoms: C_1  and  C_2
REMARK    2  A    between atoms: C_2  and  N_3
REMARK    3  A    between atoms: C_4  and  C_6
REMARK    4  A    between atoms: C_6  and  N_7
REMARK    5  A    between atoms: N_7  and  C_8
REMARK    6  A    between atoms: C_8  and  C_9
REMARK    7  A    between atoms: C_10  and  C_12
REMARK                            x       y       z     vdW  Elec       q    Type
REMARK                         _______ _______ _______ _____ _____    ______ ____
ROOT
ATOM      1  N   UNL     1       6.111   4.880  17.415  0.00  0.00    +0.000 N 
ATOM      2  C   UNL     1       4.750   4.546  17.354  0.00  0.00    +0.000 C 
ATOM      3  O   UNL     1       4.381   3.566  16.706  0.00  0.00    +0.000 OA
ENDROOT
BRANCH   2   4
ATOM      4  C   UNL     1       3.780   5.317  18.145  0.00  0.00    +0.000 A 
ATOM      5  C   UNL     1       3.266   6.644  17.929  0.00  0.00    +0.000 A 
ATOM      6  C   UNL     1       2.475   7.094  18.967  0.00  0.00    +0.000 A 
ATOM      7  S   UNL     1       2.197   5.873  20.121  0.00  0.00    +0.000 S 
ATOM      8  C   UNL     1       3.171   4.763  19.260  0.00  0.00    +0.000 A 
ENDBRANCH   2   4
BRANCH   1   9
ATOM      9  C   UNL     1       6.644   5.914  18.312  0.00  0.00    +0.000 C 
ATOM     10  C   UNL     1       7.563   6.976  17.745  0.00  0.00    +0.000 C 
ENDBRANCH   1   9
BRANCH   1  11
ATOM     11  C   UNL     1       7.000   4.219  16.449  0.00  0.00    +0.000 C 
BRANCH  11  13
ATOM     12  N   UNL     1       6.337   3.498  14.152  0.00  0.00    +0.000 N 
ATOM     13  C   UNL     1       6.783   4.533  14.954  0.00  0.00    +0.000 C 
ATOM     14  O   UNL     1       6.858   5.690  14.545  0.00  0.00    +0.000 OA
ATOM     15  H   UNL     1       5.885   2.725  14.640  0.00  0.00    +0.000 HD
BRANCH  12  17
ATOM     16  C   UNL     1       5.636   2.587  11.943  0.00  0.00    +0.000 C 
ATOM     17  C   UNL     1       5.910   3.809  12.797  0.00  0.00    +0.000 C 
ENDBRANCH  12  17
ENDBRANCH  11  13
ENDBRANCH   1  11
TORSDOF 5
ENDMDL
MODEL 7
REMARK VINA RESULT:      -5.8      1.855      2.873
REMARK  Name = 
REMARK  7 active torsions:
REMARK  status: ('A' for Active; 'I' for Inactive)
REMARK    1  A    between atoms: C_1  and  C_2
REMARK    2  A    between atoms: C_2  and  N_3
REMARK    3  A    between atoms: C_4  and  C_6
REMARK    4  A    between atoms: C_6  and  N_7
REMARK    5  A    between atoms: N_7  and  C_8
REMARK    6  A    between atoms: C_8  and  C_9
REMARK    7  A    between atoms: C_10  and  C_12
REMARK                            x       y       z     vdW  Elec       q    Type
REMARK                         _______ _______ _______ _____ _____    ______ ____
ROOT
ATOM      1  N   UNL     1       5.051   4.573  17.983  0.00  0.00    +0.000 N 
ATOM      2  C   UNL     1       4.652   3.627  18.939  0.00  0.00    +0.000 C 
ATOM      3  O   UNL     1       5.484   3.106  19.681  0.00  0.00    +0.000 OA
ENDROOT
BRANCH   2   4
ATOM      4  C   UNL     1       3.221   3.335  19.113  0.00  0.00    +0.000 A 
ATOM      5  C   UNL     1       2.353   2.497  18.328  0.00  0.00    +0.000 A 
ATOM      6  C   UNL     1       1.030   2.579  18.711  0.00  0.00    +0.000 A 
ATOM      7  S   UNL     1       0.839   3.518  20.119  0.00  0.00    +0.000 S 
ATOM      8  C   UNL     1       2.514   3.853  20.187  0.00  0.00    +0.000 A 
ENDBRANCH   2   4
BRANCH   1   9
ATOM      9  C   UNL     1       4.101   5.370  17.198  0.00  0.00    +0.000 C 
ATOM     10  C   UNL     1       3.512   6.624  17.810  0.00  0.00    +0.000 C 
ENDBRANCH   1   9
BRANCH   1  11
ATOM     11  C   UNL     1       6.492   4.668  17.708  0.00  0.00    +0.000 C 
BRANCH  11  13
ATOM     12  N   UNL     1       7.110   7.075  17.956  0.00  0.00    +0.000 N 
ATOM     13  C   UNL     1       7.014   5.989  17.104  0.00  0.00    +0.000 C 
ATOM     14  O   UNL     1       7.462   6.014  15.960  0.00  0.00    +0.000 OA
ATOM     15  H   UNL     1       7.146   6.854  18.950  0.00  0.00    +0.000 HD
BRANCH  12  17
ATOM     16  C   UNL     1       8.622   8.962  18.549  0.00  0.00    +0.000 C 
ATOM     17  C   UNL     1       7.802   8.263  17.483  0.00  0.00    +0.000 C 
ENDBRANCH  12  17
ENDBRANCH  11  13
ENDBRANCH   1  11
TORSDOF 5
ENDMDL
MODEL 8
REMARK VINA RESULT:      -5.7      2.508      3.578
REMARK  Name = 
REMARK  7 active torsions:
REMARK  status: ('A' for Active; 'I' for Inactive)
REMARK    1  A    between atoms: C_1  and  C_2
REMARK    2  A    between atoms: C_2  and  N_3
REMARK    3  A    between atoms: C_4  and  C_6
REMARK    4  A    between atoms: C_6  and  N_7
REMARK    5  A    between atoms: N_7  and  C_8
REMARK    6  A    between atoms: C_8  and  C_9
REMARK    7  A    between atoms: C_10  and  C_12
REMARK                            x       y       z     vdW  Elec       q    Type
REMARK                         _______ _______ _______ _____ _____    ______ ____
ROOT
ATOM      1  N   UNL     1       5.883   4.659  17.541  0.00  0.00    +0.000 N 
ATOM      2  C   UNL     1       5.093   4.665  18.700  0.00  0.00    +0.000 C 
ATOM      3  O   UNL     1       5.357   5.432  19.627  0.00  0.00    +0.000 OA
ENDROOT
BRANCH   2   4
ATOM      4  C   UNL     1       3.892   3.819  18.761  0.00  0.00    +0.000 A 
ATOM      5  C   UNL     1       3.774   2.408  19.025  0.00  0.00    +0.000 A 
ATOM      6  C   UNL     1       2.490   1.931  18.856  0.00  0.00    +0.000 A 
ATOM      7  S   UNL     1       1.385   3.192  18.555  0.00  0.00    +0.000 S 
ATOM      8  C   UNL     1       2.628   4.365  18.602  0.00  0.00    +0.000 A 
ENDBRANCH   2   4
BRANCH   1   9
ATOM      9  C   UNL     1       5.523   3.913  16.329  0.00  0.00    +0.000 C 
ATOM     10  C   UNL     1       5.640   4.599  14.983  0.00  0.00    +0.000 C 
ENDBRANCH   1   9
BRANCH   1  11
ATOM     11  C   UNL     1       7.175   5.355  17.617  0.00  0.00    +0.000 C 
BRANCH  11  13
ATOM     12  N   UNL     1       8.074   7.605  18.223  0.00  0.00    +0.000 N 
ATOM     13  C   UNL     1       7.164   6.890  17.464  0.00  0.00    +0.000 C 
ATOM     14  O   UNL     1       6.481   7.423  16.593  0.00  0.00    +0.000 OA
ATOM     15  H   UNL     1       8.876   7.076  18.564  0.00  0.00    +0.000 HD
BRANCH  12  17
ATOM     16  C   UNL     1       9.031   9.767  19.003  0.00  0.00    +0.000 C 
ATOM     17  C   UNL     1       8.245   9.021  17.942  0.00  0.00    +0.000 C 
ENDBRANCH  12  17
ENDBRANCH  11  13
ENDBRANCH   1  11
TORSDOF 5
ENDMDL
MODEL 9
REMARK VINA RESULT:      -5.7      2.687      3.761
REMARK  Name = 
REMARK  7 active torsions:
REMARK  status: ('A' for Active; 'I' for Inactive)
REMARK    1  A    between atoms: C_1  and  C_2
REMARK    2  A    between atoms: C_2  and  N_3
REMARK    3  A    between atoms: C_4  and  C_6
REMARK    4  A    between atoms: C_6  and  N_7
REMARK    5  A    between atoms: N_7  and  C_8
REMARK    6  A    between atoms: C_8  and  C_9
REMARK    7  A    between atoms: C_10  and  C_12
REMARK                            x       y       z     vdW  Elec       q    Type
REMARK                         _______ _______ _______ _____ _____    ______ ____
ROOT
ATOM      1  N   UNL     1       5.064   5.292  16.647  0.00  0.00    +0.000 N 
ATOM      2  C   UNL     1       4.018   5.556  17.544  0.00  0.00    +0.000 C 
ATOM      3  O   UNL     1       3.698   6.717  17.799  0.00  0.00    +0.000 OA
ENDROOT
BRANCH   2   4
ATOM      4  C   UNL     1       3.246   4.437  18.103  0.00  0.00    +0.000 A 
ATOM      5  C   UNL     1       2.083   3.770  17.577  0.00  0.00    +0.000 A 
ATOM      6  C   UNL     1       1.543   2.853  18.455  0.00  0.00    +0.000 A 
ATOM      7  S   UNL     1       2.518   2.653  19.837  0.00  0.00    +0.000 S 
ATOM      8  C   UNL     1       3.633   3.826  19.285  0.00  0.00    +0.000 A 
ENDBRANCH   2   4
BRANCH   1   9
ATOM      9  C   UNL     1       5.377   3.945  16.153  0.00  0.00    +0.000 C 
ATOM     10  C   UNL     1       6.053   3.795  14.806  0.00  0.00    +0.000 C 
ENDBRANCH   1   9
BRANCH   1  11
ATOM     11  C   UNL     1       5.931   6.424  16.289  0.00  0.00    +0.000 C 
BRANCH  11  13
ATOM     12  N   UNL     1       7.486   8.085  17.318  0.00  0.00    +0.000 N 
ATOM     13  C   UNL     1       7.092   6.760  17.248  0.00  0.00    +0.000 C 
ATOM     14  O   UNL     1       7.529   5.908  18.018  0.00  0.00    +0.000 OA
ATOM     15  H   UNL     1       6.799   8.767  17.000  0.00  0.00    +0.000 HD
BRANCH  12  17
ATOM     16  C   UNL     1       8.788   9.943  18.343  0.00  0.00    +0.000 C 
ATOM     17  C   UNL     1       8.416   8.473  18.366  0.00  0.00    +0.000 C 
ENDBRANCH  12  17
ENDBRANCH  11  13
ENDBRANCH   1  11
TORSDOF 5
ENDMDL
