MODEL 1
REMARK VINA RESULT:      -7.0      0.000      0.000
REMARK  Name = 
REMARK  3 active torsions:
REMARK  status: ('A' for Active; 'I' for Inactive)
REMARK    1  A    between atoms: C_1  and  N_2
REMARK    2  A    between atoms: C_5  and  C_6
REMARK    3  A    between atoms: N_8  and  C_9
REMARK                            x       y       z     vdW  Elec       q    Type
REMARK                         _______ _______ _______ _____ _____    ______ ____
ROOT
ATOM      1  C   UNL     1       4.484   2.945  19.566  0.00  0.00    +0.000 C 
ATOM      2  N   UNL     1       4.230   4.213  18.909  0.00  0.00    +0.000 N 
ATOM      3  C   UNL     1       2.984   4.763  18.564  0.00  0.00    +0.000 C 
ATOM      4  S   UNL     1       1.470   4.113  18.812  0.00  0.00    +0.000 S 
ATOM      5  C   UNL     1       3.244   6.088  17.837  0.00  0.00    +0.000 C 
ATOM      6  C   UNL     1       4.749   6.157  17.816  0.00  0.00    +0.000 A 
ATOM      7  C   UNL     1       5.573   7.125  17.265  0.00  0.00    +0.000 A 
ATOM      8  C   UNL     1       6.952   6.951  17.378  0.00  0.00    +0.000 A 
ATOM      9  C   UNL     1       7.481   5.822  18.026  0.00  0.00    +0.000 A 
ATOM     10  C   UNL     1       6.640   4.848  18.571  0.00  0.00    +0.000 A 
ATOM     11  C   UNL     1       5.275   5.035  18.455  0.00  0.00    +0.000 A 
ENDROOT
BRANCH   5  12
ATOM     12  C   UNL     1       2.589   7.298  18.478  0.00  0.00    +0.000 C 
ATOM     13  O   UNL     1       2.433   7.317  19.700  0.00  0.00    +0.000 OA
ATOM     14  N   UNL     1       2.173   8.291  17.598  0.00  0.00    +0.000 N 
ATOM     15  H   UNL     1       2.170   8.064  16.611  0.00  0.00    +0.000 HD
BRANCH  14  16
ATOM     16  C   UNL     1       1.547   9.503  17.963  0.00  0.00    +0.000 A 
ATOM     17  C   UNL     1       2.256  10.679  18.220  0.00  0.00    +0.000 A 
ATOM     18  C   UNL     1       1.596  11.833  18.649  0.00  0.00    +0.000 A 
ATOM     19  C   UNL     1       0.215  11.826  18.812  0.00  0.00    +0.000 A 
ATOM     20  C   UNL     1      -0.510  10.674  18.515  0.00  0.00    +0.000 A 
ATOM     21  C   UNL     1       0.151   9.519  18.079  0.00  0.00    +0.000 A 
ENDBRANCH  14  16
ENDBRANCH   5  12
TORSDOF 2
ENDMDL
MODEL 2
REMARK VINA RESULT:      -7.0      2.565      3.881
REMARK  Name = 
REMARK  3 active torsions:
REMARK  status: ('A' for Active; 'I' for Inactive)
REMARK    1  A    between atoms: C_1  and  N_2
REMARK    2  A    between atoms: C_5  and  C_6
REMARK    3  A    between atoms: N_8  and  C_9
REMARK                            x       y       z     vdW  Elec       q    Type
REMARK                         _______ _______ _______ _____ _____    ______ ____
ROOT
ATOM      1  C   UNL     1       4.498   3.835  16.394  0.00  0.00    +0.000 C 
ATOM      2  N   UNL     1       3.843   4.452  17.532  0.00  0.00    +0.000 N 
ATOM      3  C   UNL     1       4.161   5.676  18.143  0.00  0.00    +0.000 C 
ATOM      4  S   UNL     1       5.371   6.745  17.731  0.00  0.00    +0.000 S 
ATOM      5  C   UNL     1       3.220   5.859  19.340  0.00  0.00    +0.000 C 
ATOM      6  C   UNL     1       2.400   4.596  19.305  0.00  0.00    +0.000 A 
ATOM      7  C   UNL     1       1.394   4.182  20.163  0.00  0.00    +0.000 A 
ATOM      8  C   UNL     1       0.787   2.952  19.911  0.00  0.00    +0.000 A 
ATOM      9  C   UNL     1       1.192   2.161  18.824  0.00  0.00    +0.000 A 
ATOM     10  C   UNL     1       2.214   2.585  17.970  0.00  0.00    +0.000 A 
ATOM     11  C   UNL     1       2.806   3.808  18.229  0.00  0.00    +0.000 A 
ENDROOT
BRANCH   5  12
ATOM     12  C   UNL     1       2.386   7.127  19.298  0.00  0.00    +0.000 C 
ATOM     13  O   UNL     1       2.176   7.670  18.212  0.00  0.00    +0.000 OA
ATOM     14  N   UNL     1       1.954   7.601  20.531  0.00  0.00    +0.000 N 
ATOM     15  H   UNL     1       2.365   7.185  21.358  0.00  0.00    +0.000 HD
BRANCH  14  16
ATOM     16  C   UNL     1       1.165   8.754  20.739  0.00  0.00    +0.000 A 
ATOM     17  C   UNL     1       0.850   9.655  19.719  0.00  0.00    +0.000 A 
ATOM     18  C   UNL     1       0.127  10.819  19.990  0.00  0.00    +0.000 A 
ATOM     19  C   UNL     1      -0.300  11.087  21.286  0.00  0.00    +0.000 A 
ATOM     20  C   UNL     1      -0.033  10.175  22.305  0.00  0.00    +0.000 A 
ATOM     21  C   UNL     1       0.686   9.005  22.031  0.00  0.00    +0.000 A 
ENDBRANCH  14  16
ENDBRANCH   5  12
TORSDOF 2
ENDMDL
MODEL 3
REMARK VINA RESULT:      -6.9      0.119      1.081
REMARK  Name = 
REMARK  3 active torsions:
REMARK  status: ('A' for Active; 'I' for Inactive)
REMARK    1  A    between atoms: C_1  and  N_2
REMARK    2  A    between atoms: C_5  and  C_6
REMARK    3  A    between atoms: N_8  and  C_9
REMARK                            x       y       z     vdW  Elec       q    Type
REMARK                         _______ _______ _______ _____ _____    ______ ____
ROOT
ATOM      1  C   UNL     1       4.499   2.913  19.598  0.00  0.00    +0.000 C 
ATOM      2  N   UNL     1       4.215   4.177  18.943  0.00  0.00    +0.000 N 
ATOM      3  C   UNL     1       2.956   4.710  18.623  0.00  0.00    +0.000 C 
ATOM      4  S   UNL     1       1.455   4.041  18.902  0.00  0.00    +0.000 S 
ATOM      5  C   UNL     1       3.184   6.037  17.888  0.00  0.00    +0.000 C 
ATOM      6  C   UNL     1       4.687   6.125  17.837  0.00  0.00    +0.000 A 
ATOM      7  C   UNL     1       5.487   7.102  17.267  0.00  0.00    +0.000 A 
ATOM      8  C   UNL     1       6.870   6.946  17.353  0.00  0.00    +0.000 A 
ATOM      9  C   UNL     1       7.427   5.826  17.993  0.00  0.00    +0.000 A 
ATOM     10  C   UNL     1       6.609   4.842  18.556  0.00  0.00    +0.000 A 
ATOM     11  C   UNL     1       5.240   5.011  18.467  0.00  0.00    +0.000 A 
ENDROOT
BRANCH   5  12
ATOM     12  C   UNL     1       2.527   7.240  18.540  0.00  0.00    +0.000 C 
ATOM     13  O   UNL     1       2.344   7.235  19.759  0.00  0.00    +0.000 OA
ATOM     14  N   UNL     1       2.139   8.255  17.673  0.00  0.00    +0.000 N 
ATOM     15  H   UNL     1       2.156   8.049  16.681  0.00  0.00    +0.000 HD
BRANCH  14  16
ATOM     16  C   UNL     1       1.517   9.466  18.049  0.00  0.00    +0.000 A 
ATOM     17  C   UNL     1       0.140   9.584  18.251  0.00  0.00    +0.000 A 
ATOM     18  C   UNL     1      -0.436  10.820  18.551  0.00  0.00    +0.000 A 
ATOM     19  C   UNL     1       0.365  11.952  18.666  0.00  0.00    +0.000 A 
ATOM     20  C   UNL     1       1.745  11.840  18.512  0.00  0.00    +0.000 A 
ATOM     21  C   UNL     1       2.322  10.599  18.218  0.00  0.00    +0.000 A 
ENDBRANCH  14  16
ENDBRANCH   5  12
TORSDOF 2
ENDMDL
MODEL 4
REMARK VINA RESULT:      -6.9      1.724      1.853
REMARK  Name = 
REMARK  3 active torsions:
REMARK  status: ('A' for Active; 'I' for Inactive)
REMARK    1  A    between atoms: C_1  and  N_2
REMARK    2  A    between atoms: C_5  and  C_6
REMARK    3  A    between atoms: N_8  and  C_9
REMARK                            x       y       z     vdW  Elec       q    Type
REMARK                         _______ _______ _______ _____ _____    ______ ____
ROOT
ATOM      1  C   UNL     1       4.487   3.060  19.353  0.00  0.00    +0.000 C 
ATOM      2  N   UNL     1       4.352   4.332  18.668  0.00  0.00    +0.000 N 
ATOM      3  C   UNL     1       3.190   4.878  18.099  0.00  0.00    +0.000 C 
ATOM      4  S   UNL     1       1.660   4.219  18.054  0.00  0.00    +0.000 S 
ATOM      5  C   UNL     1       3.573   6.211  17.443  0.00  0.00    +0.000 C 
ATOM      6  C   UNL     1       5.054   6.287  17.706  0.00  0.00    +0.000 A 
ATOM      7  C   UNL     1       5.961   7.264  17.326  0.00  0.00    +0.000 A 
ATOM      8  C   UNL     1       7.295   7.096  17.694  0.00  0.00    +0.000 A 
ATOM      9  C   UNL     1       7.701   5.965  18.423  0.00  0.00    +0.000 A 
ATOM     10  C   UNL     1       6.778   4.982  18.793  0.00  0.00    +0.000 A 
ATOM     11  C   UNL     1       5.458   5.163  18.424  0.00  0.00    +0.000 A 
ENDROOT
BRANCH   5  12
ATOM     12  C   UNL     1       2.802   7.413  17.958  0.00  0.00    +0.000 C 
ATOM     13  O   UNL     1       2.647   8.386  17.218  0.00  0.00    +0.000 OA
ATOM     14  N   UNL     1       2.361   7.324  19.274  0.00  0.00    +0.000 N 
ATOM     15  H   UNL     1       2.730   6.566  19.836  0.00  0.00    +0.000 HD
BRANCH  14  16
ATOM     16  C   UNL     1       1.623   8.312  19.963  0.00  0.00    +0.000 A 
ATOM     17  C   UNL     1       1.100   9.446  19.337  0.00  0.00    +0.000 A 
ATOM     18  C   UNL     1       0.440  10.430  20.076  0.00  0.00    +0.000 A 
ATOM     19  C   UNL     1       0.285  10.283  21.451  0.00  0.00    +0.000 A 
ATOM     20  C   UNL     1       0.762   9.135  22.080  0.00  0.00    +0.000 A 
ATOM     21  C   UNL     1       1.418   8.146  21.338  0.00  0.00    +0.000 A 
ENDBRANCH  14  16
ENDBRANCH   5  12
TORSDOF 2
ENDMDL
MODEL 5
REMARK VINA RESULT:      -6.8      2.467      3.800
REMARK  Name = 
REMARK  3 active torsions:
REMARK  status: ('A' for Active; 'I' for Inactive)
REMARK    1  A    between atoms: C_1  and  N_2
REMARK    2  A    between atoms: C_5  and  C_6
REMARK    3  A    between atoms: N_8  and  C_9
REMARK                            x       y       z     vdW  Elec       q    Type
REMARK                         _______ _______ _______ _____ _____    ______ ____
ROOT
ATOM      1  C   UNL     1       4.727   3.771  16.319  0.00  0.00    +0.000 C 
ATOM      2  N   UNL     1       4.043   4.389  17.439  0.00  0.00    +0.000 N 
ATOM      3  C   UNL     1       4.348   5.613  18.059  0.00  0.00    +0.000 C 
ATOM      4  S   UNL     1       5.571   6.679  17.680  0.00  0.00    +0.000 S 
ATOM      5  C   UNL     1       3.375   5.799  19.229  0.00  0.00    +0.000 C 
ATOM      6  C   UNL     1       2.552   4.538  19.171  0.00  0.00    +0.000 A 
ATOM      7  C   UNL     1       1.522   4.126  20.001  0.00  0.00    +0.000 A 
ATOM      8  C   UNL     1       0.918   2.898  19.733  0.00  0.00    +0.000 A 
ATOM      9  C   UNL     1       1.352   2.105  18.657  0.00  0.00    +0.000 A 
ATOM     10  C   UNL     1       2.398   2.527  17.832  0.00  0.00    +0.000 A 
ATOM     11  C   UNL     1       2.985   3.748  18.107  0.00  0.00    +0.000 A 
ENDROOT
BRANCH   5  12
ATOM     12  C   UNL     1       2.545   7.068  19.164  0.00  0.00    +0.000 C 
ATOM     13  O   UNL     1       2.378   7.620  18.075  0.00  0.00    +0.000 OA
ATOM     14  N   UNL     1       2.067   7.535  20.383  0.00  0.00    +0.000 N 
ATOM     15  H   UNL     1       2.445   7.112  21.223  0.00  0.00    +0.000 HD
BRANCH  14  16
ATOM     16  C   UNL     1       1.273   8.688  20.569  0.00  0.00    +0.000 A 
ATOM     17  C   UNL     1       0.762   9.070  21.812  0.00  0.00    +0.000 A 
ATOM     18  C   UNL     1      -0.079  10.179  21.930  0.00  0.00    +0.000 A 
ATOM     19  C   UNL     1      -0.407  10.927  20.804  0.00  0.00    +0.000 A 
ATOM     20  C   UNL     1       0.132  10.585  19.566  0.00  0.00    +0.000 A 
ATOM     21  C   UNL     1       0.980   9.477  19.449  0.00  0.00    +0.000 A 
ENDBRANCH  14  16
ENDBRANCH   5  12
TORSDOF 2
ENDMDL
MODEL 6
REMARK VINA RESULT:      -6.8      4.293      6.745
REMARK  Name = 
REMARK  3 active torsions:
REMARK  status: ('A' for Active; 'I' for Inactive)
REMARK    1  A    between atoms: C_1  and  N_2
REMARK    2  A    between atoms: C_5  and  C_6
REMARK    3  A    between atoms: N_8  and  C_9
REMARK                            x       y       z     vdW  Elec       q    Type
REMARK                         _______ _______ _______ _____ _____    ______ ____
ROOT
ATOM      1  C   UNL     1       7.523   5.465  19.971  0.00  0.00    +0.000 C 
ATOM      2  N   UNL     1       6.525   5.676  18.939  0.00  0.00    +0.000 N 
ATOM      3  C   UNL     1       6.544   6.635  17.913  0.00  0.00    +0.000 C 
ATOM      4  S   UNL     1       7.709   7.786  17.605  0.00  0.00    +0.000 S 
ATOM      5  C   UNL     1       5.241   6.495  17.118  0.00  0.00    +0.000 C 
ATOM      6  C   UNL     1       4.531   5.385  17.850  0.00  0.00    +0.000 A 
ATOM      7  C   UNL     1       3.286   4.831  17.605  0.00  0.00    +0.000 A 
ATOM      8  C   UNL     1       2.851   3.804  18.442  0.00  0.00    +0.000 A 
ATOM      9  C   UNL     1       3.655   3.355  19.503  0.00  0.00    +0.000 A 
ATOM     10  C   UNL     1       4.906   3.928  19.746  0.00  0.00    +0.000 A 
ATOM     11  C   UNL     1       5.326   4.943  18.907  0.00  0.00    +0.000 A 
ENDROOT
BRANCH   5  12
ATOM     12  C   UNL     1       5.431   6.221  15.637  0.00  0.00    +0.000 C 
ATOM     13  O   UNL     1       4.989   7.029  14.818  0.00  0.00    +0.000 OA
ATOM     14  N   UNL     1       6.069   5.026  15.326  0.00  0.00    +0.000 N 
ATOM     15  H   UNL     1       6.196   4.358  16.076  0.00  0.00    +0.000 HD
BRANCH  14  16
ATOM     16  C   UNL     1       6.359   4.564  14.023  0.00  0.00    +0.000 A 
ATOM     17  C   UNL     1       7.427   5.048  13.263  0.00  0.00    +0.000 A 
ATOM     18  C   UNL     1       7.628   4.612  11.952  0.00  0.00    +0.000 A 
ATOM     19  C   UNL     1       6.768   3.673  11.390  0.00  0.00    +0.000 A 
ATOM     20  C   UNL     1       5.726   3.148  12.152  0.00  0.00    +0.000 A 
ATOM     21  C   UNL     1       5.529   3.582  13.469  0.00  0.00    +0.000 A 
ENDBRANCH  14  16
ENDBRANCH   5  12
TORSDOF 2
ENDMDL
MODEL 7
REMARK VINA RESULT:      -6.8      4.255      6.797
REMARK  Name = 
REMARK  3 active torsions:
REMARK  status: ('A' for Active; 'I' for Inactive)
REMARK    1  A    between atoms: C_1  and  N_2
REMARK    2  A    between atoms: C_5  and  C_6
REMARK    3  A    between atoms: N_8  and  C_9
REMARK                            x       y       z     vdW  Elec       q    Type
REMARK                         _______ _______ _______ _____ _____    ______ ____
ROOT
ATOM      1  C   UNL     1       7.564   5.432  19.933  0.00  0.00    +0.000 C 
ATOM      2  N   UNL     1       6.541   5.674  18.932  0.00  0.00    +0.000 N 
ATOM      3  C   UNL     1       6.559   6.633  17.906  0.00  0.00    +0.000 C 
ATOM      4  S   UNL     1       7.749   7.747  17.560  0.00  0.00    +0.000 S 
ATOM      5  C   UNL     1       5.227   6.534  17.152  0.00  0.00    +0.000 C 
ATOM      6  C   UNL     1       4.506   5.447  17.907  0.00  0.00    +0.000 A 
ATOM      7  C   UNL     1       3.237   4.932  17.701  0.00  0.00    +0.000 A 
ATOM      8  C   UNL     1       2.796   3.919  18.552  0.00  0.00    +0.000 A 
ATOM      9  C   UNL     1       3.619   3.445  19.588  0.00  0.00    +0.000 A 
ATOM     10  C   UNL     1       4.894   3.978  19.791  0.00  0.00    +0.000 A 
ATOM     11  C   UNL     1       5.320   4.980  18.938  0.00  0.00    +0.000 A 
ENDROOT
BRANCH   5  12
ATOM     12  C   UNL     1       5.362   6.254  15.666  0.00  0.00    +0.000 C 
ATOM     13  O   UNL     1       4.946   7.089  14.860  0.00  0.00    +0.000 OA
ATOM     14  N   UNL     1       5.921   5.026  15.335  0.00  0.00    +0.000 N 
ATOM     15  H   UNL     1       6.028   4.349  16.081  0.00  0.00    +0.000 HD
BRANCH  14  16
ATOM     16  C   UNL     1       6.149   4.552  14.024  0.00  0.00    +0.000 A 
ATOM     17  C   UNL     1       5.287   3.664  13.374  0.00  0.00    +0.000 A 
ATOM     18  C   UNL     1       5.596   3.169  12.106  0.00  0.00    +0.000 A 
ATOM     19  C   UNL     1       6.765   3.567  11.467  0.00  0.00    +0.000 A 
ATOM     20  C   UNL     1       7.610   4.487  12.084  0.00  0.00    +0.000 A 
ATOM     21  C   UNL     1       7.298   4.988  13.353  0.00  0.00    +0.000 A 
ENDBRANCH  14  16
ENDBRANCH   5  12
TORSDOF 2
ENDMDL
MODEL 8
REMARK VINA RESULT:      -6.8      4.111      6.615
REMARK  Name = 
REMARK  3 active torsions:
REMARK  status: ('A' for Active; 'I' for Inactive)
REMARK    1  A    between atoms: C_1  and  N_2
REMARK    2  A    between atoms: C_5  and  C_6
REMARK    3  A    between atoms: N_8  and  C_9
REMARK                            x       y       z     vdW  Elec       q    Type
REMARK                         _______ _______ _______ _____ _____    ______ ____
ROOT
ATOM      1  C   UNL     1       5.223   2.531  20.395  0.00  0.00    +0.000 C 
ATOM      2  N   UNL     1       4.713   3.508  19.450  0.00  0.00    +0.000 N 
ATOM      3  C   UNL     1       5.381   4.633  18.939  0.00  0.00    +0.000 C 
ATOM      4  S   UNL     1       6.928   5.150  19.276  0.00  0.00    +0.000 S 
ATOM      5  C   UNL     1       4.403   5.381  18.025  0.00  0.00    +0.000 C 
ATOM      6  C   UNL     1       3.153   4.546  18.135  0.00  0.00    +0.000 A 
ATOM      7  C   UNL     1       1.915   4.743  17.545  0.00  0.00    +0.000 A 
ATOM      8  C   UNL     1       0.908   3.816  17.813  0.00  0.00    +0.000 A 
ATOM      9  C   UNL     1       1.149   2.722  18.662  0.00  0.00    +0.000 A 
ATOM     10  C   UNL     1       2.399   2.539  19.259  0.00  0.00    +0.000 A 
ATOM     11  C   UNL     1       3.389   3.464  18.981  0.00  0.00    +0.000 A 
ENDROOT
BRANCH   5  12
ATOM     12  C   UNL     1       4.887   5.565  16.598  0.00  0.00    +0.000 C 
ATOM     13  O   UNL     1       4.769   6.669  16.064  0.00  0.00    +0.000 OA
ATOM     14  N   UNL     1       5.398   4.426  15.987  0.00  0.00    +0.000 N 
ATOM     15  H   UNL     1       5.249   3.541  16.456  0.00  0.00    +0.000 HD
BRANCH  14  16
ATOM     16  C   UNL     1       5.909   4.358  14.672  0.00  0.00    +0.000 A 
ATOM     17  C   UNL     1       5.296   3.625  13.653  0.00  0.00    +0.000 A 
ATOM     18  C   UNL     1       5.881   3.529  12.389  0.00  0.00    +0.000 A 
ATOM     19  C   UNL     1       7.083   4.179  12.126  0.00  0.00    +0.000 A 
ATOM     20  C   UNL     1       7.682   4.951  13.119  0.00  0.00    +0.000 A 
ATOM     21  C   UNL     1       7.091   5.052  14.385  0.00  0.00    +0.000 A 
ENDBRANCH  14  16
ENDBRANCH   5  12
TORSDOF 2
ENDMDL
MODEL 9
REMARK VINA RESULT:      -6.8      1.684      1.835
REMARK  Name = 
REMARK  3 active torsions:
REMARK  status: ('A' for Active; 'I' for Inactive)
REMARK    1  A    between atoms: C_1  and  N_2
REMARK    2  A    between atoms: C_5  and  C_6
REMARK    3  A    between atoms: N_8  and  C_9
REMARK                            x       y       z     vdW  Elec       q    Type
REMARK                         _______ _______ _______ _____ _____    ______ ____
ROOT
ATOM      1  C   UNL     1       4.475   3.080  19.462  0.00  0.00    +0.000 C 
ATOM      2  N   UNL     1       4.323   4.339  18.756  0.00  0.00    +0.000 N 
ATOM      3  C   UNL     1       3.143   4.881  18.220  0.00  0.00    +0.000 C 
ATOM      4  S   UNL     1       1.609   4.232  18.245  0.00  0.00    +0.000 S 
ATOM      5  C   UNL     1       3.510   6.197  17.522  0.00  0.00    +0.000 C 
ATOM      6  C   UNL     1       5.001   6.269  17.727  0.00  0.00    +0.000 A 
ATOM      7  C   UNL     1       5.899   7.230  17.293  0.00  0.00    +0.000 A 
ATOM      8  C   UNL     1       7.245   7.060  17.615  0.00  0.00    +0.000 A 
ATOM      9  C   UNL     1       7.670   5.942  18.352  0.00  0.00    +0.000 A 
ATOM     10  C   UNL     1       6.756   4.974  18.777  0.00  0.00    +0.000 A 
ATOM     11  C   UNL     1       5.424   5.157  18.454  0.00  0.00    +0.000 A 
ENDROOT
BRANCH   5  12
ATOM     12  C   UNL     1       2.766   7.415  18.040  0.00  0.00    +0.000 C 
ATOM     13  O   UNL     1       2.650   8.400  17.309  0.00  0.00    +0.000 OA
ATOM     14  N   UNL     1       2.306   7.324  19.348  0.00  0.00    +0.000 N 
ATOM     15  H   UNL     1       2.644   6.550  19.907  0.00  0.00    +0.000 HD
BRANCH  14  16
ATOM     16  C   UNL     1       1.587   8.326  20.038  0.00  0.00    +0.000 A 
ATOM     17  C   UNL     1       1.400   8.312  21.423  0.00  0.00    +0.000 A 
ATOM     18  C   UNL     1       0.619   9.286  22.049  0.00  0.00    +0.000 A 
ATOM     19  C   UNL     1       0.026  10.294  21.295  0.00  0.00    +0.000 A 
ATOM     20  C   UNL     1       0.242  10.346  19.920  0.00  0.00    +0.000 A 
ATOM     21  C   UNL     1       1.030   9.373  19.294  0.00  0.00    +0.000 A 
ENDBRANCH  14  16
ENDBRANCH   5  12
TORSDOF 2
ENDMDL
