MODEL 1
REMARK VINA RESULT:      -6.1      0.000      0.000
REMARK  Name = 
REMARK  12 active torsions:
REMARK  status: ('A' for Active; 'I' for Inactive)
REMARK    1  A    between atoms: C_1  and  C_2
REMARK    2  A    between atoms: C_2  and  C_10
REMARK    3  A    between atoms: C_3  and  C_4
REMARK    4  A    between atoms: C_10  and  N_11
REMARK    5  A    between atoms: N_11  and  C_12
REMARK    6  A    between atoms: N_11  and  S_13
REMARK    7  A    between atoms: S_13  and  N_16
REMARK    8  A    between atoms: N_16  and  C_17
REMARK    9  A    between atoms: N_16  and  C_18
REMARK   10  A    between atoms: C_18  and  C_19
REMARK   11  A    between atoms: C_18  and  C_20
REMARK   12  A    between atoms: C_20  and  C_21
REMARK                            x       y       z     vdW  Elec       q    Type
REMARK                         _______ _______ _______ _____ _____    ______ ____
ROOT
ATOM      1  N   UNL     1       5.648   5.036  16.330  0.00  0.00    +0.000 NA
ATOM      2  C   UNL     1       5.446   4.543  14.937  0.00  0.00    +0.000 C 
ENDROOT
BRANCH   1   3
ATOM      3  S   UNL     1       7.292   5.382  16.587  0.00  0.00    +0.000 S 
ATOM      4  O   UNL     1       7.934   4.169  17.029  0.00  0.00    +0.000 OA
ATOM      5  O   UNL     1       7.769   6.077  15.412  0.00  0.00    +0.000 OA
BRANCH   3   6
ATOM      6  N   UNL     1       7.276   6.469  17.891  0.00  0.00    +0.000 NA
ATOM      7  C   UNL     1       7.771   5.896  19.172  0.00  0.00    +0.000 C 
BRANCH   6   8
ATOM      8  C   UNL     1       7.840   7.856  17.647  0.00  0.00    +0.000 C 
ATOM      9  C   UNL     1       6.759   8.871  17.267  0.00  0.00    +0.000 C 
BRANCH   8  10
ATOM     10  C   UNL     1       8.684   8.391  18.811  0.00  0.00    +0.000 C 
BRANCH  10  11
ATOM     11  C   UNL     1       8.937   9.882  18.650  0.00  0.00    +0.000 C 
ATOM     12  N   UNL     1       9.147  11.118  18.518  0.00  0.00    +0.000 NA
ENDBRANCH  10  11
ENDBRANCH   8  10
ENDBRANCH   6   8
ENDBRANCH   3   6
ENDBRANCH   1   3
BRANCH   1  13
ATOM     13  C   UNL     1       4.740   6.163  16.674  0.00  0.00    +0.000 C 
BRANCH  13  15
ATOM     14  C   UNL     1       2.667   6.773  18.066  0.00  0.00    +0.000 C 
ATOM     15  C   UNL     1       3.772   5.787  17.789  0.00  0.00    +0.000 C 
ATOM     16  C   UNL     1       3.897   4.593  18.408  0.00  0.00    +0.000 C 
BRANCH  16  17
ATOM     17  C   UNL     1       2.930   4.003  19.338  0.00  0.00    +0.000 A 
ATOM     18  C   UNL     1       1.797   3.380  18.802  0.00  0.00    +0.000 A 
ATOM     19  C   UNL     1       0.846   2.792  19.639  0.00  0.00    +0.000 A 
ATOM     20  C   UNL     1       1.026   2.823  21.020  0.00  0.00    +0.000 A 
ATOM     21  C   UNL     1       2.154   3.443  21.563  0.00  0.00    +0.000 A 
ATOM     22  C   UNL     1       3.107   4.031  20.725  0.00  0.00    +0.000 A 
ENDBRANCH  16  17
ENDBRANCH  13  15
ENDBRANCH   1  13
TORSDOF 8
ENDMDL
MODEL 2
REMARK VINA RESULT:      -6.0      2.135      7.625
REMARK  Name = 
REMARK  12 active torsions:
REMARK  status: ('A' for Active; 'I' for Inactive)
REMARK    1  A    between atoms: C_1  and  C_2
REMARK    2  A    between atoms: C_2  and  C_10
REMARK    3  A    between atoms: C_3  and  C_4
REMARK    4  A    between atoms: C_10  and  N_11
REMARK    5  A    between atoms: N_11  and  C_12
REMARK    6  A    between atoms: N_11  and  S_13
REMARK    7  A    between atoms: S_13  and  N_16
REMARK    8  A    between atoms: N_16  and  C_17
REMARK    9  A    between atoms: N_16  and  C_18
REMARK   10  A    between atoms: C_18  and  C_19
REMARK   11  A    between atoms: C_18  and  C_20
REMARK   12  A    between atoms: C_20  and  C_21
REMARK                            x       y       z     vdW  Elec       q    Type
REMARK                         _______ _______ _______ _____ _____    ______ ____
ROOT
ATOM      1  N   UNL     1       5.814   6.713  17.706  0.00  0.00    +0.000 NA
ATOM      2  C   UNL     1       4.543   7.101  17.030  0.00  0.00    +0.000 C 
ENDROOT
BRANCH   1   3
ATOM      3  S   UNL     1       5.862   5.028  17.924  0.00  0.00    +0.000 S 
ATOM      4  O   UNL     1       6.432   4.447  16.734  0.00  0.00    +0.000 OA
ATOM      5  O   UNL     1       6.459   4.783  19.217  0.00  0.00    +0.000 OA
BRANCH   3   6
ATOM      6  N   UNL     1       4.224   4.584  17.989  0.00  0.00    +0.000 NA
ATOM      7  C   UNL     1       3.846   3.497  17.045  0.00  0.00    +0.000 C 
BRANCH   6   8
ATOM      8  C   UNL     1       3.618   4.365  19.362  0.00  0.00    +0.000 C 
ATOM      9  C   UNL     1       2.433   5.295  19.636  0.00  0.00    +0.000 C 
BRANCH   8  10
ATOM     10  C   UNL     1       3.223   2.908  19.636  0.00  0.00    +0.000 C 
BRANCH  10  11
ATOM     11  C   UNL     1       4.327   2.185  20.391  0.00  0.00    +0.000 C 
ATOM     12  N   UNL     1       5.243   1.586  21.017  0.00  0.00    +0.000 NA
ENDBRANCH  10  11
ENDBRANCH   8  10
ENDBRANCH   6   8
ENDBRANCH   3   6
ENDBRANCH   1   3
BRANCH   1  13
ATOM     13  C   UNL     1       7.016   7.261  17.021  0.00  0.00    +0.000 C 
BRANCH  13  15
ATOM     14  C   UNL     1       8.580   7.267  19.060  0.00  0.00    +0.000 C 
ATOM     15  C   UNL     1       7.895   8.057  17.976  0.00  0.00    +0.000 C 
ATOM     16  C   UNL     1       8.076   9.380  17.772  0.00  0.00    +0.000 C 
BRANCH  16  17
ATOM     17  C   UNL     1       9.048  10.231  18.466  0.00  0.00    +0.000 A 
ATOM     18  C   UNL     1       8.913  10.392  19.850  0.00  0.00    +0.000 A 
ATOM     19  C   UNL     1       9.814  11.183  20.565  0.00  0.00    +0.000 A 
ATOM     20  C   UNL     1      10.860  11.817  19.897  0.00  0.00    +0.000 A 
ATOM     21  C   UNL     1      11.001  11.662  18.517  0.00  0.00    +0.000 A 
ATOM     22  C   UNL     1      10.100  10.869  17.800  0.00  0.00    +0.000 A 
ENDBRANCH  16  17
ENDBRANCH  13  15
ENDBRANCH   1  13
TORSDOF 8
ENDMDL
MODEL 3
REMARK VINA RESULT:      -5.9      3.169      5.745
REMARK  Name = 
REMARK  12 active torsions:
REMARK  status: ('A' for Active; 'I' for Inactive)
REMARK    1  A    between atoms: C_1  and  C_2
REMARK    2  A    between atoms: C_2  and  C_10
REMARK    3  A    between atoms: C_3  and  C_4
REMARK    4  A    between atoms: C_10  and  N_11
REMARK    5  A    between atoms: N_11  and  C_12
REMARK    6  A    between atoms: N_11  and  S_13
REMARK    7  A    between atoms: S_13  and  N_16
REMARK    8  A    between atoms: N_16  and  C_17
REMARK    9  A    between atoms: N_16  and  C_18
REMARK   10  A    between atoms: C_18  and  C_19
REMARK   11  A    between atoms: C_18  and  C_20
REMARK   12  A    between atoms: C_20  and  C_21
REMARK                            x       y       z     vdW  Elec       q    Type
REMARK                         _______ _______ _______ _____ _____    ______ ____
ROOT
ATOM      1  N   UNL     1       3.912   5.620  18.949  0.00  0.00    +0.000 NA
ATOM      2  C   UNL     1       2.926   4.504  18.869  0.00  0.00    +0.000 C 
ENDROOT
BRANCH   1   3
ATOM      3  S   UNL     1       5.492   5.003  18.835  0.00  0.00    +0.000 S 
ATOM      4  O   UNL     1       6.307   5.700  19.799  0.00  0.00    +0.000 OA
ATOM      5  O   UNL     1       5.389   3.561  18.871  0.00  0.00    +0.000 OA
BRANCH   3   6
ATOM      6  N   UNL     1       5.998   5.473  17.284  0.00  0.00    +0.000 NA
ATOM      7  C   UNL     1       7.228   6.310  17.269  0.00  0.00    +0.000 C 
BRANCH   6   8
ATOM      8  C   UNL     1       6.040   4.401  16.212  0.00  0.00    +0.000 C 
ATOM      9  C   UNL     1       4.650   4.049  15.677  0.00  0.00    +0.000 C 
BRANCH   8  10
ATOM     10  C   UNL     1       6.988   4.728  15.052  0.00  0.00    +0.000 C 
BRANCH  10  11
ATOM     11  C   UNL     1       6.517   4.063  13.768  0.00  0.00    +0.000 C 
ATOM     12  N   UNL     1       6.124   3.512  12.704  0.00  0.00    +0.000 NA
ENDBRANCH  10  11
ENDBRANCH   8  10
ENDBRANCH   6   8
ENDBRANCH   3   6
ENDBRANCH   1   3
BRANCH   1  13
ATOM     13  C   UNL     1       3.625   6.707  17.975  0.00  0.00    +0.000 C 
BRANCH  13  15
ATOM     14  C   UNL     1       2.144   7.481  19.927  0.00  0.00    +0.000 C 
ATOM     15  C   UNL     1       2.539   7.647  18.483  0.00  0.00    +0.000 C 
ATOM     16  C   UNL     1       2.048   8.605  17.667  0.00  0.00    +0.000 C 
BRANCH  16  17
ATOM     17  C   UNL     1       1.168   9.706  18.069  0.00  0.00    +0.000 A 
ATOM     18  C   UNL     1      -0.210   9.552  17.876  0.00  0.00    +0.000 A 
ATOM     19  C   UNL     1      -1.098  10.563  18.247  0.00  0.00    +0.000 A 
ATOM     20  C   UNL     1      -0.610  11.737  18.817  0.00  0.00    +0.000 A 
ATOM     21  C   UNL     1       0.764  11.899  19.012  0.00  0.00    +0.000 A 
ATOM     22  C   UNL     1       1.653  10.886  18.641  0.00  0.00    +0.000 A 
ENDBRANCH  16  17
ENDBRANCH  13  15
ENDBRANCH   1  13
TORSDOF 8
ENDMDL
MODEL 4
REMARK VINA RESULT:      -5.8      2.231      7.853
REMARK  Name = 
REMARK  12 active torsions:
REMARK  status: ('A' for Active; 'I' for Inactive)
REMARK    1  A    between atoms: C_1  and  C_2
REMARK    2  A    between atoms: C_2  and  C_10
REMARK    3  A    between atoms: C_3  and  C_4
REMARK    4  A    between atoms: C_10  and  N_11
REMARK    5  A    between atoms: N_11  and  C_12
REMARK    6  A    between atoms: N_11  and  S_13
REMARK    7  A    between atoms: S_13  and  N_16
REMARK    8  A    between atoms: N_16  and  C_17
REMARK    9  A    between atoms: N_16  and  C_18
REMARK   10  A    between atoms: C_18  and  C_19
REMARK   11  A    between atoms: C_18  and  C_20
REMARK   12  A    between atoms: C_20  and  C_21
REMARK                            x       y       z     vdW  Elec       q    Type
REMARK                         _______ _______ _______ _____ _____    ______ ____
ROOT
ATOM      1  N   UNL     1       5.902   6.853  17.505  0.00  0.00    +0.000 NA
ATOM      2  C   UNL     1       4.803   7.015  16.510  0.00  0.00    +0.000 C 
ENDROOT
BRANCH   1   3
ATOM      3  S   UNL     1       5.900   5.266  18.115  0.00  0.00    +0.000 S 
ATOM      4  O   UNL     1       7.050   4.585  17.573  0.00  0.00    +0.000 OA
ATOM      5  O   UNL     1       5.711   5.360  19.544  0.00  0.00    +0.000 OA
BRANCH   3   6
ATOM      6  N   UNL     1       4.511   4.573  17.427  0.00  0.00    +0.000 NA
ATOM      7  C   UNL     1       4.789   3.507  16.427  0.00  0.00    +0.000 C 
BRANCH   6   8
ATOM      8  C   UNL     1       3.394   4.172  18.372  0.00  0.00    +0.000 C 
ATOM      9  C   UNL     1       2.089   4.919  18.091  0.00  0.00    +0.000 C 
BRANCH   8  10
ATOM     10  C   UNL     1       3.140   2.659  18.419  0.00  0.00    +0.000 C 
BRANCH  10  11
ATOM     11  C   UNL     1       1.651   2.367  18.511  0.00  0.00    +0.000 C 
ATOM     12  N   UNL     1       0.416   2.125  18.588  0.00  0.00    +0.000 NA
ENDBRANCH  10  11
ENDBRANCH   8  10
ENDBRANCH   6   8
ENDBRANCH   3   6
ENDBRANCH   1   3
BRANCH   1  13
ATOM     13  C   UNL     1       7.223   7.286  16.973  0.00  0.00    +0.000 C 
BRANCH  13  15
ATOM     14  C   UNL     1       8.581   7.304  19.154  0.00  0.00    +0.000 C 
ATOM     15  C   UNL     1       8.009   8.087  18.002  0.00  0.00    +0.000 C 
ATOM     16  C   UNL     1       8.217   9.407  17.804  0.00  0.00    +0.000 C 
BRANCH  16  17
ATOM     17  C   UNL     1       9.122  10.260  18.581  0.00  0.00    +0.000 A 
ATOM     18  C   UNL     1      10.121  10.959  17.893  0.00  0.00    +0.000 A 
ATOM     19  C   UNL     1      11.006  11.793  18.579  0.00  0.00    +0.000 A 
ATOM     20  C   UNL     1      10.894  11.935  19.960  0.00  0.00    +0.000 A 
ATOM     21  C   UNL     1       9.900  11.240  20.654  0.00  0.00    +0.000 A 
ATOM     22  C   UNL     1       9.013  10.405  19.968  0.00  0.00    +0.000 A 
ENDBRANCH  16  17
ENDBRANCH  13  15
ENDBRANCH   1  13
TORSDOF 8
ENDMDL
MODEL 5
REMARK VINA RESULT:      -5.8      3.543      6.812
REMARK  Name = 
REMARK  12 active torsions:
REMARK  status: ('A' for Active; 'I' for Inactive)
REMARK    1  A    between atoms: C_1  and  C_2
REMARK    2  A    between atoms: C_2  and  C_10
REMARK    3  A    between atoms: C_3  and  C_4
REMARK    4  A    between atoms: C_10  and  N_11
REMARK    5  A    between atoms: N_11  and  C_12
REMARK    6  A    between atoms: N_11  and  S_13
REMARK    7  A    between atoms: S_13  and  N_16
REMARK    8  A    between atoms: N_16  and  C_17
REMARK    9  A    between atoms: N_16  and  C_18
REMARK   10  A    between atoms: C_18  and  C_19
REMARK   11  A    between atoms: C_18  and  C_20
REMARK   12  A    between atoms: C_20  and  C_21
REMARK                            x       y       z     vdW  Elec       q    Type
REMARK                         _______ _______ _______ _____ _____    ______ ____
ROOT
ATOM      1  N   UNL     1       4.843   4.141  18.396  0.00  0.00    +0.000 NA
ATOM      2  C   UNL     1       5.682   4.619  19.532  0.00  0.00    +0.000 C 
ENDROOT
BRANCH   1   3
ATOM      3  S   UNL     1       3.742   2.968  18.946  0.00  0.00    +0.000 S 
ATOM      4  O   UNL     1       3.731   1.891  17.986  0.00  0.00    +0.000 OA
ATOM      5  O   UNL     1       4.055   2.708  20.333  0.00  0.00    +0.000 OA
BRANCH   3   6
ATOM      6  N   UNL     1       2.241   3.755  18.865  0.00  0.00    +0.000 NA
ATOM      7  C   UNL     1       1.281   3.149  17.903  0.00  0.00    +0.000 C 
BRANCH   6   8
ATOM      8  C   UNL     1       1.566   4.102  20.179  0.00  0.00    +0.000 C 
ATOM      9  C   UNL     1       1.272   2.866  21.033  0.00  0.00    +0.000 C 
BRANCH   8  10
ATOM     10  C   UNL     1       2.327   5.148  21.004  0.00  0.00    +0.000 C 
BRANCH  10  11
ATOM     11  C   UNL     1       2.040   6.550  20.492  0.00  0.00    +0.000 C 
ATOM     12  N   UNL     1       1.800   7.713  20.067  0.00  0.00    +0.000 NA
ENDBRANCH  10  11
ENDBRANCH   8  10
ENDBRANCH   6   8
ENDBRANCH   3   6
ENDBRANCH   1   3
BRANCH   1  13
ATOM     13  C   UNL     1       4.202   5.257  17.650  0.00  0.00    +0.000 C 
BRANCH  13  15
ATOM     14  C   UNL     1       4.942   6.821  15.750  0.00  0.00    +0.000 C 
ATOM     15  C   UNL     1       4.789   5.409  16.252  0.00  0.00    +0.000 C 
ATOM     16  C   UNL     1       5.200   4.315  15.576  0.00  0.00    +0.000 C 
BRANCH  16  17
ATOM     17  C   UNL     1       5.971   4.314  14.329  0.00  0.00    +0.000 A 
ATOM     18  C   UNL     1       5.511   3.520  13.271  0.00  0.00    +0.000 A 
ATOM     19  C   UNL     1       6.199   3.487  12.057  0.00  0.00    +0.000 A 
ATOM     20  C   UNL     1       7.351   4.252  11.893  0.00  0.00    +0.000 A 
ATOM     21  C   UNL     1       7.816   5.047  12.943  0.00  0.00    +0.000 A 
ATOM     22  C   UNL     1       7.128   5.081  14.160  0.00  0.00    +0.000 A 
ENDBRANCH  16  17
ENDBRANCH  13  15
ENDBRANCH   1  13
TORSDOF 8
ENDMDL
MODEL 6
REMARK VINA RESULT:      -5.8      2.113      7.642
REMARK  Name = 
REMARK  12 active torsions:
REMARK  status: ('A' for Active; 'I' for Inactive)
REMARK    1  A    between atoms: C_1  and  C_2
REMARK    2  A    between atoms: C_2  and  C_10
REMARK    3  A    between atoms: C_3  and  C_4
REMARK    4  A    between atoms: C_10  and  N_11
REMARK    5  A    between atoms: N_11  and  C_12
REMARK    6  A    between atoms: N_11  and  S_13
REMARK    7  A    between atoms: S_13  and  N_16
REMARK    8  A    between atoms: N_16  and  C_17
REMARK    9  A    between atoms: N_16  and  C_18
REMARK   10  A    between atoms: C_18  and  C_19
REMARK   11  A    between atoms: C_18  and  C_20
REMARK   12  A    between atoms: C_20  and  C_21
REMARK                            x       y       z     vdW  Elec       q    Type
REMARK                         _______ _______ _______ _____ _____    ______ ____
ROOT
ATOM      1  N   UNL     1       6.033   6.534  17.341  0.00  0.00    +0.000 NA
ATOM      2  C   UNL     1       4.669   7.104  17.150  0.00  0.00    +0.000 C 
ENDROOT
BRANCH   1   3
ATOM      3  S   UNL     1       6.065   4.920  16.808  0.00  0.00    +0.000 S 
ATOM      4  O   UNL     1       5.293   4.843  15.592  0.00  0.00    +0.000 OA
ATOM      5  O   UNL     1       7.445   4.492  16.828  0.00  0.00    +0.000 OA
BRANCH   3   6
ATOM      6  N   UNL     1       5.219   4.081  18.018  0.00  0.00    +0.000 NA
ATOM      7  C   UNL     1       5.182   4.775  19.334  0.00  0.00    +0.000 C 
BRANCH   6   8
ATOM      8  C   UNL     1       3.861   3.513  17.650  0.00  0.00    +0.000 C 
ATOM      9  C   UNL     1       3.659   2.088  18.173  0.00  0.00    +0.000 C 
BRANCH   8  10
ATOM     10  C   UNL     1       2.686   4.404  18.071  0.00  0.00    +0.000 C 
BRANCH  10  11
ATOM     11  C   UNL     1       1.673   3.611  18.881  0.00  0.00    +0.000 C 
ATOM     12  N   UNL     1       0.832   2.954  19.553  0.00  0.00    +0.000 NA
ENDBRANCH  10  11
ENDBRANCH   8  10
ENDBRANCH   6   8
ENDBRANCH   3   6
ENDBRANCH   1   3
BRANCH   1  13
ATOM     13  C   UNL     1       7.096   7.382  16.737  0.00  0.00    +0.000 C 
BRANCH  13  15
ATOM     14  C   UNL     1       8.444   7.281  18.922  0.00  0.00    +0.000 C 
ATOM     15  C   UNL     1       7.898   8.123  17.800  0.00  0.00    +0.000 C 
ATOM     16  C   UNL     1       8.139   9.444  17.655  0.00  0.00    +0.000 C 
BRANCH  16  17
ATOM     17  C   UNL     1       9.061  10.243  18.469  0.00  0.00    +0.000 A 
ATOM     18  C   UNL     1       8.842  10.298  19.850  0.00  0.00    +0.000 A 
ATOM     19  C   UNL     1       9.692  11.035  20.676  0.00  0.00    +0.000 A 
ATOM     20  C   UNL     1      10.771  11.721  20.123  0.00  0.00    +0.000 A 
ATOM     21  C   UNL     1      10.996  11.672  18.745  0.00  0.00    +0.000 A 
ATOM     22  C   UNL     1      10.145  10.933  17.917  0.00  0.00    +0.000 A 
ENDBRANCH  16  17
ENDBRANCH  13  15
ENDBRANCH   1  13
TORSDOF 8
ENDMDL
MODEL 7
REMARK VINA RESULT:      -5.7      3.099      7.072
REMARK  Name = 
REMARK  12 active torsions:
REMARK  status: ('A' for Active; 'I' for Inactive)
REMARK    1  A    between atoms: C_1  and  C_2
REMARK    2  A    between atoms: C_2  and  C_10
REMARK    3  A    between atoms: C_3  and  C_4
REMARK    4  A    between atoms: C_10  and  N_11
REMARK    5  A    between atoms: N_11  and  C_12
REMARK    6  A    between atoms: N_11  and  S_13
REMARK    7  A    between atoms: S_13  and  N_16
REMARK    8  A    between atoms: N_16  and  C_17
REMARK    9  A    between atoms: N_16  and  C_18
REMARK   10  A    between atoms: C_18  and  C_19
REMARK   11  A    between atoms: C_18  and  C_20
REMARK   12  A    between atoms: C_20  and  C_21
REMARK                            x       y       z     vdW  Elec       q    Type
REMARK                         _______ _______ _______ _____ _____    ______ ____
ROOT
ATOM      1  N   UNL     1       5.838   5.110  18.551  0.00  0.00    +0.000 NA
ATOM      2  C   UNL     1       6.981   5.294  19.491  0.00  0.00    +0.000 C 
ENDROOT
BRANCH   1   3
ATOM      3  S   UNL     1       4.472   4.564  19.403  0.00  0.00    +0.000 S 
ATOM      4  O   UNL     1       4.882   3.450  20.223  0.00  0.00    +0.000 OA
ATOM      5  O   UNL     1       3.852   5.724  20.002  0.00  0.00    +0.000 OA
BRANCH   3   6
ATOM      6  N   UNL     1       3.449   3.969  18.186  0.00  0.00    +0.000 NA
ATOM      7  C   UNL     1       4.058   2.908  17.338  0.00  0.00    +0.000 C 
BRANCH   6   8
ATOM      8  C   UNL     1       2.028   3.616  18.583  0.00  0.00    +0.000 C 
ATOM      9  C   UNL     1       1.812   2.107  18.715  0.00  0.00    +0.000 C 
BRANCH   8  10
ATOM     10  C   UNL     1       1.548   4.333  19.852  0.00  0.00    +0.000 C 
BRANCH  10  11
ATOM     11  C   UNL     1       1.510   3.373  21.030  0.00  0.00    +0.000 C 
ATOM     12  N   UNL     1       1.478   2.577  22.007  0.00  0.00    +0.000 NA
ENDBRANCH  10  11
ENDBRANCH   8  10
ENDBRANCH   6   8
ENDBRANCH   3   6
ENDBRANCH   1   3
BRANCH   1  13
ATOM     13  C   UNL     1       5.580   6.318  17.722  0.00  0.00    +0.000 C 
BRANCH  13  15
ATOM     14  C   UNL     1       4.774   6.909  15.354  0.00  0.00    +0.000 C 
ATOM     15  C   UNL     1       5.582   5.992  16.234  0.00  0.00    +0.000 C 
ATOM     16  C   UNL     1       6.342   4.974  15.774  0.00  0.00    +0.000 C 
BRANCH  16  17
ATOM     17  C   UNL     1       6.615   4.675  14.365  0.00  0.00    +0.000 A 
ATOM     18  C   UNL     1       5.833   3.698  13.736  0.00  0.00    +0.000 A 
ATOM     19  C   UNL     1       6.041   3.377  12.394  0.00  0.00    +0.000 A 
ATOM     20  C   UNL     1       7.033   4.035  11.670  0.00  0.00    +0.000 A 
ATOM     21  C   UNL     1       7.818   5.010  12.291  0.00  0.00    +0.000 A 
ATOM     22  C   UNL     1       7.610   5.332  13.635  0.00  0.00    +0.000 A 
ENDBRANCH  16  17
ENDBRANCH  13  15
ENDBRANCH   1  13
TORSDOF 8
ENDMDL
MODEL 8
REMARK VINA RESULT:      -5.7      3.185      6.107
REMARK  Name = 
REMARK  12 active torsions:
REMARK  status: ('A' for Active; 'I' for Inactive)
REMARK    1  A    between atoms: C_1  and  C_2
REMARK    2  A    between atoms: C_2  and  C_10
REMARK    3  A    between atoms: C_3  and  C_4
REMARK    4  A    between atoms: C_10  and  N_11
REMARK    5  A    between atoms: N_11  and  C_12
REMARK    6  A    between atoms: N_11  and  S_13
REMARK    7  A    between atoms: S_13  and  N_16
REMARK    8  A    between atoms: N_16  and  C_17
REMARK    9  A    between atoms: N_16  and  C_18
REMARK   10  A    between atoms: C_18  and  C_19
REMARK   11  A    between atoms: C_18  and  C_20
REMARK   12  A    between atoms: C_20  and  C_21
REMARK                            x       y       z     vdW  Elec       q    Type
REMARK                         _______ _______ _______ _____ _____    ______ ____
ROOT
ATOM      1  N   UNL     1       4.437   5.138  17.429  0.00  0.00    +0.000 NA
ATOM      2  C   UNL     1       5.192   4.620  16.252  0.00  0.00    +0.000 C 
ENDROOT
BRANCH   1   3
ATOM      3  S   UNL     1       5.051   4.450  18.857  0.00  0.00    +0.000 S 
ATOM      4  O   UNL     1       6.470   4.261  18.679  0.00  0.00    +0.000 OA
ATOM      5  O   UNL     1       4.551   5.239  19.959  0.00  0.00    +0.000 OA
BRANCH   3   6
ATOM      6  N   UNL     1       4.324   2.917  18.911  0.00  0.00    +0.000 NA
ATOM      7  C   UNL     1       4.816   2.043  20.011  0.00  0.00    +0.000 C 
BRANCH   6   8
ATOM      8  C   UNL     1       2.813   2.860  18.790  0.00  0.00    +0.000 C 
ATOM      9  C   UNL     1       2.351   2.415  17.401  0.00  0.00    +0.000 C 
BRANCH   8  10
ATOM     10  C   UNL     1       2.140   2.006  19.872  0.00  0.00    +0.000 C 
BRANCH  10  11
ATOM     11  C   UNL     1       2.065   2.765  21.188  0.00  0.00    +0.000 C 
ATOM     12  N   UNL     1       2.004   3.395  22.278  0.00  0.00    +0.000 NA
ENDBRANCH  10  11
ENDBRANCH   8  10
ENDBRANCH   6   8
ENDBRANCH   3   6
ENDBRANCH   1   3
BRANCH   1  13
ATOM     13  C   UNL     1       4.376   6.624  17.461  0.00  0.00    +0.000 C 
BRANCH  13  15
ATOM     14  C   UNL     1       1.904   6.072  17.894  0.00  0.00    +0.000 C 
ATOM     15  C   UNL     1       2.978   7.124  17.803  0.00  0.00    +0.000 C 
ATOM     16  C   UNL     1       2.784   8.432  18.075  0.00  0.00    +0.000 C 
BRANCH  16  17
ATOM     17  C   UNL     1       1.559   9.023  18.622  0.00  0.00    +0.000 A 
ATOM     18  C   UNL     1       1.370   8.981  20.009  0.00  0.00    +0.000 A 
ATOM     19  C   UNL     1       0.227   9.536  20.588  0.00  0.00    +0.000 A 
ATOM     20  C   UNL     1      -0.734  10.140  19.779  0.00  0.00    +0.000 A 
ATOM     21  C   UNL     1      -0.553  10.186  18.395  0.00  0.00    +0.000 A 
ATOM     22  C   UNL     1       0.592   9.631  17.815  0.00  0.00    +0.000 A 
ENDBRANCH  16  17
ENDBRANCH  13  15
ENDBRANCH   1  13
TORSDOF 8
ENDMDL
MODEL 9
REMARK VINA RESULT:      -5.7      3.234      7.036
REMARK  Name = 
REMARK  12 active torsions:
REMARK  status: ('A' for Active; 'I' for Inactive)
REMARK    1  A    between atoms: C_1  and  C_2
REMARK    2  A    between atoms: C_2  and  C_10
REMARK    3  A    between atoms: C_3  and  C_4
REMARK    4  A    between atoms: C_10  and  N_11
REMARK    5  A    between atoms: N_11  and  C_12
REMARK    6  A    between atoms: N_11  and  S_13
REMARK    7  A    between atoms: S_13  and  N_16
REMARK    8  A    between atoms: N_16  and  C_17
REMARK    9  A    between atoms: N_16  and  C_18
REMARK   10  A    between atoms: C_18  and  C_19
REMARK   11  A    between atoms: C_18  and  C_20
REMARK   12  A    between atoms: C_20  and  C_21
REMARK                            x       y       z     vdW  Elec       q    Type
REMARK                         _______ _______ _______ _____ _____    ______ ____
ROOT
ATOM      1  N   UNL     1       5.053   5.415  18.291  0.00  0.00    +0.000 NA
ATOM      2  C   UNL     1       5.954   5.199  19.460  0.00  0.00    +0.000 C 
ENDROOT
BRANCH   1   3
ATOM      3  S   UNL     1       3.445   5.565  18.823  0.00  0.00    +0.000 S 
ATOM      4  O   UNL     1       3.475   6.015  20.193  0.00  0.00    +0.000 OA
ATOM      5  O   UNL     1       2.734   6.322  17.819  0.00  0.00    +0.000 OA
BRANCH   3   6
ATOM      6  N   UNL     1       2.867   3.968  18.810  0.00  0.00    +0.000 NA
ATOM      7  C   UNL     1       3.074   3.252  17.521  0.00  0.00    +0.000 C 
BRANCH   6   8
ATOM      8  C   UNL     1       3.219   3.092  19.996  0.00  0.00    +0.000 C 
ATOM      9  C   UNL     1       1.984   2.644  20.783  0.00  0.00    +0.000 C 
BRANCH   8  10
ATOM     10  C   UNL     1       4.083   1.879  19.631  0.00  0.00    +0.000 C 
BRANCH  10  11
ATOM     11  C   UNL     1       4.951   1.462  20.808  0.00  0.00    +0.000 C 
ATOM     12  N   UNL     1       5.670   1.118  21.785  0.00  0.00    +0.000 NA
ENDBRANCH  10  11
ENDBRANCH   8  10
ENDBRANCH   6   8
ENDBRANCH   3   6
ENDBRANCH   1   3
BRANCH   1  13
ATOM     13  C   UNL     1       5.502   6.537  17.423  0.00  0.00    +0.000 C 
BRANCH  13  15
ATOM     14  C   UNL     1       4.840   7.081  15.000  0.00  0.00    +0.000 C 
ATOM     15  C   UNL     1       5.525   6.138  15.953  0.00  0.00    +0.000 C 
ATOM     16  C   UNL     1       6.200   5.032  15.572  0.00  0.00    +0.000 C 
BRANCH  16  17
ATOM     17  C   UNL     1       6.493   4.637  14.191  0.00  0.00    +0.000 A 
ATOM     18  C   UNL     1       5.669   3.678  13.591  0.00  0.00    +0.000 A 
ATOM     19  C   UNL     1       5.893   3.270  12.275  0.00  0.00    +0.000 A 
ATOM     20  C   UNL     1       6.946   3.824  11.549  0.00  0.00    +0.000 A 
ATOM     21  C   UNL     1       7.773   4.782  12.140  0.00  0.00    +0.000 A 
ATOM     22  C   UNL     1       7.548   5.191  13.458  0.00  0.00    +0.000 A 
ENDBRANCH  16  17
ENDBRANCH  13  15
ENDBRANCH   1  13
TORSDOF 8
ENDMDL
