MODEL 1
REMARK VINA RESULT:      -7.3      0.000      0.000
REMARK  Name = 
REMARK  9 active torsions:
REMARK  status: ('A' for Active; 'I' for Inactive)
REMARK    1  A    between atoms: C_1  and  C_2
REMARK    2  A    between atoms: C_2  and  C_3
REMARK    3  A    between atoms: C_2  and  C_4
REMARK    4  A    between atoms: C_6  and  C_7
REMARK    5  A    between atoms: N_9  and  C_10
REMARK    6  A    between atoms: C_10  and  C_11
REMARK    7  A    between atoms: C_10  and  C_12
REMARK    8  A    between atoms: C_13  and  N_14
REMARK    9  A    between atoms: C_15  and  C_16
REMARK                            x       y       z     vdW  Elec       q    Type
REMARK                         _______ _______ _______ _____ _____    ______ ____
ROOT
ATOM      1  C   UNL     1       5.356   4.113  15.727  0.00  0.00    +0.000 A 
ATOM      2  N   UNL     1       4.991   3.635  14.526  0.00  0.00    +0.000 NA
ATOM      3  N   UNL     1       5.930   4.107  13.680  0.00  0.00    +0.000 N 
ATOM      4  C   UNL     1       6.922   4.822  14.322  0.00  0.00    +0.000 A 
ATOM      5  C   UNL     1       6.587   4.821  15.669  0.00  0.00    +0.000 A 
ENDROOT
BRANCH   1   8
ATOM      6  C   UNL     1       2.757   3.804  18.240  0.00  0.00    +0.000 A 
ATOM      7  C   UNL     1       3.115   4.025  16.932  0.00  0.00    +0.000 A 
ATOM      8  C   UNL     1       4.523   3.920  16.926  0.00  0.00    +0.000 A 
ATOM      9  N   UNL     1       4.999   3.695  18.158  0.00  0.00    +0.000 NA
ATOM     10  O   UNL     1       3.884   3.605  18.980  0.00  0.00    +0.000 OA
BRANCH   6  12
ATOM     11  C   UNL     1       0.816   2.354  18.858  0.00  0.00    +0.000 C 
ATOM     12  C   UNL     1       1.443   3.745  18.946  0.00  0.00    +0.000 C 
ATOM     13  C   UNL     1       1.566   4.191  20.402  0.00  0.00    +0.000 C 
ENDBRANCH   6  12
ENDBRANCH   1   8
BRANCH   5  14
ATOM     14  C   UNL     1       7.354   5.386  16.761  0.00  0.00    +0.000 C 
ATOM     15  N   UNL     1       7.804   4.480  17.682  0.00  0.00    +0.000 N 
ATOM     16  O   UNL     1       7.574   6.580  16.906  0.00  0.00    +0.000 OA
ATOM     17  H   UNL     1       7.773   3.490  17.474  0.00  0.00    +0.000 HD
ATOM     18  H   UNL     1       8.457   4.823  18.372  0.00  0.00    +0.000 HD
ENDBRANCH   5  14
BRANCH   3  19
ATOM     19  C   UNL     1       5.874   3.750  12.262  0.00  0.00    +0.000 C 
ATOM     20  C   UNL     1       6.822   2.588  11.959  0.00  0.00    +0.000 C 
ATOM     21  C   UNL     1       4.461   3.429  11.765  0.00  0.00    +0.000 C 
ENDBRANCH   3  19
BRANCH   4  22
ATOM     22  N   UNL     1       7.999   5.345  13.680  0.00  0.00    +0.000 N 
ATOM     23  H   UNL     1       8.124   5.264  12.674  0.00  0.00    +0.000 HD
ATOM     24  H   UNL     1       8.896   5.353  14.167  0.00  0.00    +0.000 HD
ENDBRANCH   4  22
TORSDOF 5
ENDMDL
MODEL 2
REMARK VINA RESULT:      -7.2      3.887      5.691
REMARK  Name = 
REMARK  9 active torsions:
REMARK  status: ('A' for Active; 'I' for Inactive)
REMARK    1  A    between atoms: C_1  and  C_2
REMARK    2  A    between atoms: C_2  and  C_3
REMARK    3  A    between atoms: C_2  and  C_4
REMARK    4  A    between atoms: C_6  and  C_7
REMARK    5  A    between atoms: N_9  and  C_10
REMARK    6  A    between atoms: C_10  and  C_11
REMARK    7  A    between atoms: C_10  and  C_12
REMARK    8  A    between atoms: C_13  and  N_14
REMARK    9  A    between atoms: C_15  and  C_16
REMARK                            x       y       z     vdW  Elec       q    Type
REMARK                         _______ _______ _______ _____ _____    ______ ____
ROOT
ATOM      1  C   UNL     1       3.491   6.026  18.331  0.00  0.00    +0.000 A 
ATOM      2  N   UNL     1       4.800   6.174  18.067  0.00  0.00    +0.000 NA
ATOM      3  N   UNL     1       5.238   4.919  17.837  0.00  0.00    +0.000 N 
ATOM      4  C   UNL     1       4.227   3.978  17.886  0.00  0.00    +0.000 A 
ATOM      5  C   UNL     1       3.066   4.678  18.182  0.00  0.00    +0.000 A 
ENDROOT
BRANCH   1   8
ATOM      6  C   UNL     1       1.565   9.077  18.706  0.00  0.00    +0.000 A 
ATOM      7  C   UNL     1       2.332   8.253  17.917  0.00  0.00    +0.000 A 
ATOM      8  C   UNL     1       2.650   7.159  18.751  0.00  0.00    +0.000 A 
ATOM      9  N   UNL     1       2.150   7.324  19.982  0.00  0.00    +0.000 NA
ATOM     10  O   UNL     1       1.452   8.523  19.946  0.00  0.00    +0.000 OA
BRANCH   6  12
ATOM     11  C   UNL     1      -0.602  10.186  18.133  0.00  0.00    +0.000 C 
ATOM     12  C   UNL     1       0.878  10.380  18.463  0.00  0.00    +0.000 C 
ATOM     13  C   UNL     1       1.047  11.335  19.643  0.00  0.00    +0.000 C 
ENDBRANCH   6  12
ENDBRANCH   1   8
BRANCH   5  14
ATOM     14  C   UNL     1       1.722   4.143  18.274  0.00  0.00    +0.000 C 
ATOM     15  N   UNL     1       1.239   4.003  19.546  0.00  0.00    +0.000 N 
ATOM     16  O   UNL     1       1.050   3.794  17.314  0.00  0.00    +0.000 OA
ATOM     17  H   UNL     1       1.719   4.447  20.319  0.00  0.00    +0.000 HD
ATOM     18  H   UNL     1       0.261   3.769  19.636  0.00  0.00    +0.000 HD
ENDBRANCH   5  14
BRANCH   3  19
ATOM     19  C   UNL     1       6.637   4.694  17.474  0.00  0.00    +0.000 C 
ATOM     20  C   UNL     1       6.837   4.854  15.966  0.00  0.00    +0.000 C 
ATOM     21  C   UNL     1       7.621   5.584  18.240  0.00  0.00    +0.000 C 
ENDBRANCH   3  19
BRANCH   4  22
ATOM     22  N   UNL     1       4.424   2.658  17.632  0.00  0.00    +0.000 N 
ATOM     23  H   UNL     1       4.589   2.305  16.693  0.00  0.00    +0.000 HD
ATOM     24  H   UNL     1       3.926   1.976  18.206  0.00  0.00    +0.000 HD
ENDBRANCH   4  22
TORSDOF 5
ENDMDL
MODEL 3
REMARK VINA RESULT:      -7.1      2.663      6.376
REMARK  Name = 
REMARK  9 active torsions:
REMARK  status: ('A' for Active; 'I' for Inactive)
REMARK    1  A    between atoms: C_1  and  C_2
REMARK    2  A    between atoms: C_2  and  C_3
REMARK    3  A    between atoms: C_2  and  C_4
REMARK    4  A    between atoms: C_6  and  C_7
REMARK    5  A    between atoms: N_9  and  C_10
REMARK    6  A    between atoms: C_10  and  C_11
REMARK    7  A    between atoms: C_10  and  C_12
REMARK    8  A    between atoms: C_13  and  N_14
REMARK    9  A    between atoms: C_15  and  C_16
REMARK                            x       y       z     vdW  Elec       q    Type
REMARK                         _______ _______ _______ _____ _____    ______ ____
ROOT
ATOM      1  C   UNL     1       4.680   5.948  17.308  0.00  0.00    +0.000 A 
ATOM      2  N   UNL     1       3.799   6.959  17.235  0.00  0.00    +0.000 NA
ATOM      3  N   UNL     1       3.046   6.826  18.346  0.00  0.00    +0.000 N 
ATOM      4  C   UNL     1       3.465   5.793  19.161  0.00  0.00    +0.000 A 
ATOM      5  C   UNL     1       4.552   5.215  18.519  0.00  0.00    +0.000 A 
ENDROOT
BRANCH   1   8
ATOM      6  C   UNL     1       6.502   4.784  14.395  0.00  0.00    +0.000 A 
ATOM      7  C   UNL     1       5.355   4.776  15.152  0.00  0.00    +0.000 A 
ATOM      8  C   UNL     1       5.627   5.661  16.218  0.00  0.00    +0.000 A 
ATOM      9  N   UNL     1       6.874   6.143  16.143  0.00  0.00    +0.000 NA
ATOM     10  O   UNL     1       7.416   5.603  14.985  0.00  0.00    +0.000 OA
BRANCH   6  12
ATOM     11  C   UNL     1       5.701   3.434  12.448  0.00  0.00    +0.000 C 
ATOM     12  C   UNL     1       6.896   4.102  13.126  0.00  0.00    +0.000 C 
ATOM     13  C   UNL     1       7.594   5.063  12.165  0.00  0.00    +0.000 C 
ENDBRANCH   6  12
ENDBRANCH   1   8
BRANCH   5  14
ATOM     14  C   UNL     1       5.382   4.133  19.009  0.00  0.00    +0.000 C 
ATOM     15  N   UNL     1       6.710   4.234  18.698  0.00  0.00    +0.000 N 
ATOM     16  O   UNL     1       4.962   3.164  19.626  0.00  0.00    +0.000 OA
ATOM     17  H   UNL     1       7.080   5.107  18.345  0.00  0.00    +0.000 HD
ATOM     18  H   UNL     1       7.331   3.574  19.145  0.00  0.00    +0.000 HD
ENDBRANCH   5  14
BRANCH   3  19
ATOM     19  C   UNL     1       1.985   7.796  18.624  0.00  0.00    +0.000 C 
ATOM     20  C   UNL     1       1.910   8.101  20.121  0.00  0.00    +0.000 C 
ATOM     21  C   UNL     1       2.115   9.094  17.821  0.00  0.00    +0.000 C 
ENDBRANCH   3  19
BRANCH   4  22
ATOM     22  N   UNL     1       2.892   5.507  20.359  0.00  0.00    +0.000 N 
ATOM     23  H   UNL     1       3.095   4.652  20.868  0.00  0.00    +0.000 HD
ATOM     24  H   UNL     1       1.934   5.821  20.523  0.00  0.00    +0.000 HD
ENDBRANCH   4  22
TORSDOF 5
ENDMDL
MODEL 4
REMARK VINA RESULT:      -7.1      3.633      5.580
REMARK  Name = 
REMARK  9 active torsions:
REMARK  status: ('A' for Active; 'I' for Inactive)
REMARK    1  A    between atoms: C_1  and  C_2
REMARK    2  A    between atoms: C_2  and  C_3
REMARK    3  A    between atoms: C_2  and  C_4
REMARK    4  A    between atoms: C_6  and  C_7
REMARK    5  A    between atoms: N_9  and  C_10
REMARK    6  A    between atoms: C_10  and  C_11
REMARK    7  A    between atoms: C_10  and  C_12
REMARK    8  A    between atoms: C_13  and  N_14
REMARK    9  A    between atoms: C_15  and  C_16
REMARK                            x       y       z     vdW  Elec       q    Type
REMARK                         _______ _______ _______ _____ _____    ______ ____
ROOT
ATOM      1  C   UNL     1       3.556   6.170  18.098  0.00  0.00    +0.000 A 
ATOM      2  N   UNL     1       4.882   6.251  17.896  0.00  0.00    +0.000 NA
ATOM      3  N   UNL     1       5.286   4.967  17.816  0.00  0.00    +0.000 N 
ATOM      4  C   UNL     1       4.241   4.067  17.898  0.00  0.00    +0.000 A 
ATOM      5  C   UNL     1       3.091   4.827  18.057  0.00  0.00    +0.000 A 
ENDROOT
BRANCH   1   8
ATOM      6  C   UNL     1       1.417   8.805  19.379  0.00  0.00    +0.000 A 
ATOM      7  C   UNL     1       2.083   7.620  19.582  0.00  0.00    +0.000 A 
ATOM      8  C   UNL     1       2.735   7.364  18.357  0.00  0.00    +0.000 A 
ATOM      9  N   UNL     1       2.449   8.306  17.448  0.00  0.00    +0.000 NA
ATOM     10  O   UNL     1       1.634   9.221  18.100  0.00  0.00    +0.000 OA
BRANCH   6  12
ATOM     11  C   UNL     1      -0.570  10.321  19.459  0.00  0.00    +0.000 C 
ATOM     12  C   UNL     1       0.558   9.660  20.251  0.00  0.00    +0.000 C 
ATOM     13  C   UNL     1      -0.003   8.874  21.434  0.00  0.00    +0.000 C 
ENDBRANCH   6  12
ENDBRANCH   1   8
BRANCH   5  14
ATOM     14  C   UNL     1       1.727   4.344  18.123  0.00  0.00    +0.000 C 
ATOM     15  N   UNL     1       1.289   4.012  19.377  0.00  0.00    +0.000 N 
ATOM     16  O   UNL     1       0.999   4.195  17.153  0.00  0.00    +0.000 OA
ATOM     17  H   UNL     1       1.823   4.296  20.189  0.00  0.00    +0.000 HD
ATOM     18  H   UNL     1       0.304   3.810  19.473  0.00  0.00    +0.000 HD
ENDBRANCH   5  14
BRANCH   3  19
ATOM     19  C   UNL     1       6.694   4.664  17.557  0.00  0.00    +0.000 C 
ATOM     20  C   UNL     1       6.986   4.688  16.056  0.00  0.00    +0.000 C 
ATOM     21  C   UNL     1       7.666   5.583  18.304  0.00  0.00    +0.000 C 
ENDBRANCH   3  19
BRANCH   4  22
ATOM     22  N   UNL     1       4.404   2.723  17.785  0.00  0.00    +0.000 N 
ATOM     23  H   UNL     1       4.047   2.197  16.992  0.00  0.00    +0.000 HD
ATOM     24  H   UNL     1       4.398   2.162  18.638  0.00  0.00    +0.000 HD
ENDBRANCH   4  22
TORSDOF 5
ENDMDL
MODEL 5
REMARK VINA RESULT:      -7.1      0.782      1.086
REMARK  Name = 
REMARK  9 active torsions:
REMARK  status: ('A' for Active; 'I' for Inactive)
REMARK    1  A    between atoms: C_1  and  C_2
REMARK    2  A    between atoms: C_2  and  C_3
REMARK    3  A    between atoms: C_2  and  C_4
REMARK    4  A    between atoms: C_6  and  C_7
REMARK    5  A    between atoms: N_9  and  C_10
REMARK    6  A    between atoms: C_10  and  C_11
REMARK    7  A    between atoms: C_10  and  C_12
REMARK    8  A    between atoms: C_13  and  N_14
REMARK    9  A    between atoms: C_15  and  C_16
REMARK                            x       y       z     vdW  Elec       q    Type
REMARK                         _______ _______ _______ _____ _____    ______ ____
ROOT
ATOM      1  C   UNL     1       5.268   4.257  15.600  0.00  0.00    +0.000 A 
ATOM      2  N   UNL     1       4.894   3.758  14.410  0.00  0.00    +0.000 NA
ATOM      3  N   UNL     1       5.879   4.130  13.568  0.00  0.00    +0.000 N 
ATOM      4  C   UNL     1       6.907   4.799  14.203  0.00  0.00    +0.000 A 
ATOM      5  C   UNL     1       6.547   4.874  15.541  0.00  0.00    +0.000 A 
ENDROOT
BRANCH   1   8
ATOM      6  C   UNL     1       3.124   3.335  18.377  0.00  0.00    +0.000 A 
ATOM      7  C   UNL     1       3.895   2.958  17.304  0.00  0.00    +0.000 A 
ATOM      8  C   UNL     1       4.401   4.170  16.787  0.00  0.00    +0.000 A 
ATOM      9  N   UNL     1       3.933   5.223  17.470  0.00  0.00    +0.000 NA
ATOM     10  O   UNL     1       3.144   4.694  18.481  0.00  0.00    +0.000 OA
BRANCH   6  12
ATOM     11  C   UNL     1       2.389   3.222  20.765  0.00  0.00    +0.000 C 
ATOM     12  C   UNL     1       2.324   2.574  19.382  0.00  0.00    +0.000 C 
ATOM     13  C   UNL     1       0.873   2.403  18.934  0.00  0.00    +0.000 C 
ENDBRANCH   6  12
ENDBRANCH   1   8
BRANCH   5  14
ATOM     14  C   UNL     1       7.331   5.427  16.628  0.00  0.00    +0.000 C 
ATOM     15  N   UNL     1       7.833   4.507  17.507  0.00  0.00    +0.000 N 
ATOM     16  O   UNL     1       7.522   6.622  16.803  0.00  0.00    +0.000 OA
ATOM     17  H   UNL     1       7.822   3.523  17.269  0.00  0.00    +0.000 HD
ATOM     18  H   UNL     1       8.497   4.847  18.188  0.00  0.00    +0.000 HD
ENDBRANCH   5  14
BRANCH   3  19
ATOM     19  C   UNL     1       5.826   3.722  12.163  0.00  0.00    +0.000 C 
ATOM     20  C   UNL     1       6.777   2.553  11.903  0.00  0.00    +0.000 C 
ATOM     21  C   UNL     1       4.414   3.379  11.678  0.00  0.00    +0.000 C 
ENDBRANCH   3  19
BRANCH   4  22
ATOM     22  N   UNL     1       8.030   5.219  13.565  0.00  0.00    +0.000 N 
ATOM     23  H   UNL     1       8.417   4.725  12.765  0.00  0.00    +0.000 HD
ATOM     24  H   UNL     1       8.763   5.665  14.119  0.00  0.00    +0.000 HD
ENDBRANCH   4  22
TORSDOF 5
ENDMDL
MODEL 6
REMARK VINA RESULT:      -7.1      1.207      1.608
REMARK  Name = 
REMARK  9 active torsions:
REMARK  status: ('A' for Active; 'I' for Inactive)
REMARK    1  A    between atoms: C_1  and  C_2
REMARK    2  A    between atoms: C_2  and  C_3
REMARK    3  A    between atoms: C_2  and  C_4
REMARK    4  A    between atoms: C_6  and  C_7
REMARK    5  A    between atoms: N_9  and  C_10
REMARK    6  A    between atoms: C_10  and  C_11
REMARK    7  A    between atoms: C_10  and  C_12
REMARK    8  A    between atoms: C_13  and  N_14
REMARK    9  A    between atoms: C_15  and  C_16
REMARK                            x       y       z     vdW  Elec       q    Type
REMARK                         _______ _______ _______ _____ _____    ______ ____
ROOT
ATOM      1  C   UNL     1       5.217   4.560  15.939  0.00  0.00    +0.000 A 
ATOM      2  N   UNL     1       5.029   3.842  14.819  0.00  0.00    +0.000 NA
ATOM      3  N   UNL     1       6.075   4.170  14.033  0.00  0.00    +0.000 N 
ATOM      4  C   UNL     1       6.962   5.031  14.649  0.00  0.00    +0.000 A 
ATOM      5  C   UNL     1       6.439   5.284  15.909  0.00  0.00    +0.000 A 
ENDROOT
BRANCH   1   8
ATOM      6  C   UNL     1       2.759   3.890  18.521  0.00  0.00    +0.000 A 
ATOM      7  C   UNL     1       3.631   3.418  17.570  0.00  0.00    +0.000 A 
ATOM      8  C   UNL     1       4.224   4.579  17.026  0.00  0.00    +0.000 A 
ATOM      9  N   UNL     1       3.715   5.688  17.576  0.00  0.00    +0.000 NA
ATOM     10  O   UNL     1       2.806   5.251  18.529  0.00  0.00    +0.000 OA
BRANCH   6  12
ATOM     11  C   UNL     1       1.140   4.233  20.396  0.00  0.00    +0.000 C 
ATOM     12  C   UNL     1       1.833   3.221  19.484  0.00  0.00    +0.000 C 
ATOM     13  C   UNL     1       0.806   2.350  18.764  0.00  0.00    +0.000 C 
ENDBRANCH   6  12
ENDBRANCH   1   8
BRANCH   5  14
ATOM     14  C   UNL     1       7.040   6.079  16.961  0.00  0.00    +0.000 C 
ATOM     15  N   UNL     1       6.647   7.389  16.995  0.00  0.00    +0.000 N 
ATOM     16  O   UNL     1       7.869   5.660  17.756  0.00  0.00    +0.000 OA
ATOM     17  H   UNL     1       5.844   7.689  16.456  0.00  0.00    +0.000 HD
ATOM     18  H   UNL     1       6.937   7.928  17.798  0.00  0.00    +0.000 HD
ENDBRANCH   5  14
BRANCH   3  19
ATOM     19  C   UNL     1       6.222   3.538  12.721  0.00  0.00    +0.000 C 
ATOM     20  C   UNL     1       4.858   3.347  12.056  0.00  0.00    +0.000 C 
ATOM     21  C   UNL     1       7.173   4.287  11.783  0.00  0.00    +0.000 C 
ENDBRANCH   3  19
BRANCH   4  22
ATOM     22  N   UNL     1       8.116   5.453  14.069  0.00  0.00    +0.000 N 
ATOM     23  H   UNL     1       8.143   5.831  13.126  0.00  0.00    +0.000 HD
ATOM     24  H   UNL     1       8.981   4.962  14.300  0.00  0.00    +0.000 HD
ENDBRANCH   4  22
TORSDOF 5
ENDMDL
MODEL 7
REMARK VINA RESULT:      -7.1      1.204      1.340
REMARK  Name = 
REMARK  9 active torsions:
REMARK  status: ('A' for Active; 'I' for Inactive)
REMARK    1  A    between atoms: C_1  and  C_2
REMARK    2  A    between atoms: C_2  and  C_3
REMARK    3  A    between atoms: C_2  and  C_4
REMARK    4  A    between atoms: C_6  and  C_7
REMARK    5  A    between atoms: N_9  and  C_10
REMARK    6  A    between atoms: C_10  and  C_11
REMARK    7  A    between atoms: C_10  and  C_12
REMARK    8  A    between atoms: C_13  and  N_14
REMARK    9  A    between atoms: C_15  and  C_16
REMARK                            x       y       z     vdW  Elec       q    Type
REMARK                         _______ _______ _______ _____ _____    ______ ____
ROOT
ATOM      1  C   UNL     1       5.284   4.232  15.651  0.00  0.00    +0.000 A 
ATOM      2  N   UNL     1       4.928   3.743  14.452  0.00  0.00    +0.000 NA
ATOM      3  N   UNL     1       5.908   4.153  13.620  0.00  0.00    +0.000 N 
ATOM      4  C   UNL     1       6.916   4.837  14.270  0.00  0.00    +0.000 A 
ATOM      5  C   UNL     1       6.547   4.882  15.608  0.00  0.00    +0.000 A 
ENDROOT
BRANCH   1   8
ATOM      6  C   UNL     1       3.072   4.635  18.497  0.00  0.00    +0.000 A 
ATOM      7  C   UNL     1       3.729   5.187  17.424  0.00  0.00    +0.000 A 
ATOM      8  C   UNL     1       4.414   4.104  16.832  0.00  0.00    +0.000 A 
ATOM      9  N   UNL     1       4.227   2.973  17.524  0.00  0.00    +0.000 NA
ATOM     10  O   UNL     1       3.367   3.306  18.561  0.00  0.00    +0.000 OA
BRANCH   6  12
ATOM     11  C   UNL     1       2.258   4.426  20.852  0.00  0.00    +0.000 C 
ATOM     12  C   UNL     1       2.154   5.193  19.534  0.00  0.00    +0.000 C 
ATOM     13  C   UNL     1       2.396   6.685  19.757  0.00  0.00    +0.000 C 
ENDBRANCH   6  12
ENDBRANCH   1   8
BRANCH   5  14
ATOM     14  C   UNL     1       7.312   5.437  16.707  0.00  0.00    +0.000 C 
ATOM     15  N   UNL     1       7.422   6.801  16.707  0.00  0.00    +0.000 N 
ATOM     16  O   UNL     1       7.865   4.771  17.570  0.00  0.00    +0.000 OA
ATOM     17  H   UNL     1       6.828   7.355  16.102  0.00  0.00    +0.000 HD
ATOM     18  H   UNL     1       7.824   7.223  17.532  0.00  0.00    +0.000 HD
ENDBRANCH   5  14
BRANCH   3  19
ATOM     19  C   UNL     1       5.871   3.765  12.209  0.00  0.00    +0.000 C 
ATOM     20  C   UNL     1       6.826   2.600  11.942  0.00  0.00    +0.000 C 
ATOM     21  C   UNL     1       4.465   3.430  11.701  0.00  0.00    +0.000 C 
ENDBRANCH   3  19
BRANCH   4  22
ATOM     22  N   UNL     1       8.031   5.295  13.645  0.00  0.00    +0.000 N 
ATOM     23  H   UNL     1       8.901   4.770  13.632  0.00  0.00    +0.000 HD
ATOM     24  H   UNL     1       8.202   6.302  13.637  0.00  0.00    +0.000 HD
ENDBRANCH   4  22
TORSDOF 5
ENDMDL
MODEL 8
REMARK VINA RESULT:      -7.0      2.274      6.147
REMARK  Name = 
REMARK  9 active torsions:
REMARK  status: ('A' for Active; 'I' for Inactive)
REMARK    1  A    between atoms: C_1  and  C_2
REMARK    2  A    between atoms: C_2  and  C_3
REMARK    3  A    between atoms: C_2  and  C_4
REMARK    4  A    between atoms: C_6  and  C_7
REMARK    5  A    between atoms: N_9  and  C_10
REMARK    6  A    between atoms: C_10  and  C_11
REMARK    7  A    between atoms: C_10  and  C_12
REMARK    8  A    between atoms: C_13  and  N_14
REMARK    9  A    between atoms: C_15  and  C_16
REMARK                            x       y       z     vdW  Elec       q    Type
REMARK                         _______ _______ _______ _____ _____    ______ ____
ROOT
ATOM      1  C   UNL     1       4.981   4.537  17.345  0.00  0.00    +0.000 A 
ATOM      2  N   UNL     1       4.656   3.433  18.038  0.00  0.00    +0.000 NA
ATOM      3  N   UNL     1       4.002   3.901  19.121  0.00  0.00    +0.000 N 
ATOM      4  C   UNL     1       3.845   5.273  19.105  0.00  0.00    +0.000 A 
ATOM      5  C   UNL     1       4.454   5.715  17.939  0.00  0.00    +0.000 A 
ENDROOT
BRANCH   1   8
ATOM      6  C   UNL     1       6.467   4.040  14.073  0.00  0.00    +0.000 A 
ATOM      7  C   UNL     1       5.384   3.918  14.909  0.00  0.00    +0.000 A 
ATOM      8  C   UNL     1       5.815   4.476  16.132  0.00  0.00    +0.000 A 
ATOM      9  N   UNL     1       7.092   4.872  16.063  0.00  0.00    +0.000 NA
ATOM     10  O   UNL     1       7.495   4.613  14.760  0.00  0.00    +0.000 OA
BRANCH   6  12
ATOM     11  C   UNL     1       5.411   3.253  11.947  0.00  0.00    +0.000 C 
ATOM     12  C   UNL     1       6.702   3.684  12.642  0.00  0.00    +0.000 C 
ATOM     13  C   UNL     1       7.369   4.828  11.879  0.00  0.00    +0.000 C 
ENDBRANCH   6  12
ENDBRANCH   1   8
BRANCH   5  14
ATOM     14  C   UNL     1       4.497   7.074  17.437  0.00  0.00    +0.000 C 
ATOM     15  N   UNL     1       5.719   7.484  16.977  0.00  0.00    +0.000 N 
ATOM     16  O   UNL     1       3.546   7.842  17.439  0.00  0.00    +0.000 OA
ATOM     17  H   UNL     1       6.451   6.805  16.816  0.00  0.00    +0.000 HD
ATOM     18  H   UNL     1       5.746   8.370  16.493  0.00  0.00    +0.000 HD
ENDBRANCH   5  14
BRANCH   3  19
ATOM     19  C   UNL     1       3.458   2.960  20.101  0.00  0.00    +0.000 C 
ATOM     20  C   UNL     1       2.204   2.274  19.554  0.00  0.00    +0.000 C 
ATOM     21  C   UNL     1       4.471   1.916  20.579  0.00  0.00    +0.000 C 
ENDBRANCH   3  19
BRANCH   4  22
ATOM     22  N   UNL     1       3.170   5.957  20.064  0.00  0.00    +0.000 N 
ATOM     23  H   UNL     1       2.168   6.122  20.010  0.00  0.00    +0.000 HD
ATOM     24  H   UNL     1       3.649   6.723  20.541  0.00  0.00    +0.000 HD
ENDBRANCH   4  22
TORSDOF 5
ENDMDL
MODEL 9
REMARK VINA RESULT:      -7.0      0.926      1.168
REMARK  Name = 
REMARK  9 active torsions:
REMARK  status: ('A' for Active; 'I' for Inactive)
REMARK    1  A    between atoms: C_1  and  C_2
REMARK    2  A    between atoms: C_2  and  C_3
REMARK    3  A    between atoms: C_2  and  C_4
REMARK    4  A    between atoms: C_6  and  C_7
REMARK    5  A    between atoms: N_9  and  C_10
REMARK    6  A    between atoms: C_10  and  C_11
REMARK    7  A    between atoms: C_10  and  C_12
REMARK    8  A    between atoms: C_13  and  N_14
REMARK    9  A    between atoms: C_15  and  C_16
REMARK                            x       y       z     vdW  Elec       q    Type
REMARK                         _______ _______ _______ _____ _____    ______ ____
ROOT
ATOM      1  C   UNL     1       5.241   4.680  15.978  0.00  0.00    +0.000 A 
ATOM      2  N   UNL     1       5.024   3.926  14.888  0.00  0.00    +0.000 NA
ATOM      3  N   UNL     1       6.068   4.200  14.079  0.00  0.00    +0.000 N 
ATOM      4  C   UNL     1       6.982   5.063  14.652  0.00  0.00    +0.000 A 
ATOM      5  C   UNL     1       6.479   5.374  15.908  0.00  0.00    +0.000 A 
ENDROOT
BRANCH   1   8
ATOM      6  C   UNL     1       2.512   4.326  18.342  0.00  0.00    +0.000 A 
ATOM      7  C   UNL     1       3.173   3.876  17.224  0.00  0.00    +0.000 A 
ATOM      8  C   UNL     1       4.262   4.762  17.074  0.00  0.00    +0.000 A 
ATOM      9  N   UNL     1       4.242   5.719  18.011  0.00  0.00    +0.000 NA
ATOM     10  O   UNL     1       3.150   5.432  18.818  0.00  0.00    +0.000 OA
BRANCH   6  12
ATOM     11  C   UNL     1       1.061   2.358  18.864  0.00  0.00    +0.000 C 
ATOM     12  C   UNL     1       1.303   3.851  19.078  0.00  0.00    +0.000 C 
ATOM     13  C   UNL     1       1.388   4.176  20.568  0.00  0.00    +0.000 C 
ENDBRANCH   6  12
ENDBRANCH   1   8
BRANCH   5  14
ATOM     14  C   UNL     1       7.110   6.194  16.923  0.00  0.00    +0.000 C 
ATOM     15  N   UNL     1       7.443   5.536  18.076  0.00  0.00    +0.000 N 
ATOM     16  O   UNL     1       7.315   7.394  16.813  0.00  0.00    +0.000 OA
ATOM     17  H   UNL     1       7.434   4.524  18.100  0.00  0.00    +0.000 HD
ATOM     18  H   UNL     1       8.009   6.045  18.740  0.00  0.00    +0.000 HD
ENDBRANCH   5  14
BRANCH   3  19
ATOM     19  C   UNL     1       6.186   3.517  12.790  0.00  0.00    +0.000 C 
ATOM     20  C   UNL     1       4.811   3.336  12.146  0.00  0.00    +0.000 C 
ATOM     21  C   UNL     1       7.145   4.207  11.815  0.00  0.00    +0.000 C 
ENDBRANCH   3  19
BRANCH   4  22
ATOM     22  N   UNL     1       8.138   5.436  14.045  0.00  0.00    +0.000 N 
ATOM     23  H   UNL     1       9.044   5.077  14.334  0.00  0.00    +0.000 HD
ATOM     24  H   UNL     1       8.211   6.391  13.689  0.00  0.00    +0.000 HD
ENDBRANCH   4  22
TORSDOF 5
ENDMDL
