MODEL 1
REMARK VINA RESULT:      -6.9      0.000      0.000
REMARK  Name = 
REMARK  11 active torsions:
REMARK  status: ('A' for Active; 'I' for Inactive)
REMARK    1  A    between atoms: C_1  and  N_2
REMARK    2  A    between atoms: N_2  and  C_3
REMARK    3  A    between atoms: C_6  and  C_7
REMARK    4  A    between atoms: C_8  and  C_9
REMARK    5  A    between atoms: C_9  and  O_11
REMARK    6  A    between atoms: O_11  and  C_12
REMARK    7  A    between atoms: C_12  and  C_13
REMARK    8  A    between atoms: N_15  and  C_16
REMARK    9  A    between atoms: C_16  and  C_17
REMARK   10  A    between atoms: C_22  and  O_23
REMARK   11  A    between atoms: O_23  and  C_24
REMARK                            x       y       z     vdW  Elec       q    Type
REMARK                         _______ _______ _______ _____ _____    ______ ____
ROOT
ATOM      1  C   UNL     1       8.257   7.049  18.753  0.00  0.00    +0.000 C 
ENDROOT
BRANCH   1   2
ATOM      2  C   UNL     1       7.782   8.125  17.772  0.00  0.00    +0.000 C 
ATOM      3  O   UNL     1       7.106   7.853  16.778  0.00  0.00    +0.000 OA
ATOM      4  N   UNL     1       8.141   9.424  17.988  0.00  0.00    +0.000 N 
ATOM      5  H   UNL     1       7.828  10.065  17.271  0.00  0.00    +0.000 HD
BRANCH   4   6
ATOM      6  C   UNL     1       9.027   9.925  19.019  0.00  0.00    +0.000 C 
BRANCH   6   7
ATOM      7  C   UNL     1       9.855  11.118  18.603  0.00  0.00    +0.000 A 
ATOM      8  C   UNL     1      11.186  11.236  19.070  0.00  0.00    +0.000 A 
ATOM      9  C   UNL     1      11.986  12.335  18.755  0.00  0.00    +0.000 A 
ATOM     10  C   UNL     1      11.486  13.333  17.935  0.00  0.00    +0.000 A 
ATOM     11  C   UNL     1      10.184  13.232  17.449  0.00  0.00    +0.000 A 
ATOM     12  C   UNL     1       9.361  12.138  17.770  0.00  0.00    +0.000 A 
BRANCH  12  13
ATOM     13  O   UNL     1       8.088  12.290  17.288  0.00  0.00    +0.000 OA
ATOM     14  C   UNL     1       7.393  13.504  17.529  0.00  0.00    +0.000 C 
ENDBRANCH  12  13
ENDBRANCH   6   7
ENDBRANCH   4   6
ENDBRANCH   1   2
BRANCH   1  15
ATOM     15  O   UNL     1       7.247   6.072  18.987  0.00  0.00    +0.000 OA
BRANCH  15  16
ATOM     16  C   UNL     1       7.362   4.957  18.199  0.00  0.00    +0.000 C 
ATOM     17  O   UNL     1       8.412   4.345  18.053  0.00  0.00    +0.000 OA
BRANCH  16  23
ATOM     18  C   UNL     1       4.911   4.297  18.184  0.00  0.00    +0.000 A 
ATOM     19  S   UNL     1       3.743   3.933  16.972  0.00  0.00    +0.000 S 
ATOM     20  N   UNL     1       4.742   4.113  15.677  0.00  0.00    +0.000 NA
ATOM     21  C   UNL     1       5.955   4.455  16.107  0.00  0.00    +0.000 A 
ATOM     22  C   UNL     1       7.013   4.667  15.076  0.00  0.00    +0.000 C 
ATOM     23  C   UNL     1       6.114   4.585  17.539  0.00  0.00    +0.000 A 
BRANCH  18  25
ATOM     24  C   UNL     1       3.299   4.388  20.031  0.00  0.00    +0.000 C 
ATOM     25  N   UNL     1       4.657   4.320  19.530  0.00  0.00    +0.000 N 
ATOM     26  H   UNL     1       5.252   3.719  20.101  0.00  0.00    +0.000 HD
ENDBRANCH  18  25
ENDBRANCH  16  23
ENDBRANCH  15  16
ENDBRANCH   1  15
TORSDOF 8
ENDMDL
MODEL 2
REMARK VINA RESULT:      -6.9      2.237      3.048
REMARK  Name = 
REMARK  11 active torsions:
REMARK  status: ('A' for Active; 'I' for Inactive)
REMARK    1  A    between atoms: C_1  and  N_2
REMARK    2  A    between atoms: N_2  and  C_3
REMARK    3  A    between atoms: C_6  and  C_7
REMARK    4  A    between atoms: C_8  and  C_9
REMARK    5  A    between atoms: C_9  and  O_11
REMARK    6  A    between atoms: O_11  and  C_12
REMARK    7  A    between atoms: C_12  and  C_13
REMARK    8  A    between atoms: N_15  and  C_16
REMARK    9  A    between atoms: C_16  and  C_17
REMARK   10  A    between atoms: C_22  and  O_23
REMARK   11  A    between atoms: O_23  and  C_24
REMARK                            x       y       z     vdW  Elec       q    Type
REMARK                         _______ _______ _______ _____ _____    ______ ____
ROOT
ATOM      1  C   UNL     1       7.226   7.266  17.240  0.00  0.00    +0.000 C 
ENDROOT
BRANCH   1   2
ATOM      2  C   UNL     1       8.072   7.252  18.516  0.00  0.00    +0.000 C 
ATOM      3  O   UNL     1       8.197   6.240  19.208  0.00  0.00    +0.000 OA
ATOM      4  N   UNL     1       8.686   8.404  18.917  0.00  0.00    +0.000 N 
ATOM      5  H   UNL     1       9.185   8.324  19.793  0.00  0.00    +0.000 HD
BRANCH   4   6
ATOM      6  C   UNL     1       8.561   9.715  18.314  0.00  0.00    +0.000 C 
BRANCH   6   7
ATOM      7  C   UNL     1       9.619  10.703  18.746  0.00  0.00    +0.000 A 
ATOM      8  C   UNL     1      10.540  11.196  17.791  0.00  0.00    +0.000 A 
ATOM      9  C   UNL     1      11.566  12.076  18.137  0.00  0.00    +0.000 A 
ATOM     10  C   UNL     1      11.679  12.514  19.446  0.00  0.00    +0.000 A 
ATOM     11  C   UNL     1      10.774  12.056  20.402  0.00  0.00    +0.000 A 
ATOM     12  C   UNL     1       9.745  11.157  20.072  0.00  0.00    +0.000 A 
BRANCH  12  13
ATOM     13  O   UNL     1       9.045  10.746  21.174  0.00  0.00    +0.000 OA
ATOM     14  C   UNL     1       8.611  11.708  22.122  0.00  0.00    +0.000 C 
ENDBRANCH  12  13
ENDBRANCH   6   7
ENDBRANCH   4   6
ENDBRANCH   1   2
BRANCH   1  15
ATOM     15  O   UNL     1       6.457   6.074  17.109  0.00  0.00    +0.000 OA
BRANCH  15  16
ATOM     16  C   UNL     1       5.212   6.274  16.574  0.00  0.00    +0.000 C 
ATOM     17  O   UNL     1       5.030   6.719  15.447  0.00  0.00    +0.000 OA
BRANCH  16  23
ATOM     18  C   UNL     1       3.866   4.644  17.979  0.00  0.00    +0.000 A 
ATOM     19  S   UNL     1       2.501   4.755  19.021  0.00  0.00    +0.000 S 
ATOM     20  N   UNL     1       2.239   6.368  18.831  0.00  0.00    +0.000 NA
ATOM     21  C   UNL     1       3.158   6.864  18.003  0.00  0.00    +0.000 A 
ATOM     22  C   UNL     1       3.092   8.323  17.699  0.00  0.00    +0.000 C 
ATOM     23  C   UNL     1       4.127   5.922  17.486  0.00  0.00    +0.000 A 
BRANCH  18  25
ATOM     24  C   UNL     1       3.926   2.195  17.837  0.00  0.00    +0.000 C 
ATOM     25  N   UNL     1       4.565   3.492  17.728  0.00  0.00    +0.000 N 
ATOM     26  H   UNL     1       5.223   3.537  16.951  0.00  0.00    +0.000 HD
ENDBRANCH  18  25
ENDBRANCH  16  23
ENDBRANCH  15  16
ENDBRANCH   1  15
TORSDOF 8
ENDMDL
MODEL 3
REMARK VINA RESULT:      -6.7      5.129      6.965
REMARK  Name = 
REMARK  11 active torsions:
REMARK  status: ('A' for Active; 'I' for Inactive)
REMARK    1  A    between atoms: C_1  and  N_2
REMARK    2  A    between atoms: N_2  and  C_3
REMARK    3  A    between atoms: C_6  and  C_7
REMARK    4  A    between atoms: C_8  and  C_9
REMARK    5  A    between atoms: C_9  and  O_11
REMARK    6  A    between atoms: O_11  and  C_12
REMARK    7  A    between atoms: C_12  and  C_13
REMARK    8  A    between atoms: N_15  and  C_16
REMARK    9  A    between atoms: C_16  and  C_17
REMARK   10  A    between atoms: C_22  and  O_23
REMARK   11  A    between atoms: O_23  and  C_24
REMARK                            x       y       z     vdW  Elec       q    Type
REMARK                         _______ _______ _______ _____ _____    ______ ____
ROOT
ATOM      1  C   UNL     1       1.703   5.306  20.197  0.00  0.00    +0.000 C 
ENDROOT
BRANCH   1   2
ATOM      2  C   UNL     1       2.462   6.499  19.608  0.00  0.00    +0.000 C 
ATOM      3  O   UNL     1       2.385   7.629  20.095  0.00  0.00    +0.000 OA
ATOM      4  N   UNL     1       3.226   6.313  18.493  0.00  0.00    +0.000 N 
ATOM      5  H   UNL     1       3.655   7.158  18.139  0.00  0.00    +0.000 HD
BRANCH   4   6
ATOM      6  C   UNL     1       3.344   5.102  17.707  0.00  0.00    +0.000 C 
BRANCH   6   7
ATOM      7  C   UNL     1       4.703   4.897  17.078  0.00  0.00    +0.000 A 
ATOM      8  C   UNL     1       4.796   4.676  15.683  0.00  0.00    +0.000 A 
ATOM      9  C   UNL     1       6.017   4.439  15.052  0.00  0.00    +0.000 A 
ATOM     10  C   UNL     1       7.185   4.448  15.796  0.00  0.00    +0.000 A 
ATOM     11  C   UNL     1       7.122   4.680  17.169  0.00  0.00    +0.000 A 
ATOM     12  C   UNL     1       5.897   4.905  17.821  0.00  0.00    +0.000 A 
BRANCH  12  13
ATOM     13  O   UNL     1       6.045   4.994  19.179  0.00  0.00    +0.000 OA
ATOM     14  C   UNL     1       7.259   5.495  19.717  0.00  0.00    +0.000 C 
ENDBRANCH  12  13
ENDBRANCH   6   7
ENDBRANCH   4   6
ENDBRANCH   1   2
BRANCH   1  15
ATOM     15  O   UNL     1       2.464   4.648  21.206  0.00  0.00    +0.000 OA
BRANCH  15  16
ATOM     16  C   UNL     1       2.256   3.295  21.262  0.00  0.00    +0.000 C 
ATOM     17  O   UNL     1       1.788   2.729  22.242  0.00  0.00    +0.000 OA
BRANCH  16  23
ATOM     18  C   UNL     1       3.952   2.130  19.776  0.00  0.00    +0.000 A 
ATOM     19  S   UNL     1       3.916   1.369  18.232  0.00  0.00    +0.000 S 
ATOM     20  N   UNL     1       2.326   1.647  17.913  0.00  0.00    +0.000 NA
ATOM     21  C   UNL     1       1.783   2.297  18.941  0.00  0.00    +0.000 A 
ATOM     22  C   UNL     1       0.335   2.645  18.845  0.00  0.00    +0.000 C 
ATOM     23  C   UNL     1       2.666   2.597  20.047  0.00  0.00    +0.000 A 
BRANCH  18  25
ATOM     24  C   UNL     1       5.492   1.081  21.371  0.00  0.00    +0.000 C 
ATOM     25  N   UNL     1       5.059   2.214  20.579  0.00  0.00    +0.000 N 
ATOM     26  H   UNL     1       5.843   2.741  20.194  0.00  0.00    +0.000 HD
ENDBRANCH  18  25
ENDBRANCH  16  23
ENDBRANCH  15  16
ENDBRANCH   1  15
TORSDOF 8
ENDMDL
MODEL 4
REMARK VINA RESULT:      -6.6      1.990      2.715
REMARK  Name = 
REMARK  11 active torsions:
REMARK  status: ('A' for Active; 'I' for Inactive)
REMARK    1  A    between atoms: C_1  and  N_2
REMARK    2  A    between atoms: N_2  and  C_3
REMARK    3  A    between atoms: C_6  and  C_7
REMARK    4  A    between atoms: C_8  and  C_9
REMARK    5  A    between atoms: C_9  and  O_11
REMARK    6  A    between atoms: O_11  and  C_12
REMARK    7  A    between atoms: C_12  and  C_13
REMARK    8  A    between atoms: N_15  and  C_16
REMARK    9  A    between atoms: C_16  and  C_17
REMARK   10  A    between atoms: C_22  and  O_23
REMARK   11  A    between atoms: O_23  and  C_24
REMARK                            x       y       z     vdW  Elec       q    Type
REMARK                         _______ _______ _______ _____ _____    ______ ____
ROOT
ATOM      1  C   UNL     1       7.236   6.752  17.079  0.00  0.00    +0.000 C 
ENDROOT
BRANCH   1   2
ATOM      2  C   UNL     1       7.953   6.928  18.421  0.00  0.00    +0.000 C 
ATOM      3  O   UNL     1       8.057   6.006  19.233  0.00  0.00    +0.000 OA
ATOM      4  N   UNL     1       8.468   8.150  18.742  0.00  0.00    +0.000 N 
ATOM      5  H   UNL     1       8.882   8.196  19.664  0.00  0.00    +0.000 HD
BRANCH   4   6
ATOM      6  C   UNL     1       8.339   9.378  17.985  0.00  0.00    +0.000 C 
BRANCH   6   7
ATOM      7  C   UNL     1       8.998  10.577  18.625  0.00  0.00    +0.000 A 
ATOM      8  C   UNL     1       9.866  10.386  19.727  0.00  0.00    +0.000 A 
ATOM      9  C   UNL     1      10.471  11.457  20.387  0.00  0.00    +0.000 A 
ATOM     10  C   UNL     1      10.249  12.749  19.940  0.00  0.00    +0.000 A 
ATOM     11  C   UNL     1       9.411  12.962  18.847  0.00  0.00    +0.000 A 
ATOM     12  C   UNL     1       8.782  11.895  18.182  0.00  0.00    +0.000 A 
BRANCH  12  13
ATOM     13  O   UNL     1       7.916  12.328  17.215  0.00  0.00    +0.000 OA
ATOM     14  C   UNL     1       7.298  13.598  17.352  0.00  0.00    +0.000 C 
ENDBRANCH  12  13
ENDBRANCH   6   7
ENDBRANCH   4   6
ENDBRANCH   1   2
BRANCH   1  15
ATOM     15  O   UNL     1       5.848   7.053  17.184  0.00  0.00    +0.000 OA
BRANCH  15  16
ATOM     16  C   UNL     1       5.031   5.964  17.030  0.00  0.00    +0.000 C 
ATOM     17  O   UNL     1       5.079   5.222  16.057  0.00  0.00    +0.000 OA
BRANCH  16  23
ATOM     18  C   UNL     1       4.024   4.679  18.974  0.00  0.00    +0.000 A 
ATOM     19  S   UNL     1       2.763   4.960  20.112  0.00  0.00    +0.000 S 
ATOM     20  N   UNL     1       2.302   6.430  19.535  0.00  0.00    +0.000 NA
ATOM     21  C   UNL     1       3.073   6.752  18.497  0.00  0.00    +0.000 A 
ATOM     22  C   UNL     1       2.812   8.060  17.829  0.00  0.00    +0.000 C 
ATOM     23  C   UNL     1       4.088   5.789  18.131  0.00  0.00    +0.000 A 
BRANCH  18  25
ATOM     24  C   UNL     1       4.486   2.394  19.736  0.00  0.00    +0.000 C 
ATOM     25  N   UNL     1       4.822   3.565  18.952  0.00  0.00    +0.000 N 
ATOM     26  H   UNL     1       5.216   3.324  18.043  0.00  0.00    +0.000 HD
ENDBRANCH  18  25
ENDBRANCH  16  23
ENDBRANCH  15  16
ENDBRANCH   1  15
TORSDOF 8
ENDMDL
MODEL 5
REMARK VINA RESULT:      -6.6      4.667      7.287
REMARK  Name = 
REMARK  11 active torsions:
REMARK  status: ('A' for Active; 'I' for Inactive)
REMARK    1  A    between atoms: C_1  and  N_2
REMARK    2  A    between atoms: N_2  and  C_3
REMARK    3  A    between atoms: C_6  and  C_7
REMARK    4  A    between atoms: C_8  and  C_9
REMARK    5  A    between atoms: C_9  and  O_11
REMARK    6  A    between atoms: O_11  and  C_12
REMARK    7  A    between atoms: C_12  and  C_13
REMARK    8  A    between atoms: N_15  and  C_16
REMARK    9  A    between atoms: C_16  and  C_17
REMARK   10  A    between atoms: C_22  and  O_23
REMARK   11  A    between atoms: O_23  and  C_24
REMARK                            x       y       z     vdW  Elec       q    Type
REMARK                         _______ _______ _______ _____ _____    ______ ____
ROOT
ATOM      1  C   UNL     1       3.357   5.859  19.469  0.00  0.00    +0.000 C 
ENDROOT
BRANCH   1   2
ATOM      2  C   UNL     1       2.287   5.688  20.552  0.00  0.00    +0.000 C 
ATOM      3  O   UNL     1       2.026   4.589  21.046  0.00  0.00    +0.000 OA
ATOM      4  N   UNL     1       1.582   6.781  20.965  0.00  0.00    +0.000 N 
ATOM      5  H   UNL     1       0.863   6.576  21.646  0.00  0.00    +0.000 HD
BRANCH   4   6
ATOM      6  C   UNL     1       1.653   8.122  20.422  0.00  0.00    +0.000 C 
BRANCH   6   7
ATOM      7  C   UNL     1       0.776   9.128  21.131  0.00  0.00    +0.000 A 
ATOM      8  C   UNL     1       0.476   8.944  22.502  0.00  0.00    +0.000 A 
ATOM      9  C   UNL     1      -0.362   9.814  23.199  0.00  0.00    +0.000 A 
ATOM     10  C   UNL     1      -0.898  10.915  22.551  0.00  0.00    +0.000 A 
ATOM     11  C   UNL     1      -0.604  11.127  21.205  0.00  0.00    +0.000 A 
ATOM     12  C   UNL     1       0.226  10.251  20.485  0.00  0.00    +0.000 A 
BRANCH  12  13
ATOM     13  O   UNL     1       0.292  10.575  19.157  0.00  0.00    +0.000 OA
ATOM     14  C   UNL     1       1.446  11.232  18.657  0.00  0.00    +0.000 C 
ENDBRANCH  12  13
ENDBRANCH   6   7
ENDBRANCH   4   6
ENDBRANCH   1   2
BRANCH   1  15
ATOM     15  O   UNL     1       4.604   5.302  19.874  0.00  0.00    +0.000 OA
BRANCH  15  16
ATOM     16  C   UNL     1       4.889   4.097  19.287  0.00  0.00    +0.000 C 
ATOM     17  O   UNL     1       4.740   3.023  19.855  0.00  0.00    +0.000 OA
BRANCH  16  23
ATOM     18  C   UNL     1       6.692   4.637  17.584  0.00  0.00    +0.000 A 
ATOM     19  S   UNL     1       6.810   4.605  15.867  0.00  0.00    +0.000 S 
ATOM     20  N   UNL     1       5.270   4.109  15.573  0.00  0.00    +0.000 NA
ATOM     21  C   UNL     1       4.636   3.945  16.733  0.00  0.00    +0.000 A 
ATOM     22  C   UNL     1       3.215   3.493  16.681  0.00  0.00    +0.000 C 
ATOM     23  C   UNL     1       5.404   4.225  17.927  0.00  0.00    +0.000 A 
BRANCH  18  25
ATOM     24  C   UNL     1       7.947   6.364  18.793  0.00  0.00    +0.000 C 
ATOM     25  N   UNL     1       7.714   4.980  18.430  0.00  0.00    +0.000 N 
ATOM     26  H   UNL     1       7.873   4.342  19.210  0.00  0.00    +0.000 HD
ENDBRANCH  18  25
ENDBRANCH  16  23
ENDBRANCH  15  16
ENDBRANCH   1  15
TORSDOF 8
ENDMDL
MODEL 6
REMARK VINA RESULT:      -6.6      4.419      7.049
REMARK  Name = 
REMARK  11 active torsions:
REMARK  status: ('A' for Active; 'I' for Inactive)
REMARK    1  A    between atoms: C_1  and  N_2
REMARK    2  A    between atoms: N_2  and  C_3
REMARK    3  A    between atoms: C_6  and  C_7
REMARK    4  A    between atoms: C_8  and  C_9
REMARK    5  A    between atoms: C_9  and  O_11
REMARK    6  A    between atoms: O_11  and  C_12
REMARK    7  A    between atoms: C_12  and  C_13
REMARK    8  A    between atoms: N_15  and  C_16
REMARK    9  A    between atoms: C_16  and  C_17
REMARK   10  A    between atoms: C_22  and  O_23
REMARK   11  A    between atoms: O_23  and  C_24
REMARK                            x       y       z     vdW  Elec       q    Type
REMARK                         _______ _______ _______ _____ _____    ______ ____
ROOT
ATOM      1  C   UNL     1       3.610   3.033  20.512  0.00  0.00    +0.000 C 
ENDROOT
BRANCH   1   2
ATOM      2  C   UNL     1       2.130   3.205  20.156  0.00  0.00    +0.000 C 
ATOM      3  O   UNL     1       1.475   2.303  19.630  0.00  0.00    +0.000 OA
ATOM      4  N   UNL     1       1.523   4.402  20.403  0.00  0.00    +0.000 N 
ATOM      5  H   UNL     1       0.560   4.449  20.096  0.00  0.00    +0.000 HD
BRANCH   4   6
ATOM      6  C   UNL     1       2.148   5.612  20.896  0.00  0.00    +0.000 C 
BRANCH   6   7
ATOM      7  C   UNL     1       2.069   6.785  19.946  0.00  0.00    +0.000 A 
ATOM      8  C   UNL     1       2.588   6.652  18.635  0.00  0.00    +0.000 A 
ATOM      9  C   UNL     1       2.583   7.712  17.727  0.00  0.00    +0.000 A 
ATOM     10  C   UNL     1       2.027   8.926  18.095  0.00  0.00    +0.000 A 
ATOM     11  C   UNL     1       1.495   9.076  19.375  0.00  0.00    +0.000 A 
ATOM     12  C   UNL     1       1.507   8.023  20.306  0.00  0.00    +0.000 A 
BRANCH  12  13
ATOM     13  O   UNL     1       1.044   8.413  21.533  0.00  0.00    +0.000 OA
ATOM     14  C   UNL     1      -0.315   8.795  21.675  0.00  0.00    +0.000 C 
ENDBRANCH  12  13
ENDBRANCH   6   7
ENDBRANCH   4   6
ENDBRANCH   1   2
BRANCH   1  15
ATOM     15  O   UNL     1       4.426   2.984  19.345  0.00  0.00    +0.000 OA
BRANCH  15  16
ATOM     16  C   UNL     1       5.137   4.132  19.117  0.00  0.00    +0.000 C 
ATOM     17  O   UNL     1       5.456   4.911  20.007  0.00  0.00    +0.000 OA
BRANCH  16  23
ATOM     18  C   UNL     1       6.654   4.872  17.221  0.00  0.00    +0.000 A 
ATOM     19  S   UNL     1       6.548   4.903  15.503  0.00  0.00    +0.000 S 
ATOM     20  N   UNL     1       5.026   4.288  15.389  0.00  0.00    +0.000 NA
ATOM     21  C   UNL     1       4.565   4.037  16.613  0.00  0.00    +0.000 A 
ATOM     22  C   UNL     1       3.189   3.469  16.725  0.00  0.00    +0.000 C 
ATOM     23  C   UNL     1       5.458   4.343  17.708  0.00  0.00    +0.000 A 
BRANCH  18  25
ATOM     24  C   UNL     1       7.886   6.648  18.381  0.00  0.00    +0.000 C 
ATOM     25  N   UNL     1       7.747   5.274  17.943  0.00  0.00    +0.000 N 
ATOM     26  H   UNL     1       8.084   4.608  18.638  0.00  0.00    +0.000 HD
ENDBRANCH  18  25
ENDBRANCH  16  23
ENDBRANCH  15  16
ENDBRANCH   1  15
TORSDOF 8
ENDMDL
MODEL 7
REMARK VINA RESULT:      -6.5      5.298      7.333
REMARK  Name = 
REMARK  11 active torsions:
REMARK  status: ('A' for Active; 'I' for Inactive)
REMARK    1  A    between atoms: C_1  and  N_2
REMARK    2  A    between atoms: N_2  and  C_3
REMARK    3  A    between atoms: C_6  and  C_7
REMARK    4  A    between atoms: C_8  and  C_9
REMARK    5  A    between atoms: C_9  and  O_11
REMARK    6  A    between atoms: O_11  and  C_12
REMARK    7  A    between atoms: C_12  and  C_13
REMARK    8  A    between atoms: N_15  and  C_16
REMARK    9  A    between atoms: C_16  and  C_17
REMARK   10  A    between atoms: C_22  and  O_23
REMARK   11  A    between atoms: O_23  and  C_24
REMARK                            x       y       z     vdW  Elec       q    Type
REMARK                         _______ _______ _______ _____ _____    ______ ____
ROOT
ATOM      1  C   UNL     1       5.491   5.923  17.629  0.00  0.00    +0.000 C 
ENDROOT
BRANCH   1   2
ATOM      2  C   UNL     1       6.257   4.597  17.589  0.00  0.00    +0.000 C 
ATOM      3  O   UNL     1       7.032   4.262  18.487  0.00  0.00    +0.000 OA
ATOM      4  N   UNL     1       6.098   3.771  16.514  0.00  0.00    +0.000 N 
ATOM      5  H   UNL     1       6.673   2.940  16.541  0.00  0.00    +0.000 HD
BRANCH   4   6
ATOM      6  C   UNL     1       5.336   4.041  15.311  0.00  0.00    +0.000 C 
BRANCH   6   7
ATOM      7  C   UNL     1       6.180   4.294  14.083  0.00  0.00    +0.000 A 
ATOM      8  C   UNL     1       7.295   5.160  14.174  0.00  0.00    +0.000 A 
ATOM      9  C   UNL     1       8.086   5.466  13.066  0.00  0.00    +0.000 A 
ATOM     10  C   UNL     1       7.802   4.886  11.841  0.00  0.00    +0.000 A 
ATOM     11  C   UNL     1       6.718   4.016  11.730  0.00  0.00    +0.000 A 
ATOM     12  C   UNL     1       5.903   3.711  12.833  0.00  0.00    +0.000 A 
BRANCH  12  13
ATOM     13  O   UNL     1       4.832   2.933  12.485  0.00  0.00    +0.000 OA
ATOM     14  C   UNL     1       4.196   3.144  11.234  0.00  0.00    +0.000 C 
ENDBRANCH  12  13
ENDBRANCH   6   7
ENDBRANCH   4   6
ENDBRANCH   1   2
BRANCH   1  15
ATOM     15  O   UNL     1       4.575   5.965  18.719  0.00  0.00    +0.000 OA
BRANCH  15  16
ATOM     16  C   UNL     1       3.433   5.238  18.511  0.00  0.00    +0.000 C 
ATOM     17  O   UNL     1       2.782   5.292  17.475  0.00  0.00    +0.000 OA
BRANCH  16  23
ATOM     18  C   UNL     1       3.475   3.093  19.869  0.00  0.00    +0.000 A 
ATOM     19  S   UNL     1       2.782   2.565  21.354  0.00  0.00    +0.000 S 
ATOM     20  N   UNL     1       1.967   3.952  21.695  0.00  0.00    +0.000 NA
ATOM     21  C   UNL     1       2.194   4.840  20.729  0.00  0.00    +0.000 A 
ATOM     22  C   UNL     1       1.539   6.175  20.855  0.00  0.00    +0.000 C 
ATOM     23  C   UNL     1       3.061   4.408  19.654  0.00  0.00    +0.000 A 
BRANCH  18  25
ATOM     24  C   UNL     1       3.776   1.292  18.231  0.00  0.00    +0.000 C 
ATOM     25  N   UNL     1       4.305   2.338  19.083  0.00  0.00    +0.000 N 
ATOM     26  H   UNL     1       5.075   2.843  18.645  0.00  0.00    +0.000 HD
ENDBRANCH  18  25
ENDBRANCH  16  23
ENDBRANCH  15  16
ENDBRANCH   1  15
TORSDOF 8
ENDMDL
MODEL 8
REMARK VINA RESULT:      -6.5      6.845     10.424
REMARK  Name = 
REMARK  11 active torsions:
REMARK  status: ('A' for Active; 'I' for Inactive)
REMARK    1  A    between atoms: C_1  and  N_2
REMARK    2  A    between atoms: N_2  and  C_3
REMARK    3  A    between atoms: C_6  and  C_7
REMARK    4  A    between atoms: C_8  and  C_9
REMARK    5  A    between atoms: C_9  and  O_11
REMARK    6  A    between atoms: O_11  and  C_12
REMARK    7  A    between atoms: C_12  and  C_13
REMARK    8  A    between atoms: N_15  and  C_16
REMARK    9  A    between atoms: C_16  and  C_17
REMARK   10  A    between atoms: C_22  and  O_23
REMARK   11  A    between atoms: O_23  and  C_24
REMARK                            x       y       z     vdW  Elec       q    Type
REMARK                         _______ _______ _______ _____ _____    ______ ____
ROOT
ATOM      1  C   UNL     1       1.045   9.387  19.161  0.00  0.00    +0.000 C 
ENDROOT
BRANCH   1   2
ATOM      2  C   UNL     1       2.063   8.675  18.265  0.00  0.00    +0.000 C 
ATOM      3  O   UNL     1       2.392   9.122  17.164  0.00  0.00    +0.000 OA
ATOM      4  N   UNL     1       2.602   7.493  18.684  0.00  0.00    +0.000 N 
ATOM      5  H   UNL     1       3.228   7.063  18.016  0.00  0.00    +0.000 HD
BRANCH   4   6
ATOM      6  C   UNL     1       2.254   6.749  19.877  0.00  0.00    +0.000 C 
BRANCH   6   7
ATOM      7  C   UNL     1       2.039   5.270  19.648  0.00  0.00    +0.000 A 
ATOM      8  C   UNL     1       1.218   4.541  20.542  0.00  0.00    +0.000 A 
ATOM      9  C   UNL     1       1.017   3.167  20.408  0.00  0.00    +0.000 A 
ATOM     10  C   UNL     1       1.607   2.489  19.354  0.00  0.00    +0.000 A 
ATOM     11  C   UNL     1       2.407   3.188  18.451  0.00  0.00    +0.000 A 
ATOM     12  C   UNL     1       2.631   4.569  18.582  0.00  0.00    +0.000 A 
BRANCH  12  13
ATOM     13  O   UNL     1       3.534   5.035  17.665  0.00  0.00    +0.000 OA
ATOM     14  C   UNL     1       4.241   4.111  16.852  0.00  0.00    +0.000 C 
ENDBRANCH  12  13
ENDBRANCH   6   7
ENDBRANCH   4   6
ENDBRANCH   1   2
BRANCH   1  15
ATOM     15  O   UNL     1      -0.042   9.911  18.403  0.00  0.00    +0.000 OA
BRANCH  15  16
ATOM     16  C   UNL     1      -0.357  11.208  18.712  0.00  0.00    +0.000 C 
ATOM     17  O   UNL     1       0.475  12.037  19.056  0.00  0.00    +0.000 OA
BRANCH  16  23
ATOM     18  C   UNL     1      -2.570  11.301  17.471  0.00  0.00    +0.000 A 
ATOM     19  S   UNL     1      -4.179  11.773  17.861  0.00  0.00    +0.000 S 
ATOM     20  N   UNL     1      -3.880  12.229  19.413  0.00  0.00    +0.000 NA
ATOM     21  C   UNL     1      -2.590  12.035  19.683  0.00  0.00    +0.000 A 
ATOM     22  C   UNL     1      -2.114  12.390  21.052  0.00  0.00    +0.000 C 
ATOM     23  C   UNL     1      -1.785  11.495  18.608  0.00  0.00    +0.000 A 
BRANCH  18  25
ATOM     24  C   UNL     1      -2.984   9.821  15.559  0.00  0.00    +0.000 C 
ATOM     25  N   UNL     1      -2.176  10.799  16.258  0.00  0.00    +0.000 N 
ATOM     26  H   UNL     1      -1.743  11.471  15.624  0.00  0.00    +0.000 HD
ENDBRANCH  18  25
ENDBRANCH  16  23
ENDBRANCH  15  16
ENDBRANCH   1  15
TORSDOF 8
ENDMDL
MODEL 9
REMARK VINA RESULT:      -6.5      4.939      7.155
REMARK  Name = 
REMARK  11 active torsions:
REMARK  status: ('A' for Active; 'I' for Inactive)
REMARK    1  A    between atoms: C_1  and  N_2
REMARK    2  A    between atoms: N_2  and  C_3
REMARK    3  A    between atoms: C_6  and  C_7
REMARK    4  A    between atoms: C_8  and  C_9
REMARK    5  A    between atoms: C_9  and  O_11
REMARK    6  A    between atoms: O_11  and  C_12
REMARK    7  A    between atoms: C_12  and  C_13
REMARK    8  A    between atoms: N_15  and  C_16
REMARK    9  A    between atoms: C_16  and  C_17
REMARK   10  A    between atoms: C_22  and  O_23
REMARK   11  A    between atoms: O_23  and  C_24
REMARK                            x       y       z     vdW  Elec       q    Type
REMARK                         _______ _______ _______ _____ _____    ______ ____
ROOT
ATOM      1  C   UNL     1       6.597   5.813  18.012  0.00  0.00    +0.000 C 
ENDROOT
BRANCH   1   2
ATOM      2  C   UNL     1       7.350   4.589  17.483  0.00  0.00    +0.000 C 
ATOM      3  O   UNL     1       8.380   4.173  18.017  0.00  0.00    +0.000 OA
ATOM      4  N   UNL     1       6.882   3.954  16.369  0.00  0.00    +0.000 N 
ATOM      5  H   UNL     1       7.461   3.185  16.057  0.00  0.00    +0.000 HD
BRANCH   4   6
ATOM      6  C   UNL     1       5.771   4.360  15.534  0.00  0.00    +0.000 C 
BRANCH   6   7
ATOM      7  C   UNL     1       5.989   4.140  14.055  0.00  0.00    +0.000 A 
ATOM      8  C   UNL     1       5.068   3.350  13.327  0.00  0.00    +0.000 A 
ATOM      9  C   UNL     1       5.240   3.076  11.970  0.00  0.00    +0.000 A 
ATOM     10  C   UNL     1       6.322   3.614  11.294  0.00  0.00    +0.000 A 
ATOM     11  C   UNL     1       7.234   4.409  11.985  0.00  0.00    +0.000 A 
ATOM     12  C   UNL     1       7.084   4.682  13.356  0.00  0.00    +0.000 A 
BRANCH  12  13
ATOM     13  O   UNL     1       8.145   5.382  13.863  0.00  0.00    +0.000 OA
ATOM     14  C   UNL     1       9.016   6.066  12.976  0.00  0.00    +0.000 C 
ENDBRANCH  12  13
ENDBRANCH   6   7
ENDBRANCH   4   6
ENDBRANCH   1   2
BRANCH   1  15
ATOM     15  O   UNL     1       5.584   5.443  18.942  0.00  0.00    +0.000 OA
BRANCH  15  16
ATOM     16  C   UNL     1       4.322   5.821  18.567  0.00  0.00    +0.000 C 
ATOM     17  O   UNL     1       4.100   6.589  17.639  0.00  0.00    +0.000 OA
BRANCH  16  23
ATOM     18  C   UNL     1       3.107   3.871  19.645  0.00  0.00    +0.000 A 
ATOM     19  S   UNL     1       1.745   3.693  20.683  0.00  0.00    +0.000 S 
ATOM     20  N   UNL     1       1.368   5.291  20.788  0.00  0.00    +0.000 NA
ATOM     21  C   UNL     1       2.243   5.993  20.069  0.00  0.00    +0.000 A 
ATOM     22  C   UNL     1       2.071   7.474  20.036  0.00  0.00    +0.000 C 
ATOM     23  C   UNL     1       3.272   5.233  19.394  0.00  0.00    +0.000 A 
BRANCH  18  25
ATOM     24  C   UNL     1       3.654   2.247  17.889  0.00  0.00    +0.000 C 
ATOM     25  N   UNL     1       3.884   2.836  19.193  0.00  0.00    +0.000 N 
ATOM     26  H   UNL     1       4.876   2.899  19.421  0.00  0.00    +0.000 HD
ENDBRANCH  18  25
ENDBRANCH  16  23
ENDBRANCH  15  16
ENDBRANCH   1  15
TORSDOF 8
ENDMDL
