MODEL 1
REMARK VINA RESULT:      -5.1      0.000      0.000
REMARK  Name = 
REMARK  5 active torsions:
REMARK  status: ('A' for Active; 'I' for Inactive)
REMARK    1  A    between atoms: C_1  and  C_2
REMARK    2  A    between atoms: C_2  and  C_3
REMARK    3  A    between atoms: C_6  and  C_7
REMARK    4  A    between atoms: C_7  and  C_8
REMARK    5  A    between atoms: C_8  and  N_9
REMARK                            x       y       z     vdW  Elec       q    Type
REMARK                         _______ _______ _______ _____ _____    ______ ____
ROOT
ATOM      1  C   UNL     1       6.511   4.349  14.573  0.00  0.00    +0.000 A 
ATOM      2  N   UNL     1       7.259   5.467  14.488  0.00  0.00    +0.000 NA
ATOM      3  N   UNL     1       7.579   5.787  15.730  0.00  0.00    +0.000 N 
ATOM      4  C   UNL     1       7.026   4.870  16.545  0.00  0.00    +0.000 A 
ATOM      5  N   UNL     1       6.345   3.944  15.848  0.00  0.00    +0.000 NA
ATOM      6  H   UNL     1       8.153   6.615  16.003  0.00  0.00    +0.000 HD
ENDROOT
BRANCH   1   8
ATOM      7  C   UNL     1       6.790   3.839  12.162  0.00  0.00    +0.000 C 
ATOM      8  C   UNL     1       5.920   3.642  13.397  0.00  0.00    +0.000 C 
ENDBRANCH   1   8
BRANCH   4   9
ATOM      9  C   UNL     1       7.122   4.883  18.040  0.00  0.00    +0.000 C 
BRANCH   9  10
ATOM     10  C   UNL     1       5.738   4.746  18.687  0.00  0.00    +0.000 C 
BRANCH  10  11
ATOM     11  N   UNL     1       5.387   3.341  18.887  0.00  0.00    +0.000 NA
ATOM     12  H   UNL     1       5.506   2.819  17.987  0.00  0.00    +0.000 HD
ATOM     13  H   UNL     1       4.375   3.287  19.140  0.00  0.00    +0.000 HD
ENDBRANCH  10  11
ENDBRANCH   9  10
ENDBRANCH   4   9
TORSDOF 4
ENDMDL
MODEL 2
REMARK VINA RESULT:      -5.1      0.989      1.041
REMARK  Name = 
REMARK  5 active torsions:
REMARK  status: ('A' for Active; 'I' for Inactive)
REMARK    1  A    between atoms: C_1  and  C_2
REMARK    2  A    between atoms: C_2  and  C_3
REMARK    3  A    between atoms: C_6  and  C_7
REMARK    4  A    between atoms: C_7  and  C_8
REMARK    5  A    between atoms: C_8  and  N_9
REMARK                            x       y       z     vdW  Elec       q    Type
REMARK                         _______ _______ _______ _____ _____    ______ ____
ROOT
ATOM      1  C   UNL     1       6.366   4.565  14.510  0.00  0.00    +0.000 A 
ATOM      2  N   UNL     1       7.527   5.211  14.728  0.00  0.00    +0.000 NA
ATOM      3  N   UNL     1       7.362   5.893  15.848  0.00  0.00    +0.000 N 
ATOM      4  C   UNL     1       6.114   5.655  16.291  0.00  0.00    +0.000 A 
ATOM      5  N   UNL     1       5.455   4.818  15.471  0.00  0.00    +0.000 NA
ATOM      6  H   UNL     1       8.083   6.506  16.285  0.00  0.00    +0.000 HD
ENDROOT
BRANCH   1   8
ATOM      7  C   UNL     1       6.999   4.066  12.163  0.00  0.00    +0.000 C 
ATOM      8  C   UNL     1       6.105   3.678  13.335  0.00  0.00    +0.000 C 
ENDBRANCH   1   8
BRANCH   4   9
ATOM      9  C   UNL     1       5.510   6.262  17.520  0.00  0.00    +0.000 C 
BRANCH   9  10
ATOM     10  C   UNL     1       5.707   5.354  18.741  0.00  0.00    +0.000 C 
BRANCH  10  11
ATOM     11  N   UNL     1       6.441   4.141  18.384  0.00  0.00    +0.000 NA
ATOM     12  H   UNL     1       7.326   4.091  18.940  0.00  0.00    +0.000 HD
ATOM     13  H   UNL     1       6.714   4.205  17.378  0.00  0.00    +0.000 HD
ENDBRANCH  10  11
ENDBRANCH   9  10
ENDBRANCH   4   9
TORSDOF 4
ENDMDL
MODEL 3
REMARK VINA RESULT:      -5.1      2.642      3.763
REMARK  Name = 
REMARK  5 active torsions:
REMARK  status: ('A' for Active; 'I' for Inactive)
REMARK    1  A    between atoms: C_1  and  C_2
REMARK    2  A    between atoms: C_2  and  C_3
REMARK    3  A    between atoms: C_6  and  C_7
REMARK    4  A    between atoms: C_7  and  C_8
REMARK    5  A    between atoms: C_8  and  N_9
REMARK                            x       y       z     vdW  Elec       q    Type
REMARK                         _______ _______ _______ _____ _____    ______ ____
ROOT
ATOM      1  C   UNL     1       7.131   5.723  17.826  0.00  0.00    +0.000 A 
ATOM      2  N   UNL     1       7.641   4.755  17.040  0.00  0.00    +0.000 NA
ATOM      3  N   UNL     1       6.626   3.968  16.725  0.00  0.00    +0.000 N 
ATOM      4  C   UNL     1       5.525   4.463  17.318  0.00  0.00    +0.000 A 
ATOM      5  N   UNL     1       5.805   5.574  18.021  0.00  0.00    +0.000 NA
ATOM      6  H   UNL     1       6.696   3.116  16.127  0.00  0.00    +0.000 HD
ENDROOT
BRANCH   1   8
ATOM      7  C   UNL     1       7.803   8.100  17.595  0.00  0.00    +0.000 C 
ATOM      8  C   UNL     1       7.936   6.830  18.426  0.00  0.00    +0.000 C 
ENDBRANCH   1   8
BRANCH   4   9
ATOM      9  C   UNL     1       4.161   3.850  17.240  0.00  0.00    +0.000 C 
BRANCH   9  10
ATOM     10  C   UNL     1       3.810   3.108  18.536  0.00  0.00    +0.000 C 
BRANCH  10  11
ATOM     11  N   UNL     1       5.008   2.835  19.328  0.00  0.00    +0.000 NA
ATOM     12  H   UNL     1       5.644   3.665  19.299  0.00  0.00    +0.000 HD
ATOM     13  H   UNL     1       5.521   2.040  18.886  0.00  0.00    +0.000 HD
ENDBRANCH  10  11
ENDBRANCH   9  10
ENDBRANCH   4   9
TORSDOF 4
ENDMDL
MODEL 4
REMARK VINA RESULT:      -5.1      1.440      2.004
REMARK  Name = 
REMARK  5 active torsions:
REMARK  status: ('A' for Active; 'I' for Inactive)
REMARK    1  A    between atoms: C_1  and  C_2
REMARK    2  A    between atoms: C_2  and  C_3
REMARK    3  A    between atoms: C_6  and  C_7
REMARK    4  A    between atoms: C_7  and  C_8
REMARK    5  A    between atoms: C_8  and  N_9
REMARK                            x       y       z     vdW  Elec       q    Type
REMARK                         _______ _______ _______ _____ _____    ______ ____
ROOT
ATOM      1  C   UNL     1       6.938   4.732  16.085  0.00  0.00    +0.000 A 
ATOM      2  N   UNL     1       7.917   4.285  16.895  0.00  0.00    +0.000 NA
ATOM      3  N   UNL     1       7.438   4.361  18.125  0.00  0.00    +0.000 N 
ATOM      4  C   UNL     1       6.187   4.849  18.046  0.00  0.00    +0.000 A 
ATOM      5  N   UNL     1       5.836   5.093  16.772  0.00  0.00    +0.000 NA
ATOM      6  H   UNL     1       7.961   4.093  18.987  0.00  0.00    +0.000 HD
ENDROOT
BRANCH   1   8
ATOM      7  C   UNL     1       6.037   3.923  13.920  0.00  0.00    +0.000 C 
ATOM      8  C   UNL     1       7.056   4.830  14.598  0.00  0.00    +0.000 C 
ENDBRANCH   1   8
BRANCH   4   9
ATOM      9  C   UNL     1       5.298   5.121  19.221  0.00  0.00    +0.000 C 
BRANCH   9  10
ATOM     10  C   UNL     1       4.268   3.999  19.410  0.00  0.00    +0.000 C 
BRANCH  10  11
ATOM     11  N   UNL     1       4.645   2.805  18.654  0.00  0.00    +0.000 NA
ATOM     12  H   UNL     1       4.895   2.035  19.317  0.00  0.00    +0.000 HD
ATOM     13  H   UNL     1       5.502   3.023  18.099  0.00  0.00    +0.000 HD
ENDBRANCH  10  11
ENDBRANCH   9  10
ENDBRANCH   4   9
TORSDOF 4
ENDMDL
MODEL 5
REMARK VINA RESULT:      -5.0      3.167      4.231
REMARK  Name = 
REMARK  5 active torsions:
REMARK  status: ('A' for Active; 'I' for Inactive)
REMARK    1  A    between atoms: C_1  and  C_2
REMARK    2  A    between atoms: C_2  and  C_3
REMARK    3  A    between atoms: C_6  and  C_7
REMARK    4  A    between atoms: C_7  and  C_8
REMARK    5  A    between atoms: C_8  and  N_9
REMARK                            x       y       z     vdW  Elec       q    Type
REMARK                         _______ _______ _______ _____ _____    ______ ____
ROOT
ATOM      1  C   UNL     1       4.077   3.728  17.789  0.00  0.00    +0.000 A 
ATOM      2  N   UNL     1       4.386   3.344  19.042  0.00  0.00    +0.000 NA
ATOM      3  N   UNL     1       5.628   3.746  19.252  0.00  0.00    +0.000 N 
ATOM      4  C   UNL     1       6.053   4.360  18.133  0.00  0.00    +0.000 A 
ATOM      5  N   UNL     1       5.098   4.370  17.187  0.00  0.00    +0.000 NA
ATOM      6  H   UNL     1       6.164   3.592  20.134  0.00  0.00    +0.000 HD
ENDROOT
BRANCH   1   8
ATOM      7  C   UNL     1       1.655   4.263  17.807  0.00  0.00    +0.000 C 
ATOM      8  C   UNL     1       2.761   3.465  17.129  0.00  0.00    +0.000 C 
ENDBRANCH   1   8
BRANCH   4   9
ATOM      9  C   UNL     1       7.422   4.937  17.940  0.00  0.00    +0.000 C 
BRANCH   9  10
ATOM     10  C   UNL     1       7.724   6.015  18.990  0.00  0.00    +0.000 C 
BRANCH  10  11
ATOM     11  N   UNL     1       8.010   5.416  20.292  0.00  0.00    +0.000 NA
ATOM     12  H   UNL     1       8.275   4.411  20.166  0.00  0.00    +0.000 HD
ATOM     13  H   UNL     1       7.134   5.432  20.862  0.00  0.00    +0.000 HD
ENDBRANCH  10  11
ENDBRANCH   9  10
ENDBRANCH   4   9
TORSDOF 4
ENDMDL
MODEL 6
REMARK VINA RESULT:      -5.0      1.280      1.382
REMARK  Name = 
REMARK  5 active torsions:
REMARK  status: ('A' for Active; 'I' for Inactive)
REMARK    1  A    between atoms: C_1  and  C_2
REMARK    2  A    between atoms: C_2  and  C_3
REMARK    3  A    between atoms: C_6  and  C_7
REMARK    4  A    between atoms: C_7  and  C_8
REMARK    5  A    between atoms: C_8  and  N_9
REMARK                            x       y       z     vdW  Elec       q    Type
REMARK                         _______ _______ _______ _____ _____    ______ ____
ROOT
ATOM      1  C   UNL     1       6.526   4.345  13.823  0.00  0.00    +0.000 A 
ATOM      2  N   UNL     1       7.509   5.195  14.177  0.00  0.00    +0.000 NA
ATOM      3  N   UNL     1       7.172   5.668  15.365  0.00  0.00    +0.000 N 
ATOM      4  C   UNL     1       6.000   5.106  15.712  0.00  0.00    +0.000 A 
ATOM      5  N   UNL     1       5.563   4.261  14.762  0.00  0.00    +0.000 NA
ATOM      6  H   UNL     1       7.729   6.361  15.911  0.00  0.00    +0.000 HD
ENDROOT
BRANCH   1   8
ATOM      7  C   UNL     1       5.059   3.399  12.060  0.00  0.00    +0.000 C 
ATOM      8  C   UNL     1       6.495   3.587  12.534  0.00  0.00    +0.000 C 
ENDBRANCH   1   8
BRANCH   4   9
ATOM      9  C   UNL     1       5.252   5.396  16.976  0.00  0.00    +0.000 C 
BRANCH   9  10
ATOM     10  C   UNL     1       5.724   4.491  18.121  0.00  0.00    +0.000 C 
BRANCH  10  11
ATOM     11  N   UNL     1       7.170   4.284  18.068  0.00  0.00    +0.000 NA
ATOM     12  H   UNL     1       7.445   3.982  17.105  0.00  0.00    +0.000 HD
ATOM     13  H   UNL     1       7.415   3.502  18.717  0.00  0.00    +0.000 HD
ENDBRANCH  10  11
ENDBRANCH   9  10
ENDBRANCH   4   9
TORSDOF 4
ENDMDL
MODEL 7
REMARK VINA RESULT:      -4.9      1.939      2.313
REMARK  Name = 
REMARK  5 active torsions:
REMARK  status: ('A' for Active; 'I' for Inactive)
REMARK    1  A    between atoms: C_1  and  C_2
REMARK    2  A    between atoms: C_2  and  C_3
REMARK    3  A    between atoms: C_6  and  C_7
REMARK    4  A    between atoms: C_7  and  C_8
REMARK    5  A    between atoms: C_8  and  N_9
REMARK                            x       y       z     vdW  Elec       q    Type
REMARK                         _______ _______ _______ _____ _____    ______ ____
ROOT
ATOM      1  C   UNL     1       6.508   3.873  13.074  0.00  0.00    +0.000 A 
ATOM      2  N   UNL     1       7.453   4.808  12.860  0.00  0.00    +0.000 NA
ATOM      3  N   UNL     1       7.693   5.361  14.036  0.00  0.00    +0.000 N 
ATOM      4  C   UNL     1       6.897   4.762  14.940  0.00  0.00    +0.000 A 
ATOM      5  N   UNL     1       6.135   3.813  14.368  0.00  0.00    +0.000 NA
ATOM      6  H   UNL     1       8.377   6.131  14.205  0.00  0.00    +0.000 HD
ENDROOT
BRANCH   1   8
ATOM      7  C   UNL     1       4.473   3.384  11.742  0.00  0.00    +0.000 C 
ATOM      8  C   UNL     1       5.925   3.006  12.005  0.00  0.00    +0.000 C 
ENDBRANCH   1   8
BRANCH   4   9
ATOM      9  C   UNL     1       6.834   5.115  16.394  0.00  0.00    +0.000 C 
BRANCH   9  10
ATOM     10  C   UNL     1       5.688   6.093  16.680  0.00  0.00    +0.000 C 
BRANCH  10  11
ATOM     11  N   UNL     1       5.198   6.706  15.446  0.00  0.00    +0.000 NA
ATOM     12  H   UNL     1       4.376   6.166  15.089  0.00  0.00    +0.000 HD
ATOM     13  H   UNL     1       5.949   6.636  14.723  0.00  0.00    +0.000 HD
ENDBRANCH  10  11
ENDBRANCH   9  10
ENDBRANCH   4   9
TORSDOF 4
ENDMDL
MODEL 8
REMARK VINA RESULT:      -4.8      1.416      1.702
REMARK  Name = 
REMARK  5 active torsions:
REMARK  status: ('A' for Active; 'I' for Inactive)
REMARK    1  A    between atoms: C_1  and  C_2
REMARK    2  A    between atoms: C_2  and  C_3
REMARK    3  A    between atoms: C_6  and  C_7
REMARK    4  A    between atoms: C_7  and  C_8
REMARK    5  A    between atoms: C_8  and  N_9
REMARK                            x       y       z     vdW  Elec       q    Type
REMARK                         _______ _______ _______ _____ _____    ______ ____
ROOT
ATOM      1  C   UNL     1       6.317   4.178  14.068  0.00  0.00    +0.000 A 
ATOM      2  N   UNL     1       7.230   5.150  13.874  0.00  0.00    +0.000 NA
ATOM      3  N   UNL     1       7.651   5.502  15.077  0.00  0.00    +0.000 N 
ATOM      4  C   UNL     1       6.994   4.748  15.977  0.00  0.00    +0.000 A 
ATOM      5  N   UNL     1       6.144   3.898  15.375  0.00  0.00    +0.000 NA
ATOM      6  H   UNL     1       8.361   6.242  15.267  0.00  0.00    +0.000 HD
ENDROOT
BRANCH   1   8
ATOM      7  C   UNL     1       6.519   3.092  11.847  0.00  0.00    +0.000 C 
ATOM      8  C   UNL     1       5.570   3.495  12.969  0.00  0.00    +0.000 C 
ENDBRANCH   1   8
BRANCH   4   9
ATOM      9  C   UNL     1       7.155   4.852  17.462  0.00  0.00    +0.000 C 
BRANCH   9  10
ATOM     10  C   UNL     1       7.443   6.296  17.891  0.00  0.00    +0.000 C 
BRANCH  10  11
ATOM     11  N   UNL     1       6.608   7.242  17.151  0.00  0.00    +0.000 NA
ATOM     12  H   UNL     1       7.094   7.522  16.268  0.00  0.00    +0.000 HD
ATOM     13  H   UNL     1       6.498   8.105  17.728  0.00  0.00    +0.000 HD
ENDBRANCH  10  11
ENDBRANCH   9  10
ENDBRANCH   4   9
TORSDOF 4
ENDMDL
MODEL 9
REMARK VINA RESULT:      -4.8      2.566      5.440
REMARK  Name = 
REMARK  5 active torsions:
REMARK  status: ('A' for Active; 'I' for Inactive)
REMARK    1  A    between atoms: C_1  and  C_2
REMARK    2  A    between atoms: C_2  and  C_3
REMARK    3  A    between atoms: C_6  and  C_7
REMARK    4  A    between atoms: C_7  and  C_8
REMARK    5  A    between atoms: C_8  and  N_9
REMARK                            x       y       z     vdW  Elec       q    Type
REMARK                         _______ _______ _______ _____ _____    ______ ____
ROOT
ATOM      1  C   UNL     1       3.467   3.037  19.298  0.00  0.00    +0.000 A 
ATOM      2  N   UNL     1       4.659   2.704  19.832  0.00  0.00    +0.000 NA
ATOM      3  N   UNL     1       5.563   3.411  19.177  0.00  0.00    +0.000 N 
ATOM      4  C   UNL     1       4.916   4.156  18.262  0.00  0.00    +0.000 A 
ATOM      5  N   UNL     1       3.589   3.947  18.312  0.00  0.00    +0.000 NA
ATOM      6  H   UNL     1       6.591   3.373  19.351  0.00  0.00    +0.000 HD
ENDROOT
BRANCH   1   8
ATOM      7  C   UNL     1       1.481   3.376  20.745  0.00  0.00    +0.000 C 
ATOM      8  C   UNL     1       2.160   2.459  19.735  0.00  0.00    +0.000 C 
ENDBRANCH   1   8
BRANCH   4   9
ATOM      9  C   UNL     1       5.577   5.081  17.287  0.00  0.00    +0.000 C 
BRANCH   9  10
ATOM     10  C   UNL     1       6.656   4.354  16.475  0.00  0.00    +0.000 C 
BRANCH  10  11
ATOM     11  N   UNL     1       7.900   4.238  17.235  0.00  0.00    +0.000 NA
ATOM     12  H   UNL     1       7.978   3.274  17.634  0.00  0.00    +0.000 HD
ATOM     13  H   UNL     1       7.857   4.902  18.040  0.00  0.00    +0.000 HD
ENDBRANCH  10  11
ENDBRANCH   9  10
ENDBRANCH   4   9
TORSDOF 4
ENDMDL
