MODEL 1
REMARK VINA RESULT:      -5.9      0.000      0.000
REMARK  Name = 
REMARK  3 active torsions:
REMARK  status: ('A' for Active; 'I' for Inactive)
REMARK    1  A    between atoms: C_2  and  C_3
REMARK    2  A    between atoms: N_5  and  C_6
REMARK    3  A    between atoms: C_6  and  C_7
REMARK                            x       y       z     vdW  Elec       q    Type
REMARK                         _______ _______ _______ _____ _____    ______ ____
ROOT
ATOM      1  C   UNL     1       3.718   2.837  17.783  0.00  0.00    +0.000 C 
ENDROOT
BRANCH   1   2
ATOM      2  C   UNL     1       4.666   4.005  17.719  0.00  0.00    +0.000 A 
ATOM      3  C   UNL     1       4.842   4.714  16.522  0.00  0.00    +0.000 A 
ATOM      4  C   UNL     1       5.711   5.806  16.466  0.00  0.00    +0.000 A 
ATOM      5  C   UNL     1       6.415   6.188  17.606  0.00  0.00    +0.000 A 
ATOM      6 BR   UNL     1       7.583   7.674  17.534  0.00  0.00    +0.000 Br
ATOM      7  C   UNL     1       6.263   5.485  18.799  0.00  0.00    +0.000 A 
ATOM      8  C   UNL     1       5.394   4.393  18.854  0.00  0.00    +0.000 A 
ENDBRANCH   1   2
BRANCH   1  11
ATOM      9  C   UNL     1       1.588   3.443  18.792  0.00  0.00    +0.000 C 
ATOM     10  O   UNL     1       1.138   3.864  17.734  0.00  0.00    +0.000 OA
ATOM     11  N   UNL     1       2.846   2.915  18.930  0.00  0.00    +0.000 N 
ATOM     12  H   UNL     1       3.182   2.584  19.823  0.00  0.00    +0.000 HD
BRANCH   9  14
ATOM     13  C   UNL     1       1.303   2.868  21.152  0.00  0.00    +0.000 C 
ATOM     14  C   UNL     1       0.810   3.457  20.056  0.00  0.00    +0.000 C 
ENDBRANCH   9  14
ENDBRANCH   1  11
TORSDOF 3
ENDMDL
MODEL 2
REMARK VINA RESULT:      -5.9      4.407      6.185
REMARK  Name = 
REMARK  3 active torsions:
REMARK  status: ('A' for Active; 'I' for Inactive)
REMARK    1  A    between atoms: C_2  and  C_3
REMARK    2  A    between atoms: N_5  and  C_6
REMARK    3  A    between atoms: C_6  and  C_7
REMARK                            x       y       z     vdW  Elec       q    Type
REMARK                         _______ _______ _______ _____ _____    ______ ____
ROOT
ATOM      1  C   UNL     1       6.549   4.577  14.450  0.00  0.00    +0.000 C 
ENDROOT
BRANCH   1   2
ATOM      2  C   UNL     1       5.594   4.958  15.550  0.00  0.00    +0.000 A 
ATOM      3  C   UNL     1       4.888   3.971  16.252  0.00  0.00    +0.000 A 
ATOM      4  C   UNL     1       4.012   4.324  17.281  0.00  0.00    +0.000 A 
ATOM      5  C   UNL     1       3.832   5.667  17.606  0.00  0.00    +0.000 A 
ATOM      6 BR   UNL     1       2.655   6.144  19.007  0.00  0.00    +0.000 Br
ATOM      7  C   UNL     1       4.514   6.660  16.907  0.00  0.00    +0.000 A 
ATOM      8  C   UNL     1       5.390   6.306  15.878  0.00  0.00    +0.000 A 
ENDBRANCH   1   2
BRANCH   1  11
ATOM      9  C   UNL     1       6.421   3.414  12.316  0.00  0.00    +0.000 C 
ATOM     10  O   UNL     1       7.216   4.178  11.784  0.00  0.00    +0.000 OA
ATOM     11  N   UNL     1       6.023   3.517  13.625  0.00  0.00    +0.000 N 
ATOM     12  H   UNL     1       5.360   2.869  14.025  0.00  0.00    +0.000 HD
BRANCH   9  14
ATOM     13  C   UNL     1       6.563   1.317  11.063  0.00  0.00    +0.000 C 
ATOM     14  C   UNL     1       5.796   2.277  11.595  0.00  0.00    +0.000 C 
ENDBRANCH   9  14
ENDBRANCH   1  11
TORSDOF 3
ENDMDL
MODEL 3
REMARK VINA RESULT:      -5.8      4.404      6.150
REMARK  Name = 
REMARK  3 active torsions:
REMARK  status: ('A' for Active; 'I' for Inactive)
REMARK    1  A    between atoms: C_2  and  C_3
REMARK    2  A    between atoms: N_5  and  C_6
REMARK    3  A    between atoms: C_6  and  C_7
REMARK                            x       y       z     vdW  Elec       q    Type
REMARK                         _______ _______ _______ _____ _____    ______ ____
ROOT
ATOM      1  C   UNL     1       6.509   4.648  14.412  0.00  0.00    +0.000 C 
ENDROOT
BRANCH   1   2
ATOM      2  C   UNL     1       5.583   5.006  15.543  0.00  0.00    +0.000 A 
ATOM      3  C   UNL     1       5.394   6.345  15.912  0.00  0.00    +0.000 A 
ATOM      4  C   UNL     1       4.524   6.678  16.953  0.00  0.00    +0.000 A 
ATOM      5  C   UNL     1       3.846   5.670  17.637  0.00  0.00    +0.000 A 
ATOM      6 BR   UNL     1       2.660   6.121  19.039  0.00  0.00    +0.000 Br
ATOM      7  C   UNL     1       4.036   4.334  17.293  0.00  0.00    +0.000 A 
ATOM      8  C   UNL     1       4.906   4.002  16.252  0.00  0.00    +0.000 A 
ENDBRANCH   1   2
BRANCH   1  11
ATOM      9  C   UNL     1       6.403   3.405  12.323  0.00  0.00    +0.000 C 
ATOM     10  O   UNL     1       7.189   4.158  11.764  0.00  0.00    +0.000 OA
ATOM     11  N   UNL     1       5.999   3.551  13.625  0.00  0.00    +0.000 N 
ATOM     12  H   UNL     1       5.343   2.911  14.048  0.00  0.00    +0.000 HD
BRANCH   9  14
ATOM     13  C   UNL     1       6.574   1.334  11.032  0.00  0.00    +0.000 C 
ATOM     14  C   UNL     1       5.794   2.234  11.644  0.00  0.00    +0.000 C 
ENDBRANCH   9  14
ENDBRANCH   1  11
TORSDOF 3
ENDMDL
MODEL 4
REMARK VINA RESULT:      -5.8      3.728      5.576
REMARK  Name = 
REMARK  3 active torsions:
REMARK  status: ('A' for Active; 'I' for Inactive)
REMARK    1  A    between atoms: C_2  and  C_3
REMARK    2  A    between atoms: N_5  and  C_6
REMARK    3  A    between atoms: C_6  and  C_7
REMARK                            x       y       z     vdW  Elec       q    Type
REMARK                         _______ _______ _______ _____ _____    ______ ____
ROOT
ATOM      1  C   UNL     1       6.040   6.482  17.306  0.00  0.00    +0.000 C 
ENDROOT
BRANCH   1   2
ATOM      2  C   UNL     1       4.854   5.884  18.016  0.00  0.00    +0.000 A 
ATOM      3  C   UNL     1       3.560   6.359  17.760  0.00  0.00    +0.000 A 
ATOM      4  C   UNL     1       2.458   5.796  18.408  0.00  0.00    +0.000 A 
ATOM      5  C   UNL     1       2.648   4.761  19.322  0.00  0.00    +0.000 A 
ATOM      6 BR   UNL     1       1.155   3.991  20.192  0.00  0.00    +0.000 Br
ATOM      7  C   UNL     1       3.929   4.290  19.599  0.00  0.00    +0.000 A 
ATOM      8  C   UNL     1       5.030   4.854  18.951  0.00  0.00    +0.000 A 
ENDBRANCH   1   2
BRANCH   1  11
ATOM      9  C   UNL     1       6.982   5.079  15.555  0.00  0.00    +0.000 C 
ATOM     10  O   UNL     1       7.733   4.506  16.334  0.00  0.00    +0.000 OA
ATOM     11  N   UNL     1       6.105   6.067  15.926  0.00  0.00    +0.000 N 
ATOM     12  H   UNL     1       5.507   6.519  15.251  0.00  0.00    +0.000 HD
BRANCH   9  14
ATOM     13  C   UNL     1       6.086   3.833  13.650  0.00  0.00    +0.000 C 
ATOM     14  C   UNL     1       6.936   4.761  14.106  0.00  0.00    +0.000 C 
ENDBRANCH   9  14
ENDBRANCH   1  11
TORSDOF 3
ENDMDL
MODEL 5
REMARK VINA RESULT:      -5.8      0.287      1.370
REMARK  Name = 
REMARK  3 active torsions:
REMARK  status: ('A' for Active; 'I' for Inactive)
REMARK    1  A    between atoms: C_2  and  C_3
REMARK    2  A    between atoms: N_5  and  C_6
REMARK    3  A    between atoms: C_6  and  C_7
REMARK                            x       y       z     vdW  Elec       q    Type
REMARK                         _______ _______ _______ _____ _____    ______ ____
ROOT
ATOM      1  C   UNL     1       3.779   2.812  17.492  0.00  0.00    +0.000 C 
ENDROOT
BRANCH   1   2
ATOM      2  C   UNL     1       4.702   4.001  17.530  0.00  0.00    +0.000 A 
ATOM      3  C   UNL     1       5.339   4.369  18.723  0.00  0.00    +0.000 A 
ATOM      4  C   UNL     1       6.205   5.465  18.756  0.00  0.00    +0.000 A 
ATOM      5  C   UNL     1       6.431   6.202  17.595  0.00  0.00    +0.000 A 
ATOM      6 BR   UNL     1       7.612   7.678  17.636  0.00  0.00    +0.000 Br
ATOM      7  C   UNL     1       5.792   5.859  16.406  0.00  0.00    +0.000 A 
ATOM      8  C   UNL     1       4.926   4.764  16.374  0.00  0.00    +0.000 A 
ENDBRANCH   1   2
BRANCH   1  11
ATOM      9  C   UNL     1       1.645   3.328  18.540  0.00  0.00    +0.000 C 
ATOM     10  O   UNL     1       1.207   3.858  17.527  0.00  0.00    +0.000 OA
ATOM     11  N   UNL     1       2.898   2.779  18.634  0.00  0.00    +0.000 N 
ATOM     12  H   UNL     1       3.224   2.357  19.490  0.00  0.00    +0.000 HD
BRANCH   9  14
ATOM     13  C   UNL     1       1.416   3.539  20.966  0.00  0.00    +0.000 C 
ATOM     14  C   UNL     1       0.856   3.220  19.792  0.00  0.00    +0.000 C 
ENDBRANCH   9  14
ENDBRANCH   1  11
TORSDOF 3
ENDMDL
MODEL 6
REMARK VINA RESULT:      -5.8      3.889      5.922
REMARK  Name = 
REMARK  3 active torsions:
REMARK  status: ('A' for Active; 'I' for Inactive)
REMARK    1  A    between atoms: C_2  and  C_3
REMARK    2  A    between atoms: N_5  and  C_6
REMARK    3  A    between atoms: C_6  and  C_7
REMARK                            x       y       z     vdW  Elec       q    Type
REMARK                         _______ _______ _______ _____ _____    ______ ____
ROOT
ATOM      1  C   UNL     1       6.116   4.434  16.724  0.00  0.00    +0.000 C 
ENDROOT
BRANCH   1   2
ATOM      2  C   UNL     1       4.893   4.340  17.596  0.00  0.00    +0.000 A 
ATOM      3  C   UNL     1       4.899   4.882  18.890  0.00  0.00    +0.000 A 
ATOM      4  C   UNL     1       3.761   4.807  19.695  0.00  0.00    +0.000 A 
ATOM      5  C   UNL     1       2.613   4.181  19.212  0.00  0.00    +0.000 A 
ATOM      6 BR   UNL     1       1.067   4.089  20.298  0.00  0.00    +0.000 Br
ATOM      7  C   UNL     1       2.596   3.623  17.936  0.00  0.00    +0.000 A 
ATOM      8  C   UNL     1       3.736   3.699  17.132  0.00  0.00    +0.000 A 
ENDBRANCH   1   2
BRANCH   1  11
ATOM      9  C   UNL     1       6.593   4.376  14.338  0.00  0.00    +0.000 C 
ATOM     10  O   UNL     1       7.443   5.253  14.425  0.00  0.00    +0.000 OA
ATOM     11  N   UNL     1       5.879   3.896  15.406  0.00  0.00    +0.000 N 
ATOM     12  H   UNL     1       5.181   3.176  15.291  0.00  0.00    +0.000 HD
BRANCH   9  14
ATOM     13  C   UNL     1       7.016   3.905  11.975  0.00  0.00    +0.000 C 
ATOM     14  C   UNL     1       6.239   3.728  13.051  0.00  0.00    +0.000 C 
ENDBRANCH   9  14
ENDBRANCH   1  11
TORSDOF 3
ENDMDL
MODEL 7
REMARK VINA RESULT:      -5.8      3.721      5.673
REMARK  Name = 
REMARK  3 active torsions:
REMARK  status: ('A' for Active; 'I' for Inactive)
REMARK    1  A    between atoms: C_2  and  C_3
REMARK    2  A    between atoms: N_5  and  C_6
REMARK    3  A    between atoms: C_6  and  C_7
REMARK                            x       y       z     vdW  Elec       q    Type
REMARK                         _______ _______ _______ _____ _____    ______ ____
ROOT
ATOM      1  C   UNL     1       5.990   6.622  17.312  0.00  0.00    +0.000 C 
ENDROOT
BRANCH   1   2
ATOM      2  C   UNL     1       4.819   6.004  18.029  0.00  0.00    +0.000 A 
ATOM      3  C   UNL     1       5.008   4.917  18.894  0.00  0.00    +0.000 A 
ATOM      4  C   UNL     1       3.924   4.352  19.570  0.00  0.00    +0.000 A 
ATOM      5  C   UNL     1       2.644   4.867  19.375  0.00  0.00    +0.000 A 
ATOM      6 BR   UNL     1       1.177   4.109  20.298  0.00  0.00    +0.000 Br
ATOM      7  C   UNL     1       2.437   5.935  18.506  0.00  0.00    +0.000 A 
ATOM      8  C   UNL     1       3.522   6.500  17.831  0.00  0.00    +0.000 A 
ENDBRANCH   1   2
BRANCH   1  11
ATOM      9  C   UNL     1       6.903   5.173  15.583  0.00  0.00    +0.000 C 
ATOM     10  O   UNL     1       7.616   4.574  16.377  0.00  0.00    +0.000 OA
ATOM     11  N   UNL     1       6.061   6.197  15.934  0.00  0.00    +0.000 N 
ATOM     12  H   UNL     1       5.493   6.670  15.247  0.00  0.00    +0.000 HD
BRANCH   9  14
ATOM     13  C   UNL     1       6.147   3.810  13.697  0.00  0.00    +0.000 C 
ATOM     14  C   UNL     1       6.868   4.850  14.135  0.00  0.00    +0.000 C 
ENDBRANCH   9  14
ENDBRANCH   1  11
TORSDOF 3
ENDMDL
MODEL 8
REMARK VINA RESULT:      -5.7      3.512      5.589
REMARK  Name = 
REMARK  3 active torsions:
REMARK  status: ('A' for Active; 'I' for Inactive)
REMARK    1  A    between atoms: C_2  and  C_3
REMARK    2  A    between atoms: N_5  and  C_6
REMARK    3  A    between atoms: C_6  and  C_7
REMARK                            x       y       z     vdW  Elec       q    Type
REMARK                         _______ _______ _______ _____ _____    ______ ____
ROOT
ATOM      1  C   UNL     1       5.557   4.819  16.319  0.00  0.00    +0.000 C 
ENDROOT
BRANCH   1   2
ATOM      2  C   UNL     1       4.393   4.403  17.178  0.00  0.00    +0.000 A 
ATOM      3  C   UNL     1       4.183   3.051  17.485  0.00  0.00    +0.000 A 
ATOM      4  C   UNL     1       3.110   2.665  18.292  0.00  0.00    +0.000 A 
ATOM      5  C   UNL     1       2.237   3.632  18.789  0.00  0.00    +0.000 A 
ATOM      6 BR   UNL     1       0.792   3.112  19.891  0.00  0.00    +0.000 Br
ATOM      7  C   UNL     1       2.423   4.977  18.480  0.00  0.00    +0.000 A 
ATOM      8  C   UNL     1       3.496   5.361  17.672  0.00  0.00    +0.000 A 
ENDBRANCH   1   2
BRANCH   1  11
ATOM      9  C   UNL     1       7.272   5.681  17.816  0.00  0.00    +0.000 C 
ATOM     10  O   UNL     1       7.594   4.561  18.190  0.00  0.00    +0.000 OA
ATOM     11  N   UNL     1       6.283   5.925  16.897  0.00  0.00    +0.000 N 
ATOM     12  H   UNL     1       6.043   6.865  16.619  0.00  0.00    +0.000 HD
BRANCH   9  14
ATOM     13  C   UNL     1       7.826   8.057  17.630  0.00  0.00    +0.000 C 
ATOM     14  C   UNL     1       7.926   6.914  18.321  0.00  0.00    +0.000 C 
ENDBRANCH   9  14
ENDBRANCH   1  11
TORSDOF 3
ENDMDL
MODEL 9
REMARK VINA RESULT:      -5.7      3.685      5.825
REMARK  Name = 
REMARK  3 active torsions:
REMARK  status: ('A' for Active; 'I' for Inactive)
REMARK    1  A    between atoms: C_2  and  C_3
REMARK    2  A    between atoms: N_5  and  C_6
REMARK    3  A    between atoms: C_6  and  C_7
REMARK                            x       y       z     vdW  Elec       q    Type
REMARK                         _______ _______ _______ _____ _____    ______ ____
ROOT
ATOM      1  C   UNL     1       4.959   6.030  16.463  0.00  0.00    +0.000 C 
ENDROOT
BRANCH   1   2
ATOM      2  C   UNL     1       3.968   5.343  17.364  0.00  0.00    +0.000 A 
ATOM      3  C   UNL     1       3.285   6.066  18.353  0.00  0.00    +0.000 A 
ATOM      4  C   UNL     1       2.356   5.432  19.181  0.00  0.00    +0.000 A 
ATOM      5  C   UNL     1       2.112   4.068  19.027  0.00  0.00    +0.000 A 
ATOM      6 BR   UNL     1       0.845   3.211  20.140  0.00  0.00    +0.000 Br
ATOM      7  C   UNL     1       2.793   3.333  18.061  0.00  0.00    +0.000 A 
ATOM      8  C   UNL     1       3.723   3.968  17.234  0.00  0.00    +0.000 A 
ENDBRANCH   1   2
BRANCH   1  11
ATOM      9  C   UNL     1       7.179   6.486  17.348  0.00  0.00    +0.000 C 
ATOM     10  O   UNL     1       7.645   5.457  16.876  0.00  0.00    +0.000 OA
ATOM     11  N   UNL     1       5.870   6.867  17.205  0.00  0.00    +0.000 N 
ATOM     12  H   UNL     1       5.523   7.722  17.616  0.00  0.00    +0.000 HD
BRANCH   9  14
ATOM     13  C   UNL     1       8.076   8.726  17.753  0.00  0.00    +0.000 C 
ATOM     14  C   UNL     1       7.992   7.446  18.136  0.00  0.00    +0.000 C 
ENDBRANCH   9  14
ENDBRANCH   1  11
TORSDOF 3
ENDMDL
