MODEL 1
REMARK VINA RESULT:      -7.2      0.000      0.000
REMARK  Name = 
REMARK  13 active torsions:
REMARK  status: ('A' for Active; 'I' for Inactive)
REMARK    1  A    between atoms: C_1  and  C_2
REMARK    2  A    between atoms: C_2  and  C_3
REMARK    3  A    between atoms: C_3  and  N_4
REMARK    4  A    between atoms: C_9  and  C_10
REMARK    5  A    between atoms: C_13  and  C_14
REMARK    6  A    between atoms: N_16  and  C_17
REMARK    7  A    between atoms: N_16  and  C_18
REMARK    8  A    between atoms: C_18  and  C_19
REMARK    9  A    between atoms: C_19  and  O_21
REMARK   10  A    between atoms: O_21  and  C_22
REMARK   11  A    between atoms: N_29  and  C_30
REMARK   12  A    between atoms: C_30  and  C_31
REMARK   13  A    between atoms: C_31  and  C_32
REMARK                            x       y       z     vdW  Elec       q    Type
REMARK                         _______ _______ _______ _____ _____    ______ ____
ROOT
ATOM      1  N   UNL     1       5.262   5.221  17.411  0.00  0.00    +0.000 N 
ATOM      2  C   UNL     1       4.773   6.447  16.927  0.00  0.00    +0.000 A 
ATOM      3  O   UNL     1       5.198   7.001  15.915  0.00  0.00    +0.000 OA
ATOM      4  C   UNL     1       3.718   6.996  17.740  0.00  0.00    +0.000 A 
ATOM      5  N   UNL     1       3.036   8.170  17.578  0.00  0.00    +0.000 NA
ATOM      6  C   UNL     1       2.178   8.233  18.581  0.00  0.00    +0.000 A 
ATOM      7  N   UNL     1       2.285   7.113  19.378  0.00  0.00    +0.000 N 
ATOM      8  C   UNL     1       3.274   6.332  18.848  0.00  0.00    +0.000 A 
ATOM      9  N   UNL     1       3.765   5.129  19.306  0.00  0.00    +0.000 N 
ATOM     10  C   UNL     1       4.801   4.534  18.558  0.00  0.00    +0.000 A 
ATOM     11  O   UNL     1       5.293   3.451  18.897  0.00  0.00    +0.000 OA
ATOM     12  H   UNL     1       1.737   6.916  20.203  0.00  0.00    +0.000 HD
ENDROOT
BRANCH   6  13
ATOM     13  C   UNL     1       1.201   9.358  18.805  0.00  0.00    +0.000 C 
ATOM     14  C   UNL     1       1.880  10.720  18.580  0.00  0.00    +0.000 C 
ATOM     15  C   UNL     1       0.881  11.862  18.830  0.00  0.00    +0.000 C 
ATOM     16  C   UNL     1      -0.505  11.322  19.323  0.00  0.00    +0.000 C 
ATOM     17  C   UNL     1      -0.236  10.467  20.580  0.00  0.00    +0.000 C 
ATOM     18  C   UNL     1       0.733   9.328  20.281  0.00  0.00    +0.000 C 
ATOM     19  C   UNL     1      -1.016  10.442  18.163  0.00  0.00    +0.000 C 
ATOM     20  C   UNL     1      -0.048   9.277  17.894  0.00  0.00    +0.000 C 
BRANCH  16  21
ATOM     21  C   UNL     1      -1.445  12.516  19.622  0.00  0.00    +0.000 C 
ATOM     22  O   UNL     1      -2.544  12.577  19.055  0.00  0.00    +0.000 OA
ATOM     23  N   UNL     1      -1.081  13.519  20.510  0.00  0.00    +0.000 N 
ATOM     24  C   UNL     1       0.093  13.583  21.367  0.00  0.00    +0.000 C 
BRANCH  23  25
ATOM     25  C   UNL     1      -2.012  14.648  20.669  0.00  0.00    +0.000 C 
BRANCH  25  26
ATOM     26  C   UNL     1      -2.901  14.640  21.911  0.00  0.00    +0.000 C 
ATOM     27  O   UNL     1      -2.560  15.157  22.972  0.00  0.00    +0.000 OA
BRANCH  26  28
ATOM     28  O   UNL     1      -4.076  13.977  21.725  0.00  0.00    +0.000 OA
ATOM     29  C   UNL     1      -5.145  14.471  22.532  0.00  0.00    +0.000 C 
ENDBRANCH  26  28
ENDBRANCH  25  26
ENDBRANCH  23  25
ENDBRANCH  16  21
ENDBRANCH   6  13
BRANCH   1  30
ATOM     30  C   UNL     1       6.325   4.593  16.635  0.00  0.00    +0.000 C 
BRANCH  30  32
ATOM     31  C   UNL     1       6.292   4.072  14.171  0.00  0.00    +0.000 C 
ATOM     32  C   UNL     1       5.777   3.674  15.546  0.00  0.00    +0.000 C 
ENDBRANCH  30  32
ENDBRANCH   1  30
BRANCH   9  33
ATOM     33  C   UNL     1       3.303   4.470  20.528  0.00  0.00    +0.000 C 
BRANCH  33  34
ATOM     34  C   UNL     1       2.285   3.350  20.298  0.00  0.00    +0.000 C 
ATOM     35  C   UNL     1       0.847   3.835  20.184  0.00  0.00    +0.000 C 
ENDBRANCH  33  34
ENDBRANCH   9  33
TORSDOF 9
ENDMDL
MODEL 2
REMARK VINA RESULT:      -7.2      0.989      1.348
REMARK  Name = 
REMARK  13 active torsions:
REMARK  status: ('A' for Active; 'I' for Inactive)
REMARK    1  A    between atoms: C_1  and  C_2
REMARK    2  A    between atoms: C_2  and  C_3
REMARK    3  A    between atoms: C_3  and  N_4
REMARK    4  A    between atoms: C_9  and  C_10
REMARK    5  A    between atoms: C_13  and  C_14
REMARK    6  A    between atoms: N_16  and  C_17
REMARK    7  A    between atoms: N_16  and  C_18
REMARK    8  A    between atoms: C_18  and  C_19
REMARK    9  A    between atoms: C_19  and  O_21
REMARK   10  A    between atoms: O_21  and  C_22
REMARK   11  A    between atoms: N_29  and  C_30
REMARK   12  A    between atoms: C_30  and  C_31
REMARK   13  A    between atoms: C_31  and  C_32
REMARK                            x       y       z     vdW  Elec       q    Type
REMARK                         _______ _______ _______ _____ _____    ______ ____
ROOT
ATOM      1  N   UNL     1       4.705   5.284  17.595  0.00  0.00    +0.000 N 
ATOM      2  C   UNL     1       4.402   6.569  17.115  0.00  0.00    +0.000 A 
ATOM      3  O   UNL     1       4.934   7.074  16.127  0.00  0.00    +0.000 OA
ATOM      4  C   UNL     1       3.401   7.245  17.900  0.00  0.00    +0.000 A 
ATOM      5  N   UNL     1       2.889   8.502  17.734  0.00  0.00    +0.000 NA
ATOM      6  C   UNL     1       2.012   8.668  18.709  0.00  0.00    +0.000 A 
ATOM      7  N   UNL     1       1.939   7.534  19.490  0.00  0.00    +0.000 N 
ATOM      8  C   UNL     1       2.833   6.634  18.981  0.00  0.00    +0.000 A 
ATOM      9  N   UNL     1       3.142   5.371  19.436  0.00  0.00    +0.000 N 
ATOM     10  C   UNL     1       4.115   4.651  18.714  0.00  0.00    +0.000 A 
ATOM     11  O   UNL     1       4.446   3.508  19.051  0.00  0.00    +0.000 OA
ATOM     12  H   UNL     1       1.340   7.403  20.292  0.00  0.00    +0.000 HD
ENDROOT
BRANCH   6  13
ATOM     13  C   UNL     1       1.187   9.912  18.918  0.00  0.00    +0.000 C 
ATOM     14  C   UNL     1       1.957  11.160  18.454  0.00  0.00    +0.000 C 
ATOM     15  C   UNL     1       1.116  12.425  18.690  0.00  0.00    +0.000 C 
ATOM     16  C   UNL     1      -0.238  12.095  19.407  0.00  0.00    +0.000 C 
ATOM     17  C   UNL     1       0.113  11.350  20.714  0.00  0.00    +0.000 C 
ATOM     18  C   UNL     1       0.919  10.085  20.433  0.00  0.00    +0.000 C 
ATOM     19  C   UNL     1      -0.982  11.162  18.430  0.00  0.00    +0.000 C 
ATOM     20  C   UNL     1      -0.175   9.875  18.182  0.00  0.00    +0.000 C 
BRANCH  16  21
ATOM     21  C   UNL     1      -1.010  13.410  19.678  0.00  0.00    +0.000 C 
ATOM     22  O   UNL     1      -0.664  14.446  19.096  0.00  0.00    +0.000 OA
ATOM     23  N   UNL     1      -2.082  13.451  20.561  0.00  0.00    +0.000 N 
ATOM     24  C   UNL     1      -2.727  12.344  21.250  0.00  0.00    +0.000 C 
BRANCH  23  25
ATOM     25  C   UNL     1      -2.701  14.763  20.807  0.00  0.00    +0.000 C 
BRANCH  25  26
ATOM     26  C   UNL     1      -3.148  15.057  22.239  0.00  0.00    +0.000 C 
ATOM     27  O   UNL     1      -4.330  15.091  22.568  0.00  0.00    +0.000 OA
BRANCH  26  28
ATOM     28  O   UNL     1      -2.110  15.306  23.084  0.00  0.00    +0.000 OA
ATOM     29  C   UNL     1      -1.207  16.302  22.605  0.00  0.00    +0.000 C 
ENDBRANCH  26  28
ENDBRANCH  25  26
ENDBRANCH  23  25
ENDBRANCH  16  21
ENDBRANCH   6  13
BRANCH   1  30
ATOM     30  C   UNL     1       5.702   4.528  16.846  0.00  0.00    +0.000 C 
BRANCH  30  32
ATOM     31  C   UNL     1       6.100   4.027  14.409  0.00  0.00    +0.000 C 
ATOM     32  C   UNL     1       5.124   3.918  15.570  0.00  0.00    +0.000 C 
ENDBRANCH  30  32
ENDBRANCH   1  30
BRANCH   9  33
ATOM     33  C   UNL     1       2.552   4.766  20.630  0.00  0.00    +0.000 C 
BRANCH  33  34
ATOM     34  C   UNL     1       1.091   4.338  20.468  0.00  0.00    +0.000 C 
ATOM     35  C   UNL     1       0.914   2.987  19.791  0.00  0.00    +0.000 C 
ENDBRANCH  33  34
ENDBRANCH   9  33
TORSDOF 9
ENDMDL
MODEL 3
REMARK VINA RESULT:      -7.2      0.450      1.139
REMARK  Name = 
REMARK  13 active torsions:
REMARK  status: ('A' for Active; 'I' for Inactive)
REMARK    1  A    between atoms: C_1  and  C_2
REMARK    2  A    between atoms: C_2  and  C_3
REMARK    3  A    between atoms: C_3  and  N_4
REMARK    4  A    between atoms: C_9  and  C_10
REMARK    5  A    between atoms: C_13  and  C_14
REMARK    6  A    between atoms: N_16  and  C_17
REMARK    7  A    between atoms: N_16  and  C_18
REMARK    8  A    between atoms: C_18  and  C_19
REMARK    9  A    between atoms: C_19  and  O_21
REMARK   10  A    between atoms: O_21  and  C_22
REMARK   11  A    between atoms: N_29  and  C_30
REMARK   12  A    between atoms: C_30  and  C_31
REMARK   13  A    between atoms: C_31  and  C_32
REMARK                            x       y       z     vdW  Elec       q    Type
REMARK                         _______ _______ _______ _____ _____    ______ ____
ROOT
ATOM      1  N   UNL     1       5.302   5.242  17.263  0.00  0.00    +0.000 N 
ATOM      2  C   UNL     1       4.797   6.481  16.836  0.00  0.00    +0.000 A 
ATOM      3  O   UNL     1       5.197   7.076  15.836  0.00  0.00    +0.000 OA
ATOM      4  C   UNL     1       3.757   6.994  17.691  0.00  0.00    +0.000 A 
ATOM      5  N   UNL     1       3.065   8.169  17.586  0.00  0.00    +0.000 NA
ATOM      6  C   UNL     1       2.229   8.190  18.609  0.00  0.00    +0.000 A 
ATOM      7  N   UNL     1       2.358   7.042  19.362  0.00  0.00    +0.000 N 
ATOM      8  C   UNL     1       3.340   6.287  18.782  0.00  0.00    +0.000 A 
ATOM      9  N   UNL     1       3.847   5.070  19.185  0.00  0.00    +0.000 N 
ATOM     10  C   UNL     1       4.869   4.510  18.393  0.00  0.00    +0.000 A 
ATOM     11  O   UNL     1       5.374   3.418  18.681  0.00  0.00    +0.000 OA
ATOM     12  H   UNL     1       1.829   6.811  20.190  0.00  0.00    +0.000 HD
ENDROOT
BRANCH   6  13
ATOM     13  C   UNL     1       1.252   9.301  18.896  0.00  0.00    +0.000 C 
ATOM     14  C   UNL     1       0.044   9.221  17.946  0.00  0.00    +0.000 C 
ATOM     15  C   UNL     1      -0.938  10.368  18.232  0.00  0.00    +0.000 C 
ATOM     16  C   UNL     1      -0.393  11.334  19.340  0.00  0.00    +0.000 C 
ATOM     17  C   UNL     1       0.993  11.826  18.869  0.00  0.00    +0.000 C 
ATOM     18  C   UNL     1       1.945  10.659  18.628  0.00  0.00    +0.000 C 
ATOM     19  C   UNL     1      -0.260  10.450  20.598  0.00  0.00    +0.000 C 
ATOM     20  C   UNL     1       0.729   9.298  20.353  0.00  0.00    +0.000 C 
BRANCH  16  21
ATOM     21  C   UNL     1      -1.389  12.503  19.538  0.00  0.00    +0.000 C 
ATOM     22  O   UNL     1      -2.417  12.545  18.851  0.00  0.00    +0.000 OA
ATOM     23  N   UNL     1      -1.150  13.507  20.468  0.00  0.00    +0.000 N 
ATOM     24  C   UNL     1      -0.083  13.590  21.453  0.00  0.00    +0.000 C 
BRANCH  23  25
ATOM     25  C   UNL     1      -2.119  14.614  20.527  0.00  0.00    +0.000 C 
BRANCH  25  26
ATOM     26  C   UNL     1      -3.197  14.530  21.606  0.00  0.00    +0.000 C 
ATOM     27  O   UNL     1      -3.765  15.522  22.053  0.00  0.00    +0.000 OA
BRANCH  26  28
ATOM     28  O   UNL     1      -3.429  13.257  22.034  0.00  0.00    +0.000 OA
ATOM     29  C   UNL     1      -4.813  12.953  22.202  0.00  0.00    +0.000 C 
ENDBRANCH  26  28
ENDBRANCH  25  26
ENDBRANCH  23  25
ENDBRANCH  16  21
ENDBRANCH   6  13
BRANCH   1  30
ATOM     30  C   UNL     1       6.352   4.649  16.442  0.00  0.00    +0.000 C 
BRANCH  30  32
ATOM     31  C   UNL     1       6.388   4.203  13.963  0.00  0.00    +0.000 C 
ATOM     32  C   UNL     1       5.784   3.806  15.302  0.00  0.00    +0.000 C 
ENDBRANCH  30  32
ENDBRANCH   1  30
BRANCH   9  33
ATOM     33  C   UNL     1       3.414   4.365  20.391  0.00  0.00    +0.000 C 
BRANCH  33  34
ATOM     34  C   UNL     1       2.319   3.321  20.155  0.00  0.00    +0.000 C 
ATOM     35  C   UNL     1       0.905   3.865  20.296  0.00  0.00    +0.000 C 
ENDBRANCH  33  34
ENDBRANCH   9  33
TORSDOF 9
ENDMDL
MODEL 4
REMARK VINA RESULT:      -7.1      0.513      1.311
REMARK  Name = 
REMARK  13 active torsions:
REMARK  status: ('A' for Active; 'I' for Inactive)
REMARK    1  A    between atoms: C_1  and  C_2
REMARK    2  A    between atoms: C_2  and  C_3
REMARK    3  A    between atoms: C_3  and  N_4
REMARK    4  A    between atoms: C_9  and  C_10
REMARK    5  A    between atoms: C_13  and  C_14
REMARK    6  A    between atoms: N_16  and  C_17
REMARK    7  A    between atoms: N_16  and  C_18
REMARK    8  A    between atoms: C_18  and  C_19
REMARK    9  A    between atoms: C_19  and  O_21
REMARK   10  A    between atoms: O_21  and  C_22
REMARK   11  A    between atoms: N_29  and  C_30
REMARK   12  A    between atoms: C_30  and  C_31
REMARK   13  A    between atoms: C_31  and  C_32
REMARK                            x       y       z     vdW  Elec       q    Type
REMARK                         _______ _______ _______ _____ _____    ______ ____
ROOT
ATOM      1  N   UNL     1       5.161   5.337  17.257  0.00  0.00    +0.000 N 
ATOM      2  C   UNL     1       4.641   6.562  16.808  0.00  0.00    +0.000 A 
ATOM      3  O   UNL     1       5.012   7.129  15.781  0.00  0.00    +0.000 OA
ATOM      4  C   UNL     1       3.622   7.096  17.676  0.00  0.00    +0.000 A 
ATOM      5  N   UNL     1       2.925   8.267  17.557  0.00  0.00    +0.000 NA
ATOM      6  C   UNL     1       2.116   8.315  18.601  0.00  0.00    +0.000 A 
ATOM      7  N   UNL     1       2.269   7.189  19.382  0.00  0.00    +0.000 N 
ATOM      8  C   UNL     1       3.237   6.420  18.798  0.00  0.00    +0.000 A 
ATOM      9  N   UNL     1       3.758   5.217  19.221  0.00  0.00    +0.000 N 
ATOM     10  C   UNL     1       4.761   4.636  18.418  0.00  0.00    +0.000 A 
ATOM     11  O   UNL     1       5.276   3.554  18.723  0.00  0.00    +0.000 OA
ATOM     12  H   UNL     1       1.763   6.980  20.230  0.00  0.00    +0.000 HD
ENDROOT
BRANCH   6  13
ATOM     13  C   UNL     1       1.143   9.431  18.882  0.00  0.00    +0.000 C 
ATOM     14  C   UNL     1       0.624   9.348  20.327  0.00  0.00    +0.000 C 
ATOM     15  C   UNL     1      -0.383  10.478  20.599  0.00  0.00    +0.000 C 
ATOM     16  C   UNL     1      -0.656  11.332  19.313  0.00  0.00    +0.000 C 
ATOM     17  C   UNL     1      -1.125  10.355  18.213  0.00  0.00    +0.000 C 
ATOM     18  C   UNL     1      -0.085   9.270  17.953  0.00  0.00    +0.000 C 
ATOM     19  C   UNL     1       0.713  11.944  18.952  0.00  0.00    +0.000 C 
ATOM     20  C   UNL     1       1.744  10.840  18.657  0.00  0.00    +0.000 C 
BRANCH  16  21
ATOM     21  C   UNL     1      -1.724  12.409  19.628  0.00  0.00    +0.000 C 
ATOM     22  O   UNL     1      -2.813  12.370  19.040  0.00  0.00    +0.000 OA
ATOM     23  N   UNL     1      -1.484  13.417  20.552  0.00  0.00    +0.000 N 
ATOM     24  C   UNL     1      -0.339  13.579  21.435  0.00  0.00    +0.000 C 
BRANCH  23  25
ATOM     25  C   UNL     1      -2.533  14.435  20.724  0.00  0.00    +0.000 C 
BRANCH  25  26
ATOM     26  C   UNL     1      -3.557  14.190  21.831  0.00  0.00    +0.000 C 
ATOM     27  O   UNL     1      -4.564  13.507  21.661  0.00  0.00    +0.000 OA
BRANCH  26  28
ATOM     28  O   UNL     1      -3.253  14.829  22.994  0.00  0.00    +0.000 OA
ATOM     29  C   UNL     1      -3.133  13.952  24.114  0.00  0.00    +0.000 C 
ENDBRANCH  26  28
ENDBRANCH  25  26
ENDBRANCH  23  25
ENDBRANCH  16  21
ENDBRANCH   6  13
BRANCH   1  30
ATOM     30  C   UNL     1       6.190   4.723  16.425  0.00  0.00    +0.000 C 
BRANCH  30  32
ATOM     31  C   UNL     1       6.523   4.086  14.011  0.00  0.00    +0.000 C 
ATOM     32  C   UNL     1       5.599   4.001  15.216  0.00  0.00    +0.000 C 
ENDBRANCH  30  32
ENDBRANCH   1  30
BRANCH   9  33
ATOM     33  C   UNL     1       3.360   4.544  20.458  0.00  0.00    +0.000 C 
BRANCH  33  34
ATOM     34  C   UNL     1       2.314   3.442  20.271  0.00  0.00    +0.000 C 
ATOM     35  C   UNL     1       0.877   3.941  20.312  0.00  0.00    +0.000 C 
ENDBRANCH  33  34
ENDBRANCH   9  33
TORSDOF 9
ENDMDL
MODEL 5
REMARK VINA RESULT:      -7.0      1.499      2.144
REMARK  Name = 
REMARK  13 active torsions:
REMARK  status: ('A' for Active; 'I' for Inactive)
REMARK    1  A    between atoms: C_1  and  C_2
REMARK    2  A    between atoms: C_2  and  C_3
REMARK    3  A    between atoms: C_3  and  N_4
REMARK    4  A    between atoms: C_9  and  C_10
REMARK    5  A    between atoms: C_13  and  C_14
REMARK    6  A    between atoms: N_16  and  C_17
REMARK    7  A    between atoms: N_16  and  C_18
REMARK    8  A    between atoms: C_18  and  C_19
REMARK    9  A    between atoms: C_19  and  O_21
REMARK   10  A    between atoms: O_21  and  C_22
REMARK   11  A    between atoms: N_29  and  C_30
REMARK   12  A    between atoms: C_30  and  C_31
REMARK   13  A    between atoms: C_31  and  C_32
REMARK                            x       y       z     vdW  Elec       q    Type
REMARK                         _______ _______ _______ _____ _____    ______ ____
ROOT
ATOM      1  N   UNL     1       5.070   4.896  16.968  0.00  0.00    +0.000 N 
ATOM      2  C   UNL     1       4.997   6.299  16.949  0.00  0.00    +0.000 A 
ATOM      3  O   UNL     1       5.872   7.024  16.477  0.00  0.00    +0.000 OA
ATOM      4  C   UNL     1       3.787   6.811  17.541  0.00  0.00    +0.000 A 
ATOM      5  N   UNL     1       3.400   8.111  17.708  0.00  0.00    +0.000 NA
ATOM      6  C   UNL     1       2.224   8.066  18.307  0.00  0.00    +0.000 A 
ATOM      7  N   UNL     1       1.838   6.758  18.516  0.00  0.00    +0.000 N 
ATOM      8  C   UNL     1       2.841   5.961  18.038  0.00  0.00    +0.000 A 
ATOM      9  N   UNL     1       2.930   4.586  18.046  0.00  0.00    +0.000 N 
ATOM     10  C   UNL     1       4.089   4.017  17.482  0.00  0.00    +0.000 A 
ATOM     11  O   UNL     1       4.245   2.790  17.443  0.00  0.00    +0.000 OA
ATOM     12  H   UNL     1       0.978   6.454  18.948  0.00  0.00    +0.000 HD
ENDROOT
BRANCH   6  13
ATOM     13  C   UNL     1       1.405   9.274  18.684  0.00  0.00    +0.000 C 
ATOM     14  C   UNL     1       0.096   9.317  17.879  0.00  0.00    +0.000 C 
ATOM     15  C   UNL     1      -0.723  10.562  18.255  0.00  0.00    +0.000 C 
ATOM     16  C   UNL     1       0.042  11.470  19.278  0.00  0.00    +0.000 C 
ATOM     17  C   UNL     1       1.408  11.813  18.645  0.00  0.00    +0.000 C 
ATOM     18  C   UNL     1       2.201  10.551  18.318  0.00  0.00    +0.000 C 
ATOM     19  C   UNL     1       0.225  10.584  20.527  0.00  0.00    +0.000 C 
ATOM     20  C   UNL     1       1.055   9.332  20.191  0.00  0.00    +0.000 C 
BRANCH  16  21
ATOM     21  C   UNL     1      -0.798  12.739  19.569  0.00  0.00    +0.000 C 
ATOM     22  O   UNL     1      -1.958  12.807  19.141  0.00  0.00    +0.000 OA
ATOM     23  N   UNL     1      -0.277  13.801  20.296  0.00  0.00    +0.000 N 
ATOM     24  C   UNL     1       1.000  13.881  20.987  0.00  0.00    +0.000 C 
BRANCH  23  25
ATOM     25  C   UNL     1      -1.128  14.991  20.452  0.00  0.00    +0.000 C 
BRANCH  25  26
ATOM     26  C   UNL     1      -0.839  16.172  19.527  0.00  0.00    +0.000 C 
ATOM     27  O   UNL     1      -0.335  16.034  18.416  0.00  0.00    +0.000 OA
BRANCH  26  28
ATOM     28  O   UNL     1      -1.163  17.376  20.076  0.00  0.00    +0.000 OA
ATOM     29  C   UNL     1      -2.335  17.965  19.512  0.00  0.00    +0.000 C 
ENDBRANCH  26  28
ENDBRANCH  25  26
ENDBRANCH  23  25
ENDBRANCH  16  21
ENDBRANCH   6  13
BRANCH   1  30
ATOM     30  C   UNL     1       6.261   4.298  16.375  0.00  0.00    +0.000 C 
BRANCH  30  32
ATOM     31  C   UNL     1       6.945   4.767  13.996  0.00  0.00    +0.000 C 
ATOM     32  C   UNL     1       6.053   3.936  14.905  0.00  0.00    +0.000 C 
ENDBRANCH  30  32
ENDBRANCH   1  30
BRANCH   9  33
ATOM     33  C   UNL     1       1.921   3.706  18.635  0.00  0.00    +0.000 C 
BRANCH  33  34
ATOM     34  C   UNL     1       2.229   3.260  20.068  0.00  0.00    +0.000 C 
ATOM     35  C   UNL     1       1.983   4.334  21.116  0.00  0.00    +0.000 C 
ENDBRANCH  33  34
ENDBRANCH   9  33
TORSDOF 9
ENDMDL
MODEL 6
REMARK VINA RESULT:      -7.0      1.240      2.017
REMARK  Name = 
REMARK  13 active torsions:
REMARK  status: ('A' for Active; 'I' for Inactive)
REMARK    1  A    between atoms: C_1  and  C_2
REMARK    2  A    between atoms: C_2  and  C_3
REMARK    3  A    between atoms: C_3  and  N_4
REMARK    4  A    between atoms: C_9  and  C_10
REMARK    5  A    between atoms: C_13  and  C_14
REMARK    6  A    between atoms: N_16  and  C_17
REMARK    7  A    between atoms: N_16  and  C_18
REMARK    8  A    between atoms: C_18  and  C_19
REMARK    9  A    between atoms: C_19  and  O_21
REMARK   10  A    between atoms: O_21  and  C_22
REMARK   11  A    between atoms: N_29  and  C_30
REMARK   12  A    between atoms: C_30  and  C_31
REMARK   13  A    between atoms: C_31  and  C_32
REMARK                            x       y       z     vdW  Elec       q    Type
REMARK                         _______ _______ _______ _____ _____    ______ ____
ROOT
ATOM      1  N   UNL     1       5.261   5.264  16.948  0.00  0.00    +0.000 N 
ATOM      2  C   UNL     1       4.803   6.540  16.579  0.00  0.00    +0.000 A 
ATOM      3  O   UNL     1       5.230   7.166  15.609  0.00  0.00    +0.000 OA
ATOM      4  C   UNL     1       3.778   7.049  17.454  0.00  0.00    +0.000 A 
ATOM      5  N   UNL     1       3.131   8.252  17.403  0.00  0.00    +0.000 NA
ATOM      6  C   UNL     1       2.291   8.255  18.423  0.00  0.00    +0.000 A 
ATOM      7  N   UNL     1       2.374   7.068  19.120  0.00  0.00    +0.000 N 
ATOM      8  C   UNL     1       3.331   6.307  18.508  0.00  0.00    +0.000 A 
ATOM      9  N   UNL     1       3.790   5.055  18.854  0.00  0.00    +0.000 N 
ATOM     10  C   UNL     1       4.796   4.496  18.040  0.00  0.00    +0.000 A 
ATOM     11  O   UNL     1       5.259   3.373  18.277  0.00  0.00    +0.000 OA
ATOM     12  H   UNL     1       1.832   6.818  19.935  0.00  0.00    +0.000 HD
ENDROOT
BRANCH   6  13
ATOM     13  C   UNL     1       1.353   9.386  18.759  0.00  0.00    +0.000 C 
ATOM     14  C   UNL     1       0.096   9.331  17.874  0.00  0.00    +0.000 C 
ATOM     15  C   UNL     1      -0.845  10.499  18.210  0.00  0.00    +0.000 C 
ATOM     16  C   UNL     1      -0.224  11.453  19.287  0.00  0.00    +0.000 C 
ATOM     17  C   UNL     1       1.145  11.916  18.743  0.00  0.00    +0.000 C 
ATOM     18  C   UNL     1       2.059  10.729  18.454  0.00  0.00    +0.000 C 
ATOM     19  C   UNL     1      -0.043  10.567  20.537  0.00  0.00    +0.000 C 
ATOM     20  C   UNL     1       0.908   9.394  20.242  0.00  0.00    +0.000 C 
BRANCH  16  21
ATOM     21  C   UNL     1      -1.183  12.643  19.536  0.00  0.00    +0.000 C 
ATOM     22  O   UNL     1      -2.322  12.613  19.052  0.00  0.00    +0.000 OA
ATOM     23  N   UNL     1      -0.792  13.743  20.288  0.00  0.00    +0.000 N 
ATOM     24  C   UNL     1       0.439  13.930  21.042  0.00  0.00    +0.000 C 
BRANCH  23  25
ATOM     25  C   UNL     1      -1.749  14.855  20.403  0.00  0.00    +0.000 C 
BRANCH  25  26
ATOM     26  C   UNL     1      -1.208  16.260  20.139  0.00  0.00    +0.000 C 
ATOM     27  O   UNL     1      -1.146  17.119  21.014  0.00  0.00    +0.000 OA
BRANCH  26  28
ATOM     28  O   UNL     1      -0.843  16.459  18.842  0.00  0.00    +0.000 OA
ATOM     29  C   UNL     1       0.268  17.341  18.690  0.00  0.00    +0.000 C 
ENDBRANCH  26  28
ENDBRANCH  25  26
ENDBRANCH  23  25
ENDBRANCH  16  21
ENDBRANCH   6  13
BRANCH   1  30
ATOM     30  C   UNL     1       6.293   4.673  16.103  0.00  0.00    +0.000 C 
BRANCH  30  32
ATOM     31  C   UNL     1       6.406   4.272  13.619  0.00  0.00    +0.000 C 
ATOM     32  C   UNL     1       5.701   3.912  14.918  0.00  0.00    +0.000 C 
ENDBRANCH  30  32
ENDBRANCH   1  30
BRANCH   9  33
ATOM     33  C   UNL     1       3.327   4.308  20.024  0.00  0.00    +0.000 C 
BRANCH  33  34
ATOM     34  C   UNL     1       2.168   3.348  19.743  0.00  0.00    +0.000 C 
ATOM     35  C   UNL     1       0.860   3.744  20.412  0.00  0.00    +0.000 C 
ENDBRANCH  33  34
ENDBRANCH   9  33
TORSDOF 9
ENDMDL
MODEL 7
REMARK VINA RESULT:      -7.0      0.832      1.400
REMARK  Name = 
REMARK  13 active torsions:
REMARK  status: ('A' for Active; 'I' for Inactive)
REMARK    1  A    between atoms: C_1  and  C_2
REMARK    2  A    between atoms: C_2  and  C_3
REMARK    3  A    between atoms: C_3  and  N_4
REMARK    4  A    between atoms: C_9  and  C_10
REMARK    5  A    between atoms: C_13  and  C_14
REMARK    6  A    between atoms: N_16  and  C_17
REMARK    7  A    between atoms: N_16  and  C_18
REMARK    8  A    between atoms: C_18  and  C_19
REMARK    9  A    between atoms: C_19  and  O_21
REMARK   10  A    between atoms: O_21  and  C_22
REMARK   11  A    between atoms: N_29  and  C_30
REMARK   12  A    between atoms: C_30  and  C_31
REMARK   13  A    between atoms: C_31  and  C_32
REMARK                            x       y       z     vdW  Elec       q    Type
REMARK                         _______ _______ _______ _____ _____    ______ ____
ROOT
ATOM      1  N   UNL     1       5.129   5.161  17.537  0.00  0.00    +0.000 N 
ATOM      2  C   UNL     1       4.698   6.408  17.053  0.00  0.00    +0.000 A 
ATOM      3  O   UNL     1       5.173   6.957  16.059  0.00  0.00    +0.000 OA
ATOM      4  C   UNL     1       3.639   6.986  17.840  0.00  0.00    +0.000 A 
ATOM      5  N   UNL     1       3.005   8.185  17.671  0.00  0.00    +0.000 NA
ATOM      6  C   UNL     1       2.120   8.269  18.649  0.00  0.00    +0.000 A 
ATOM      7  N   UNL     1       2.163   7.137  19.436  0.00  0.00    +0.000 N 
ATOM      8  C   UNL     1       3.140   6.327  18.927  0.00  0.00    +0.000 A 
ATOM      9  N   UNL     1       3.574   5.103  19.386  0.00  0.00    +0.000 N 
ATOM     10  C   UNL     1       4.610   4.479  18.662  0.00  0.00    +0.000 A 
ATOM     11  O   UNL     1       5.053   3.376  19.003  0.00  0.00    +0.000 OA
ATOM     12  H   UNL     1       1.584   6.952  20.242  0.00  0.00    +0.000 HD
ENDROOT
BRANCH   6  13
ATOM     13  C   UNL     1       1.177   9.426  18.857  0.00  0.00    +0.000 C 
ATOM     14  C   UNL     1       1.892  10.763  18.595  0.00  0.00    +0.000 C 
ATOM     15  C   UNL     1       0.928  11.938  18.829  0.00  0.00    +0.000 C 
ATOM     16  C   UNL     1      -0.468  11.448  19.345  0.00  0.00    +0.000 C 
ATOM     17  C   UNL     1      -0.211  10.614  20.620  0.00  0.00    +0.000 C 
ATOM     18  C   UNL     1       0.723   9.441  20.337  0.00  0.00    +0.000 C 
ATOM     19  C   UNL     1      -1.015  10.558  18.211  0.00  0.00    +0.000 C 
ATOM     20  C   UNL     1      -0.082   9.360  17.959  0.00  0.00    +0.000 C 
BRANCH  16  21
ATOM     21  C   UNL     1      -1.372  12.674  19.627  0.00  0.00    +0.000 C 
ATOM     22  O   UNL     1      -2.504  12.718  19.129  0.00  0.00    +0.000 OA
ATOM     23  N   UNL     1      -0.938  13.726  20.423  0.00  0.00    +0.000 N 
ATOM     24  C   UNL     1       0.290  13.825  21.197  0.00  0.00    +0.000 C 
BRANCH  23  25
ATOM     25  C   UNL     1      -1.841  14.878  20.567  0.00  0.00    +0.000 C 
BRANCH  25  26
ATOM     26  C   UNL     1      -2.502  15.069  21.931  0.00  0.00    +0.000 C 
ATOM     27  O   UNL     1      -3.074  14.158  22.523  0.00  0.00    +0.000 OA
BRANCH  26  28
ATOM     28  O   UNL     1      -2.420  16.348  22.393  0.00  0.00    +0.000 OA
ATOM     29  C   UNL     1      -1.451  17.142  21.708  0.00  0.00    +0.000 C 
ENDBRANCH  26  28
ENDBRANCH  25  26
ENDBRANCH  23  25
ENDBRANCH  16  21
ENDBRANCH   6  13
BRANCH   1  30
ATOM     30  C   UNL     1       6.192   4.503  16.786  0.00  0.00    +0.000 C 
BRANCH  30  32
ATOM     31  C   UNL     1       7.643   5.908  18.292  0.00  0.00    +0.000 C 
ATOM     32  C   UNL     1       7.548   4.626  17.480  0.00  0.00    +0.000 C 
ENDBRANCH  30  32
ENDBRANCH   1  30
BRANCH   9  33
ATOM     33  C   UNL     1       3.052   4.449  20.586  0.00  0.00    +0.000 C 
BRANCH  33  34
ATOM     34  C   UNL     1       1.705   3.749  20.391  0.00  0.00    +0.000 C 
ATOM     35  C   UNL     1       1.400   2.689  21.440  0.00  0.00    +0.000 C 
ENDBRANCH  33  34
ENDBRANCH   9  33
TORSDOF 9
ENDMDL
MODEL 8
REMARK VINA RESULT:      -7.0      1.056      1.658
REMARK  Name = 
REMARK  13 active torsions:
REMARK  status: ('A' for Active; 'I' for Inactive)
REMARK    1  A    between atoms: C_1  and  C_2
REMARK    2  A    between atoms: C_2  and  C_3
REMARK    3  A    between atoms: C_3  and  N_4
REMARK    4  A    between atoms: C_9  and  C_10
REMARK    5  A    between atoms: C_13  and  C_14
REMARK    6  A    between atoms: N_16  and  C_17
REMARK    7  A    between atoms: N_16  and  C_18
REMARK    8  A    between atoms: C_18  and  C_19
REMARK    9  A    between atoms: C_19  and  O_21
REMARK   10  A    between atoms: O_21  and  C_22
REMARK   11  A    between atoms: N_29  and  C_30
REMARK   12  A    between atoms: C_30  and  C_31
REMARK   13  A    between atoms: C_31  and  C_32
REMARK                            x       y       z     vdW  Elec       q    Type
REMARK                         _______ _______ _______ _____ _____    ______ ____
ROOT
ATOM      1  N   UNL     1       4.912   5.346  17.376  0.00  0.00    +0.000 N 
ATOM      2  C   UNL     1       4.489   6.616  16.947  0.00  0.00    +0.000 A 
ATOM      3  O   UNL     1       4.936   7.186  15.952  0.00  0.00    +0.000 OA
ATOM      4  C   UNL     1       3.475   7.191  17.793  0.00  0.00    +0.000 A 
ATOM      5  N   UNL     1       2.859   8.407  17.686  0.00  0.00    +0.000 NA
ATOM      6  C   UNL     1       2.016   8.478  18.700  0.00  0.00    +0.000 A 
ATOM      7  N   UNL     1       2.066   7.322  19.451  0.00  0.00    +0.000 N 
ATOM      8  C   UNL     1       3.004   6.509  18.879  0.00  0.00    +0.000 A 
ATOM      9  N   UNL     1       3.430   5.262  19.283  0.00  0.00    +0.000 N 
ATOM     10  C   UNL     1       4.423   4.641  18.500  0.00  0.00    +0.000 A 
ATOM     11  O   UNL     1       4.856   3.518  18.790  0.00  0.00    +0.000 OA
ATOM     12  H   UNL     1       1.515   7.124  20.273  0.00  0.00    +0.000 HD
ENDROOT
BRANCH   6  13
ATOM     13  C   UNL     1       1.107   9.647  18.980  0.00  0.00    +0.000 C 
ATOM     14  C   UNL     1       0.650   9.640  20.449  0.00  0.00    +0.000 C 
ATOM     15  C   UNL     1      -0.292  10.824  20.720  0.00  0.00    +0.000 C 
ATOM     16  C   UNL     1      -0.585  11.643  19.416  0.00  0.00    +0.000 C 
ATOM     17  C   UNL     1      -1.146  10.649  18.375  0.00  0.00    +0.000 C 
ATOM     18  C   UNL     1      -0.167   9.509  18.112  0.00  0.00    +0.000 C 
ATOM     19  C   UNL     1       0.793  12.178  18.973  0.00  0.00    +0.000 C 
ATOM     20  C   UNL     1       1.760  11.018  18.677  0.00  0.00    +0.000 C 
BRANCH  16  21
ATOM     21  C   UNL     1      -1.588  12.778  19.735  0.00  0.00    +0.000 C 
ATOM     22  O   UNL     1      -2.742  12.708  19.291  0.00  0.00    +0.000 OA
ATOM     23  N   UNL     1      -1.221  13.874  20.506  0.00  0.00    +0.000 N 
ATOM     24  C   UNL     1       0.026  14.097  21.221  0.00  0.00    +0.000 C 
BRANCH  23  25
ATOM     25  C   UNL     1      -2.224  14.935  20.689  0.00  0.00    +0.000 C 
BRANCH  25  26
ATOM     26  C   UNL     1      -1.758  16.371  20.455  0.00  0.00    +0.000 C 
ATOM     27  O   UNL     1      -1.403  16.781  19.354  0.00  0.00    +0.000 OA
BRANCH  26  28
ATOM     28  O   UNL     1      -1.748  17.123  21.591  0.00  0.00    +0.000 OA
ATOM     29  C   UNL     1      -2.732  16.730  22.547  0.00  0.00    +0.000 C 
ENDBRANCH  26  28
ENDBRANCH  25  26
ENDBRANCH  23  25
ENDBRANCH  16  21
ENDBRANCH   6  13
BRANCH   1  30
ATOM     30  C   UNL     1       5.930   4.690  16.564  0.00  0.00    +0.000 C 
BRANCH  30  32
ATOM     31  C   UNL     1       6.262   4.059  14.148  0.00  0.00    +0.000 C 
ATOM     32  C   UNL     1       5.332   3.984  15.348  0.00  0.00    +0.000 C 
ENDBRANCH  30  32
ENDBRANCH   1  30
BRANCH   9  33
ATOM     33  C   UNL     1       2.942   4.582  20.483  0.00  0.00    +0.000 C 
BRANCH  33  34
ATOM     34  C   UNL     1       1.564   3.933  20.328  0.00  0.00    +0.000 C 
ATOM     35  C   UNL     1       1.318   2.770  21.277  0.00  0.00    +0.000 C 
ENDBRANCH  33  34
ENDBRANCH   9  33
TORSDOF 9
ENDMDL
MODEL 9
REMARK VINA RESULT:      -7.0      1.227      1.588
REMARK  Name = 
REMARK  13 active torsions:
REMARK  status: ('A' for Active; 'I' for Inactive)
REMARK    1  A    between atoms: C_1  and  C_2
REMARK    2  A    between atoms: C_2  and  C_3
REMARK    3  A    between atoms: C_3  and  N_4
REMARK    4  A    between atoms: C_9  and  C_10
REMARK    5  A    between atoms: C_13  and  C_14
REMARK    6  A    between atoms: N_16  and  C_17
REMARK    7  A    between atoms: N_16  and  C_18
REMARK    8  A    between atoms: C_18  and  C_19
REMARK    9  A    between atoms: C_19  and  O_21
REMARK   10  A    between atoms: O_21  and  C_22
REMARK   11  A    between atoms: N_29  and  C_30
REMARK   12  A    between atoms: C_30  and  C_31
REMARK   13  A    between atoms: C_31  and  C_32
REMARK                            x       y       z     vdW  Elec       q    Type
REMARK                         _______ _______ _______ _____ _____    ______ ____
ROOT
ATOM      1  N   UNL     1       4.512   5.338  17.661  0.00  0.00    +0.000 N 
ATOM      2  C   UNL     1       4.181   6.613  17.174  0.00  0.00    +0.000 A 
ATOM      3  O   UNL     1       4.653   7.098  16.147  0.00  0.00    +0.000 OA
ATOM      4  C   UNL     1       3.227   7.305  18.003  0.00  0.00    +0.000 A 
ATOM      5  N   UNL     1       2.704   8.559  17.843  0.00  0.00    +0.000 NA
ATOM      6  C   UNL     1       1.886   8.745  18.863  0.00  0.00    +0.000 A 
ATOM      7  N   UNL     1       1.860   7.626  19.670  0.00  0.00    +0.000 N 
ATOM      8  C   UNL     1       2.724   6.716  19.128  0.00  0.00    +0.000 A 
ATOM      9  N   UNL     1       3.060   5.462  19.589  0.00  0.00    +0.000 N 
ATOM     10  C   UNL     1       3.990   4.728  18.825  0.00  0.00    +0.000 A 
ATOM     11  O   UNL     1       4.340   3.591  19.165  0.00  0.00    +0.000 OA
ATOM     12  H   UNL     1       1.309   7.511  20.509  0.00  0.00    +0.000 HD
ENDROOT
BRANCH   6  13
ATOM     13  C   UNL     1       1.074   9.992  19.096  0.00  0.00    +0.000 C 
ATOM     14  C   UNL     1       1.755  11.212  18.452  0.00  0.00    +0.000 C 
ATOM     15  C   UNL     1       0.929  12.483  18.711  0.00  0.00    +0.000 C 
ATOM     16  C   UNL     1      -0.313  12.192  19.621  0.00  0.00    +0.000 C 
ATOM     17  C   UNL     1       0.220  11.541  20.917  0.00  0.00    +0.000 C 
ATOM     18  C   UNL     1       1.004  10.267  20.618  0.00  0.00    +0.000 C 
ATOM     19  C   UNL     1      -1.162  11.187  18.815  0.00  0.00    +0.000 C 
ATOM     20  C   UNL     1      -0.372   9.894  18.550  0.00  0.00    +0.000 C 
BRANCH  16  21
ATOM     21  C   UNL     1      -1.066  13.515  19.903  0.00  0.00    +0.000 C 
ATOM     22  O   UNL     1      -0.744  14.538  19.285  0.00  0.00    +0.000 OA
ATOM     23  N   UNL     1      -2.094  13.579  20.836  0.00  0.00    +0.000 N 
ATOM     24  C   UNL     1      -2.709  12.488  21.576  0.00  0.00    +0.000 C 
BRANCH  23  25
ATOM     25  C   UNL     1      -2.695  14.898  21.085  0.00  0.00    +0.000 C 
BRANCH  25  26
ATOM     26  C   UNL     1      -4.215  14.945  21.240  0.00  0.00    +0.000 C 
ATOM     27  O   UNL     1      -4.982  14.693  20.315  0.00  0.00    +0.000 OA
BRANCH  26  28
ATOM     28  O   UNL     1      -4.616  15.325  22.485  0.00  0.00    +0.000 OA
ATOM     29  C   UNL     1      -3.596  15.977  23.241  0.00  0.00    +0.000 C 
ENDBRANCH  26  28
ENDBRANCH  25  26
ENDBRANCH  23  25
ENDBRANCH  16  21
ENDBRANCH   6  13
BRANCH   1  30
ATOM     30  C   UNL     1       5.464   4.566  16.870  0.00  0.00    +0.000 C 
BRANCH  30  32
ATOM     31  C   UNL     1       7.508   5.067  18.255  0.00  0.00    +0.000 C 
ATOM     32  C   UNL     1       6.860   5.186  16.884  0.00  0.00    +0.000 C 
ENDBRANCH  30  32
ENDBRANCH   1  30
BRANCH   9  33
ATOM     33  C   UNL     1       2.542   4.881  20.828  0.00  0.00    +0.000 C 
BRANCH  33  34
ATOM     34  C   UNL     1       1.281   4.031  20.650  0.00  0.00    +0.000 C 
ATOM     35  C   UNL     1       1.339   2.684  21.354  0.00  0.00    +0.000 C 
ENDBRANCH  33  34
ENDBRANCH   9  33
TORSDOF 9
ENDMDL
