MODEL 1
REMARK VINA RESULT:     -10.2      0.000      0.000
REMARK  Name = 
REMARK  4 active torsions:
REMARK  status: ('A' for Active; 'I' for Inactive)
REMARK    1  A    between atoms: C_1  and  N_2
REMARK    2  A    between atoms: C_5  and  N_6
REMARK    3  A    between atoms: N_9  and  C_10
REMARK    4  A    between atoms: C_24  and  C_25
REMARK                            x       y       z     vdW  Elec       q    Type
REMARK                         _______ _______ _______ _____ _____    ______ ____
ROOT
ATOM      1  N   UNL     1       1.408  10.747  18.184  0.00  0.00    +0.000 N 
ATOM      2  C   UNL     1       1.825   9.482  18.466  0.00  0.00    +0.000 C 
ATOM      3  O   UNL     1       1.391   8.887  19.455  0.00  0.00    +0.000 OA
ATOM      4  N   UNL     1       2.679   8.931  17.547  0.00  0.00    +0.000 N 
ATOM      5  H   UNL     1       1.686  11.238  17.353  0.00  0.00    +0.000 HD
ATOM      6  H   UNL     1       3.062   9.545  16.844  0.00  0.00    +0.000 HD
ENDROOT
BRANCH   4   7
ATOM      7  C   UNL     1       2.994   7.584  17.494  0.00  0.00    +0.000 A 
ATOM      8  C   UNL     1       2.050   6.641  17.776  0.00  0.00    +0.000 A 
ATOM      9  C   UNL     1       2.549   5.261  18.035  0.00  0.00    +0.000 A 
ATOM     10  C   UNL     1       1.834   4.314  18.674  0.00  0.00    +0.000 A 
ATOM     11  C   UNL     1       1.901   2.844  18.493  0.00  0.00    +0.000 A 
ATOM     12  C   UNL     1       1.616   2.082  19.575  0.00  0.00    +0.000 A 
ATOM     13  C   UNL     1       1.235   2.738  20.827  0.00  0.00    +0.000 A 
ATOM     14  C   UNL     1       1.707   3.968  21.109  0.00  0.00    +0.000 A 
ATOM     15  C   UNL     1       2.524   4.522  20.007  0.00  0.00    +0.000 A 
ATOM     16  N   UNL     1       3.756   4.937  19.961  0.00  0.00    +0.000 NA
ATOM     17  C   UNL     1       3.895   5.238  18.619  0.00  0.00    +0.000 A 
ATOM     18  C   UNL     1       4.784   6.062  18.045  0.00  0.00    +0.000 A 
ATOM     19  N   UNL     1       4.322   7.152  17.313  0.00  0.00    +0.000 N 
ATOM     20  H   UNL     1       4.971   7.941  17.234  0.00  0.00    +0.000 HD
ENDBRANCH   4   7
BRANCH   1  25
ATOM     21  C   UNL     1       1.106  15.253  20.095  0.00  0.00    +0.000 C 
ATOM     22  N   UNL     1       0.623  13.876  20.092  0.00  0.00    +0.000 N 
ATOM     23  C   UNL     1       1.105  13.024  19.091  0.00  0.00    +0.000 C 
ATOM     24  O   UNL     1       1.861  13.430  18.200  0.00  0.00    +0.000 OA
ATOM     25  C   UNL     1       0.668  11.524  19.157  0.00  0.00    +0.000 C 
ATOM     26  N   UNL     1      -0.723  11.453  18.744  0.00  0.00    +0.000 NA
ATOM     27  C   UNL     1      -1.622  11.938  19.538  0.00  0.00    +0.000 C 
ATOM     28  C   UNL     1      -1.341  12.539  20.897  0.00  0.00    +0.000 A 
ATOM     29  C   UNL     1      -2.206  12.194  21.947  0.00  0.00    +0.000 A 
ATOM     30  C   UNL     1      -2.131  12.833  23.181  0.00  0.00    +0.000 A 
ATOM     31  C   UNL     1      -1.149  13.792  23.391  0.00  0.00    +0.000 A 
ATOM     32  C   UNL     1      -0.253  14.126  22.363  0.00  0.00    +0.000 A 
ATOM     33  C   UNL     1      -0.315  13.493  21.103  0.00  0.00    +0.000 A 
BRANCH  27  34
ATOM     34  C   UNL     1      -3.043  11.871  19.058  0.00  0.00    +0.000 A 
ATOM     35  C   UNL     1      -3.325  11.109  17.916  0.00  0.00    +0.000 A 
ATOM     36  C   UNL     1      -4.630  11.029  17.427  0.00  0.00    +0.000 A 
ATOM     37  C   UNL     1      -5.662  11.702  18.080  0.00  0.00    +0.000 A 
ATOM     38  C   UNL     1      -5.390  12.468  19.214  0.00  0.00    +0.000 A 
ATOM     39  C   UNL     1      -4.084  12.563  19.697  0.00  0.00    +0.000 A 
ENDBRANCH  27  34
ENDBRANCH   1  25
TORSDOF 3
ENDMDL
MODEL 2
REMARK VINA RESULT:     -10.1      4.793      6.973
REMARK  Name = 
REMARK  4 active torsions:
REMARK  status: ('A' for Active; 'I' for Inactive)
REMARK    1  A    between atoms: C_1  and  N_2
REMARK    2  A    between atoms: C_5  and  N_6
REMARK    3  A    between atoms: N_9  and  C_10
REMARK    4  A    between atoms: C_24  and  C_25
REMARK                            x       y       z     vdW  Elec       q    Type
REMARK                         _______ _______ _______ _____ _____    ______ ____
ROOT
ATOM      1  N   UNL     1       2.591  13.903  18.340  0.00  0.00    +0.000 N 
ATOM      2  C   UNL     1       3.802  14.388  18.728  0.00  0.00    +0.000 C 
ATOM      3  O   UNL     1       4.070  14.515  19.926  0.00  0.00    +0.000 OA
ATOM      4  N   UNL     1       4.683  14.643  17.710  0.00  0.00    +0.000 N 
ATOM      5  H   UNL     1       2.361  13.722  17.379  0.00  0.00    +0.000 HD
ATOM      6  H   UNL     1       4.321  14.619  16.768  0.00  0.00    +0.000 HD
ENDROOT
BRANCH   4   7
ATOM      7  C   UNL     1       6.036  14.867  17.894  0.00  0.00    +0.000 A 
ATOM      8  C   UNL     1       6.955  13.967  17.441  0.00  0.00    +0.000 A 
ATOM      9  C   UNL     1       8.338  14.104  17.977  0.00  0.00    +0.000 A 
ATOM     10  C   UNL     1       9.257  13.120  17.940  0.00  0.00    +0.000 A 
ATOM     11  C   UNL     1      10.732  13.251  17.860  0.00  0.00    +0.000 A 
ATOM     12  C   UNL     1      11.465  12.272  18.439  0.00  0.00    +0.000 A 
ATOM     13  C   UNL     1      10.775  11.146  19.069  0.00  0.00    +0.000 A 
ATOM     14  C   UNL     1       9.548  11.322  19.598  0.00  0.00    +0.000 A 
ATOM     15  C   UNL     1       9.033  12.691  19.376  0.00  0.00    +0.000 A 
ATOM     16  N   UNL     1       8.643  13.618  20.201  0.00  0.00    +0.000 NA
ATOM     17  C   UNL     1       8.374  14.662  19.335  0.00  0.00    +0.000 A 
ATOM     18  C   UNL     1       7.579  15.722  19.541  0.00  0.00    +0.000 A 
ATOM     19  N   UNL     1       6.497  15.932  18.692  0.00  0.00    +0.000 N 
ATOM     20  H   UNL     1       5.722  16.475  19.086  0.00  0.00    +0.000 HD
ENDBRANCH   4   7
BRANCH   1  25
ATOM     21  C   UNL     1      -0.700  16.575  20.805  0.00  0.00    +0.000 C 
ATOM     22  N   UNL     1      -0.134  15.258  20.528  0.00  0.00    +0.000 N 
ATOM     23  C   UNL     1       0.818  15.168  19.505  0.00  0.00    +0.000 C 
ATOM     24  O   UNL     1       1.125  16.146  18.814  0.00  0.00    +0.000 OA
ATOM     25  C   UNL     1       1.499  13.777  19.284  0.00  0.00    +0.000 C 
ATOM     26  N   UNL     1       0.526  12.907  18.648  0.00  0.00    +0.000 NA
ATOM     27  C   UNL     1      -0.484  12.504  19.349  0.00  0.00    +0.000 C 
ATOM     28  C   UNL     1      -0.710  12.834  20.808  0.00  0.00    +0.000 A 
ATOM     29  C   UNL     1      -1.142  11.794  21.647  0.00  0.00    +0.000 A 
ATOM     30  C   UNL     1      -1.543  12.043  22.956  0.00  0.00    +0.000 A 
ATOM     31  C   UNL     1      -1.464  13.337  23.455  0.00  0.00    +0.000 A 
ATOM     32  C   UNL     1      -1.001  14.384  22.642  0.00  0.00    +0.000 A 
ATOM     33  C   UNL     1      -0.594  14.153  21.310  0.00  0.00    +0.000 A 
BRANCH  27  34
ATOM     34  C   UNL     1      -1.481  11.631  18.644  0.00  0.00    +0.000 A 
ATOM     35  C   UNL     1      -1.009  10.512  17.945  0.00  0.00    +0.000 A 
ATOM     36  C   UNL     1      -1.899   9.680  17.263  0.00  0.00    +0.000 A 
ATOM     37  C   UNL     1      -3.266   9.955  17.285  0.00  0.00    +0.000 A 
ATOM     38  C   UNL     1      -3.745  11.069  17.974  0.00  0.00    +0.000 A 
ATOM     39  C   UNL     1      -2.857  11.912  18.643  0.00  0.00    +0.000 A 
ENDBRANCH  27  34
ENDBRANCH   1  25
TORSDOF 3
ENDMDL
MODEL 3
REMARK VINA RESULT:      -9.5      1.588      2.886
REMARK  Name = 
REMARK  4 active torsions:
REMARK  status: ('A' for Active; 'I' for Inactive)
REMARK    1  A    between atoms: C_1  and  N_2
REMARK    2  A    between atoms: C_5  and  N_6
REMARK    3  A    between atoms: N_9  and  C_10
REMARK    4  A    between atoms: C_24  and  C_25
REMARK                            x       y       z     vdW  Elec       q    Type
REMARK                         _______ _______ _______ _____ _____    ______ ____
ROOT
ATOM      1  N   UNL     1       0.111  10.114  18.667  0.00  0.00    +0.000 N 
ATOM      2  C   UNL     1       1.162   9.374  19.113  0.00  0.00    +0.000 C 
ATOM      3  O   UNL     1       1.460   9.369  20.310  0.00  0.00    +0.000 OA
ATOM      4  N   UNL     1       1.786   8.611  18.160  0.00  0.00    +0.000 N 
ATOM      5  H   UNL     1      -0.204  10.090  17.713  0.00  0.00    +0.000 HD
ATOM      6  H   UNL     1       1.540   8.782  17.196  0.00  0.00    +0.000 HD
ENDROOT
BRANCH   4   7
ATOM      7  C   UNL     1       2.677   7.591  18.446  0.00  0.00    +0.000 A 
ATOM      8  C   UNL     1       3.896   7.546  17.835  0.00  0.00    +0.000 A 
ATOM      9  C   UNL     1       4.637   6.257  17.928  0.00  0.00    +0.000 A 
ATOM     10  C   UNL     1       5.645   5.911  17.104  0.00  0.00    +0.000 A 
ATOM     11  C   UNL     1       6.805   5.036  17.399  0.00  0.00    +0.000 A 
ATOM     12  C   UNL     1       7.321   4.335  16.363  0.00  0.00    +0.000 A 
ATOM     13  C   UNL     1       6.736   4.500  15.031  0.00  0.00    +0.000 A 
ATOM     14  C   UNL     1       5.433   4.820  14.906  0.00  0.00    +0.000 A 
ATOM     15  C   UNL     1       4.781   5.038  16.216  0.00  0.00    +0.000 A 
ATOM     16  N   UNL     1       3.759   4.469  16.785  0.00  0.00    +0.000 NA
ATOM     17  C   UNL     1       3.750   5.091  18.020  0.00  0.00    +0.000 A 
ATOM     18  C   UNL     1       2.723   5.217  18.873  0.00  0.00    +0.000 A 
ATOM     19  N   UNL     1       2.298   6.491  19.237  0.00  0.00    +0.000 N 
ATOM     20  H   UNL     1       1.323   6.562  19.545  0.00  0.00    +0.000 HD
ENDBRANCH   4   7
BRANCH   1  25
ATOM     21  C   UNL     1       0.552  14.788  20.082  0.00  0.00    +0.000 C 
ATOM     22  N   UNL     1      -0.170  13.525  20.195  0.00  0.00    +0.000 N 
ATOM     23  C   UNL     1       0.188  12.496  19.316  0.00  0.00    +0.000 C 
ATOM     24  O   UNL     1       1.036  12.662  18.430  0.00  0.00    +0.000 OA
ATOM     25  C   UNL     1      -0.512  11.111  19.512  0.00  0.00    +0.000 C 
ATOM     26  N   UNL     1      -1.877  11.238  19.033  0.00  0.00    +0.000 NA
ATOM     27  C   UNL     1      -2.704  11.958  19.722  0.00  0.00    +0.000 C 
ATOM     28  C   UNL     1      -2.368  12.648  21.025  0.00  0.00    +0.000 A 
ATOM     29  C   UNL     1      -3.318  12.578  22.057  0.00  0.00    +0.000 A 
ATOM     30  C   UNL     1      -3.174  13.327  23.220  0.00  0.00    +0.000 A 
ATOM     31  C   UNL     1      -2.044  14.119  23.383  0.00  0.00    +0.000 A 
ATOM     32  C   UNL     1      -1.067  14.175  22.376  0.00  0.00    +0.000 A 
ATOM     33  C   UNL     1      -1.196  13.426  21.187  0.00  0.00    +0.000 A 
BRANCH  27  34
ATOM     34  C   UNL     1      -4.095  12.085  19.174  0.00  0.00    +0.000 A 
ATOM     35  C   UNL     1      -4.461  11.275  18.090  0.00  0.00    +0.000 A 
ATOM     36  C   UNL     1      -5.741  11.371  17.541  0.00  0.00    +0.000 A 
ATOM     37  C   UNL     1      -6.665  12.268  18.076  0.00  0.00    +0.000 A 
ATOM     38  C   UNL     1      -6.308  13.082  19.151  0.00  0.00    +0.000 A 
ATOM     39  C   UNL     1      -5.025  13.001  19.693  0.00  0.00    +0.000 A 
ENDBRANCH  27  34
ENDBRANCH   1  25
TORSDOF 3
ENDMDL
MODEL 4
REMARK VINA RESULT:      -9.5      4.621      7.815
REMARK  Name = 
REMARK  4 active torsions:
REMARK  status: ('A' for Active; 'I' for Inactive)
REMARK    1  A    between atoms: C_1  and  N_2
REMARK    2  A    between atoms: C_5  and  N_6
REMARK    3  A    between atoms: N_9  and  C_10
REMARK    4  A    between atoms: C_24  and  C_25
REMARK                            x       y       z     vdW  Elec       q    Type
REMARK                         _______ _______ _______ _____ _____    ______ ____
ROOT
ATOM      1  N   UNL     1       1.695  14.279  19.445  0.00  0.00    +0.000 N 
ATOM      2  C   UNL     1       2.930  14.653  19.875  0.00  0.00    +0.000 C 
ATOM      3  O   UNL     1       3.545  13.960  20.689  0.00  0.00    +0.000 OA
ATOM      4  N   UNL     1       3.434  15.785  19.290  0.00  0.00    +0.000 N 
ATOM      5  H   UNL     1       1.192  14.780  18.734  0.00  0.00    +0.000 HD
ATOM      6  H   UNL     1       2.802  16.338  18.730  0.00  0.00    +0.000 HD
ENDROOT
BRANCH   4   7
ATOM      7  C   UNL     1       4.760  16.175  19.372  0.00  0.00    +0.000 A 
ATOM      8  C   UNL     1       5.638  15.855  18.379  0.00  0.00    +0.000 A 
ATOM      9  C   UNL     1       7.086  16.000  18.701  0.00  0.00    +0.000 A 
ATOM     10  C   UNL     1       8.072  15.400  18.006  0.00  0.00    +0.000 A 
ATOM     11  C   UNL     1       9.462  15.872  17.802  0.00  0.00    +0.000 A 
ATOM     12  C   UNL     1      10.413  14.922  17.646  0.00  0.00    +0.000 A 
ATOM     13  C   UNL     1      10.020  13.513  17.657  0.00  0.00    +0.000 A 
ATOM     14  C   UNL     1       8.941  13.123  18.365  0.00  0.00    +0.000 A 
ATOM     15  C   UNL     1       8.242  14.265  18.996  0.00  0.00    +0.000 A 
ATOM     16  N   UNL     1       7.959  14.533  20.237  0.00  0.00    +0.000 NA
ATOM     17  C   UNL     1       7.381  15.784  20.123  0.00  0.00    +0.000 A 
ATOM     18  C   UNL     1       6.546  16.389  20.980  0.00  0.00    +0.000 A 
ATOM     19  N   UNL     1       5.277  16.758  20.544  0.00  0.00    +0.000 N 
ATOM     20  H   UNL     1       4.564  16.842  21.275  0.00  0.00    +0.000 HD
ENDBRANCH   4   7
BRANCH   1  25
ATOM     21  C   UNL     1      -1.209  13.458  23.311  0.00  0.00    +0.000 C 
ATOM     22  N   UNL     1      -0.506  12.912  22.154  0.00  0.00    +0.000 N 
ATOM     23  C   UNL     1       0.117  13.821  21.289  0.00  0.00    +0.000 C 
ATOM     24  O   UNL     1       0.026  15.043  21.454  0.00  0.00    +0.000 OA
ATOM     25  C   UNL     1       0.958  13.225  20.113  0.00  0.00    +0.000 C 
ATOM     26  N   UNL     1       0.028  12.707  19.126  0.00  0.00    +0.000 NA
ATOM     27  C   UNL     1      -0.648  11.643  19.421  0.00  0.00    +0.000 C 
ATOM     28  C   UNL     1      -0.510  10.863  20.709  0.00  0.00    +0.000 A 
ATOM     29  C   UNL     1      -0.483   9.462  20.616  0.00  0.00    +0.000 A 
ATOM     30  C   UNL     1      -0.537   8.663  21.754  0.00  0.00    +0.000 A 
ATOM     31  C   UNL     1      -0.567   9.265  23.005  0.00  0.00    +0.000 A 
ATOM     32  C   UNL     1      -0.559  10.665  23.119  0.00  0.00    +0.000 A 
ATOM     33  C   UNL     1      -0.509  11.493  21.977  0.00  0.00    +0.000 A 
BRANCH  27  34
ATOM     34  C   UNL     1      -1.619  11.160  18.384  0.00  0.00    +0.000 A 
ATOM     35  C   UNL     1      -2.913  11.698  18.381  0.00  0.00    +0.000 A 
ATOM     36  C   UNL     1      -3.853  11.267  17.443  0.00  0.00    +0.000 A 
ATOM     37  C   UNL     1      -3.503  10.304  16.496  0.00  0.00    +0.000 A 
ATOM     38  C   UNL     1      -2.219   9.759  16.494  0.00  0.00    +0.000 A 
ATOM     39  C   UNL     1      -1.282  10.175  17.440  0.00  0.00    +0.000 A 
ENDBRANCH  27  34
ENDBRANCH   1  25
TORSDOF 3
ENDMDL
MODEL 5
REMARK VINA RESULT:      -9.4      1.907      2.674
REMARK  Name = 
REMARK  4 active torsions:
REMARK  status: ('A' for Active; 'I' for Inactive)
REMARK    1  A    between atoms: C_1  and  N_2
REMARK    2  A    between atoms: C_5  and  N_6
REMARK    3  A    between atoms: N_9  and  C_10
REMARK    4  A    between atoms: C_24  and  C_25
REMARK                            x       y       z     vdW  Elec       q    Type
REMARK                         _______ _______ _______ _____ _____    ______ ____
ROOT
ATOM      1  N   UNL     1      -0.796  11.002  19.446  0.00  0.00    +0.000 N 
ATOM      2  C   UNL     1       0.127  10.192  20.034  0.00  0.00    +0.000 C 
ATOM      3  O   UNL     1       0.150  10.058  21.260  0.00  0.00    +0.000 OA
ATOM      4  N   UNL     1       0.944   9.513  19.168  0.00  0.00    +0.000 N 
ATOM      5  H   UNL     1      -0.891  11.083  18.450  0.00  0.00    +0.000 HD
ATOM      6  H   UNL     1       0.919   9.787  18.197  0.00  0.00    +0.000 HD
ENDROOT
BRANCH   4   7
ATOM      7  C   UNL     1       1.745   8.446  19.535  0.00  0.00    +0.000 A 
ATOM      8  C   UNL     1       2.389   7.706  18.588  0.00  0.00    +0.000 A 
ATOM      9  C   UNL     1       2.934   6.391  19.030  0.00  0.00    +0.000 A 
ATOM     10  C   UNL     1       3.258   5.392  18.187  0.00  0.00    +0.000 A 
ATOM     11  C   UNL     1       4.297   4.349  18.364  0.00  0.00    +0.000 A 
ATOM     12  C   UNL     1       4.066   3.151  17.778  0.00  0.00    +0.000 A 
ATOM     13  C   UNL     1       2.845   2.967  16.993  0.00  0.00    +0.000 A 
ATOM     14  C   UNL     1       1.737   3.669  17.303  0.00  0.00    +0.000 A 
ATOM     15  C   UNL     1       1.969   4.626  18.407  0.00  0.00    +0.000 A 
ATOM     16  N   UNL     1       1.407   4.763  19.572  0.00  0.00    +0.000 NA
ATOM     17  C   UNL     1       2.158   5.787  20.120  0.00  0.00    +0.000 A 
ATOM     18  C   UNL     1       1.816   6.621  21.113  0.00  0.00    +0.000 A 
ATOM     19  N   UNL     1       1.788   7.991  20.867  0.00  0.00    +0.000 N 
ATOM     20  H   UNL     1       1.174   8.538  21.476  0.00  0.00    +0.000 HD
ENDBRANCH   4   7
BRANCH   1  25
ATOM     21  C   UNL     1      -0.842  15.630  21.067  0.00  0.00    +0.000 C 
ATOM     22  N   UNL     1      -1.492  14.323  21.038  0.00  0.00    +0.000 N 
ATOM     23  C   UNL     1      -0.956  13.354  20.180  0.00  0.00    +0.000 C 
ATOM     24  O   UNL     1      -0.010  13.607  19.425  0.00  0.00    +0.000 OA
ATOM     25  C   UNL     1      -1.588  11.925  20.232  0.00  0.00    +0.000 C 
ATOM     26  N   UNL     1      -2.882  11.993  19.577  0.00  0.00    +0.000 NA
ATOM     27  C   UNL     1      -3.837  12.634  20.171  0.00  0.00    +0.000 C 
ATOM     28  C   UNL     1      -3.722  13.287  21.530  0.00  0.00    +0.000 A 
ATOM     29  C   UNL     1      -4.795  13.119  22.420  0.00  0.00    +0.000 A 
ATOM     30  C   UNL     1      -4.856  13.826  23.617  0.00  0.00    +0.000 A 
ATOM     31  C   UNL     1      -3.810  14.673  23.959  0.00  0.00    +0.000 A 
ATOM     32  C   UNL     1      -2.711  14.828  23.097  0.00  0.00    +0.000 A 
ATOM     33  C   UNL     1      -2.633  14.123  21.877  0.00  0.00    +0.000 A 
BRANCH  27  34
ATOM     34  C   UNL     1      -5.147  12.705  19.444  0.00  0.00    +0.000 A 
ATOM     35  C   UNL     1      -5.632  11.542  18.830  0.00  0.00    +0.000 A 
ATOM     36  C   UNL     1      -6.841  11.565  18.131  0.00  0.00    +0.000 A 
ATOM     37  C   UNL     1      -7.577  12.747  18.050  0.00  0.00    +0.000 A 
ATOM     38  C   UNL     1      -7.100  13.911  18.653  0.00  0.00    +0.000 A 
ATOM     39  C   UNL     1      -5.884  13.896  19.339  0.00  0.00    +0.000 A 
ENDBRANCH  27  34
ENDBRANCH   1  25
TORSDOF 3
ENDMDL
MODEL 6
REMARK VINA RESULT:      -9.4      2.405      3.386
REMARK  Name = 
REMARK  4 active torsions:
REMARK  status: ('A' for Active; 'I' for Inactive)
REMARK    1  A    between atoms: C_1  and  N_2
REMARK    2  A    between atoms: C_5  and  N_6
REMARK    3  A    between atoms: N_9  and  C_10
REMARK    4  A    between atoms: C_24  and  C_25
REMARK                            x       y       z     vdW  Elec       q    Type
REMARK                         _______ _______ _______ _____ _____    ______ ____
ROOT
ATOM      1  N   UNL     1      -0.348  11.235  20.102  0.00  0.00    +0.000 N 
ATOM      2  C   UNL     1       0.689  10.418  20.433  0.00  0.00    +0.000 C 
ATOM      3  O   UNL     1       1.315  10.597  21.481  0.00  0.00    +0.000 OA
ATOM      4  N   UNL     1       0.917   9.382  19.566  0.00  0.00    +0.000 N 
ATOM      5  H   UNL     1      -0.924  11.080  19.293  0.00  0.00    +0.000 HD
ATOM      6  H   UNL     1       0.428   9.400  18.684  0.00  0.00    +0.000 HD
ENDROOT
BRANCH   4   7
ATOM      7  C   UNL     1       1.723   8.294  19.855  0.00  0.00    +0.000 A 
ATOM      8  C   UNL     1       2.386   7.641  18.859  0.00  0.00    +0.000 A 
ATOM      9  C   UNL     1       2.937   6.298  19.198  0.00  0.00    +0.000 A 
ATOM     10  C   UNL     1       3.282   5.376  18.279  0.00  0.00    +0.000 A 
ATOM     11  C   UNL     1       4.328   4.330  18.384  0.00  0.00    +0.000 A 
ATOM     12  C   UNL     1       4.117   3.183  17.697  0.00  0.00    +0.000 A 
ATOM     13  C   UNL     1       2.908   3.055  16.881  0.00  0.00    +0.000 A 
ATOM     14  C   UNL     1       1.789   3.720  17.232  0.00  0.00    +0.000 A 
ATOM     15  C   UNL     1       1.997   4.584  18.415  0.00  0.00    +0.000 A 
ATOM     16  N   UNL     1       1.418   4.618  19.579  0.00  0.00    +0.000 NA
ATOM     17  C   UNL     1       2.152   5.599  20.222  0.00  0.00    +0.000 A 
ATOM     18  C   UNL     1       1.788   6.344  21.276  0.00  0.00    +0.000 A 
ATOM     19  N   UNL     1       1.751   7.729  21.144  0.00  0.00    +0.000 N 
ATOM     20  H   UNL     1       1.123   8.219  21.789  0.00  0.00    +0.000 HD
ENDBRANCH   4   7
BRANCH   1  25
ATOM     21  C   UNL     1      -0.739  16.069  19.381  0.00  0.00    +0.000 C 
ATOM     22  N   UNL     1      -0.731  14.956  20.326  0.00  0.00    +0.000 N 
ATOM     23  C   UNL     1      -0.695  13.660  19.796  0.00  0.00    +0.000 C 
ATOM     24  O   UNL     1      -0.735  13.455  18.577  0.00  0.00    +0.000 OA
ATOM     25  C   UNL     1      -0.578  12.476  20.811  0.00  0.00    +0.000 C 
ATOM     26  N   UNL     1      -1.868  12.327  21.462  0.00  0.00    +0.000 NA
ATOM     27  C   UNL     1      -2.243  13.243  22.295  0.00  0.00    +0.000 C 
ATOM     28  C   UNL     1      -1.415  14.447  22.684  0.00  0.00    +0.000 A 
ATOM     29  C   UNL     1      -1.385  14.799  24.043  0.00  0.00    +0.000 A 
ATOM     30  C   UNL     1      -0.799  15.988  24.466  0.00  0.00    +0.000 A 
ATOM     31  C   UNL     1      -0.188  16.814  23.532  0.00  0.00    +0.000 A 
ATOM     32  C   UNL     1      -0.177  16.461  22.172  0.00  0.00    +0.000 A 
ATOM     33  C   UNL     1      -0.770  15.262  21.723  0.00  0.00    +0.000 A 
BRANCH  27  34
ATOM     34  C   UNL     1      -3.595  13.063  22.921  0.00  0.00    +0.000 A 
ATOM     35  C   UNL     1      -4.715  13.560  22.242  0.00  0.00    +0.000 A 
ATOM     36  C   UNL     1      -5.991  13.427  22.794  0.00  0.00    +0.000 A 
ATOM     37  C   UNL     1      -6.155  12.788  24.023  0.00  0.00    +0.000 A 
ATOM     38  C   UNL     1      -5.046  12.295  24.709  0.00  0.00    +0.000 A 
ATOM     39  C   UNL     1      -3.767  12.440  24.168  0.00  0.00    +0.000 A 
ENDBRANCH  27  34
ENDBRANCH   1  25
TORSDOF 3
ENDMDL
MODEL 7
REMARK VINA RESULT:      -9.2      4.658      8.330
REMARK  Name = 
REMARK  4 active torsions:
REMARK  status: ('A' for Active; 'I' for Inactive)
REMARK    1  A    between atoms: C_1  and  N_2
REMARK    2  A    between atoms: C_5  and  N_6
REMARK    3  A    between atoms: N_9  and  C_10
REMARK    4  A    between atoms: C_24  and  C_25
REMARK                            x       y       z     vdW  Elec       q    Type
REMARK                         _______ _______ _______ _____ _____    ______ ____
ROOT
ATOM      1  N   UNL     1       2.237  13.004  18.268  0.00  0.00    +0.000 N 
ATOM      2  C   UNL     1       3.190  13.871  18.705  0.00  0.00    +0.000 C 
ATOM      3  O   UNL     1       3.538  13.872  19.889  0.00  0.00    +0.000 OA
ATOM      4  N   UNL     1       3.753  14.658  17.735  0.00  0.00    +0.000 N 
ATOM      5  H   UNL     1       1.976  12.926  17.300  0.00  0.00    +0.000 HD
ATOM      6  H   UNL     1       3.312  14.661  16.827  0.00  0.00    +0.000 HD
ENDROOT
BRANCH   4   7
ATOM      7  C   UNL     1       4.914  15.392  17.910  0.00  0.00    +0.000 A 
ATOM      8  C   UNL     1       6.132  14.826  17.674  0.00  0.00    +0.000 A 
ATOM      9  C   UNL     1       7.317  15.553  18.212  0.00  0.00    +0.000 A 
ATOM     10  C   UNL     1       8.523  14.985  18.400  0.00  0.00    +0.000 A 
ATOM     11  C   UNL     1       9.856  15.631  18.339  0.00  0.00    +0.000 A 
ATOM     12  C   UNL     1      10.826  15.107  19.124  0.00  0.00    +0.000 A 
ATOM     13  C   UNL     1      10.520  13.936  19.947  0.00  0.00    +0.000 A 
ATOM     14  C   UNL     1       9.263  13.741  20.393  0.00  0.00    +0.000 A 
ATOM     15  C   UNL     1       8.322  14.764  19.886  0.00  0.00    +0.000 A 
ATOM     16  N   UNL     1       7.548  15.613  20.497  0.00  0.00    +0.000 NA
ATOM     17  C   UNL     1       7.016  16.315  19.430  0.00  0.00    +0.000 A 
ATOM     18  C   UNL     1       5.881  17.028  19.397  0.00  0.00    +0.000 A 
ATOM     19  N   UNL     1       4.885  16.674  18.491  0.00  0.00    +0.000 N 
ATOM     20  H   UNL     1       3.934  16.955  18.745  0.00  0.00    +0.000 HD
ENDBRANCH   4   7
BRANCH   1  25
ATOM     21  C   UNL     1      -2.439  12.143  19.470  0.00  0.00    +0.000 C 
ATOM     22  N   UNL     1      -1.026  11.910  19.753  0.00  0.00    +0.000 N 
ATOM     23  C   UNL     1      -0.093  12.415  18.839  0.00  0.00    +0.000 C 
ATOM     24  O   UNL     1      -0.443  12.981  17.797  0.00  0.00    +0.000 OA
ATOM     25  C   UNL     1       1.421  12.257  19.202  0.00  0.00    +0.000 C 
ATOM     26  N   UNL     1       1.775  10.862  19.009  0.00  0.00    +0.000 NA
ATOM     27  C   UNL     1       1.298   9.989  19.837  0.00  0.00    +0.000 C 
ATOM     28  C   UNL     1       0.428  10.316  21.030  0.00  0.00    +0.000 A 
ATOM     29  C   UNL     1       0.709   9.652  22.235  0.00  0.00    +0.000 A 
ATOM     30  C   UNL     1      -0.144   9.756  23.330  0.00  0.00    +0.000 A 
ATOM     31  C   UNL     1      -1.264  10.573  23.243  0.00  0.00    +0.000 A 
ATOM     32  C   UNL     1      -1.542  11.273  22.058  0.00  0.00    +0.000 A 
ATOM     33  C   UNL     1      -0.692  11.177  20.935  0.00  0.00    +0.000 A 
BRANCH  27  34
ATOM     34  C   UNL     1       1.666   8.556  19.582  0.00  0.00    +0.000 A 
ATOM     35  C   UNL     1       2.159   8.210  18.317  0.00  0.00    +0.000 A 
ATOM     36  C   UNL     1       2.501   6.887  18.032  0.00  0.00    +0.000 A 
ATOM     37  C   UNL     1       2.361   5.904  19.011  0.00  0.00    +0.000 A 
ATOM     38  C   UNL     1       1.865   6.238  20.272  0.00  0.00    +0.000 A 
ATOM     39  C   UNL     1       1.508   7.556  20.556  0.00  0.00    +0.000 A 
ENDBRANCH  27  34
ENDBRANCH   1  25
TORSDOF 3
ENDMDL
MODEL 8
REMARK VINA RESULT:      -9.2      2.132      2.861
REMARK  Name = 
REMARK  4 active torsions:
REMARK  status: ('A' for Active; 'I' for Inactive)
REMARK    1  A    between atoms: C_1  and  N_2
REMARK    2  A    between atoms: C_5  and  N_6
REMARK    3  A    between atoms: N_9  and  C_10
REMARK    4  A    between atoms: C_24  and  C_25
REMARK                            x       y       z     vdW  Elec       q    Type
REMARK                         _______ _______ _______ _____ _____    ______ ____
ROOT
ATOM      1  N   UNL     1      -0.851  11.227  19.474  0.00  0.00    +0.000 N 
ATOM      2  C   UNL     1       0.242  10.541  19.904  0.00  0.00    +0.000 C 
ATOM      3  O   UNL     1       0.759  10.807  20.992  0.00  0.00    +0.000 OA
ATOM      4  N   UNL     1       0.653   9.523  19.084  0.00  0.00    +0.000 N 
ATOM      5  H   UNL     1      -1.340  10.995  18.628  0.00  0.00    +0.000 HD
ATOM      6  H   UNL     1       0.235   9.470  18.167  0.00  0.00    +0.000 HD
ENDROOT
BRANCH   4   7
ATOM      7  C   UNL     1       1.551   8.539  19.461  0.00  0.00    +0.000 A 
ATOM      8  C   UNL     1       2.208   7.805  18.518  0.00  0.00    +0.000 A 
ATOM      9  C   UNL     1       2.874   6.559  18.993  0.00  0.00    +0.000 A 
ATOM     10  C   UNL     1       3.239   5.548  18.181  0.00  0.00    +0.000 A 
ATOM     11  C   UNL     1       4.363   4.597  18.356  0.00  0.00    +0.000 A 
ATOM     12  C   UNL     1       4.202   3.358  17.837  0.00  0.00    +0.000 A 
ATOM     13  C   UNL     1       2.965   3.042  17.120  0.00  0.00    +0.000 A 
ATOM     14  C   UNL     1       1.820   3.672  17.450  0.00  0.00    +0.000 A 
ATOM     15  C   UNL     1       2.025   4.697  18.497  0.00  0.00    +0.000 A 
ATOM     16  N   UNL     1       1.505   4.847  19.680  0.00  0.00    +0.000 NA
ATOM     17  C   UNL     1       2.197   5.951  20.145  0.00  0.00    +0.000 A 
ATOM     18  C   UNL     1       1.834   6.804  21.114  0.00  0.00    +0.000 A 
ATOM     19  N   UNL     1       1.688   8.154  20.808  0.00  0.00    +0.000 N 
ATOM     20  H   UNL     1       1.059   8.682  21.421  0.00  0.00    +0.000 HD
ENDBRANCH   4   7
BRANCH   1  25
ATOM     21  C   UNL     1      -0.416  16.104  19.206  0.00  0.00    +0.000 C 
ATOM     22  N   UNL     1      -0.955  14.948  19.915  0.00  0.00    +0.000 N 
ATOM     23  C   UNL     1      -0.792  13.691  19.319  0.00  0.00    +0.000 C 
ATOM     24  O   UNL     1      -0.270  13.563  18.205  0.00  0.00    +0.000 OA
ATOM     25  C   UNL     1      -1.275  12.446  20.132  0.00  0.00    +0.000 C 
ATOM     26  N   UNL     1      -2.727  12.432  20.093  0.00  0.00    +0.000 NA
ATOM     27  C   UNL     1      -3.366  13.341  20.757  0.00  0.00    +0.000 C 
ATOM     28  C   UNL     1      -2.713  14.400  21.617  0.00  0.00    +0.000 A 
ATOM     29  C   UNL     1      -3.297  14.667  22.866  0.00  0.00    +0.000 A 
ATOM     30  C   UNL     1      -2.874  15.741  23.644  0.00  0.00    +0.000 A 
ATOM     31  C   UNL     1      -1.822  16.530  23.197  0.00  0.00    +0.000 A 
ATOM     32  C   UNL     1      -1.204  16.258  21.965  0.00  0.00    +0.000 A 
ATOM     33  C   UNL     1      -1.621  15.176  21.160  0.00  0.00    +0.000 A 
BRANCH  27  34
ATOM     34  C   UNL     1      -4.863  13.307  20.664  0.00  0.00    +0.000 A 
ATOM     35  C   UNL     1      -5.516  14.379  20.040  0.00  0.00    +0.000 A 
ATOM     36  C   UNL     1      -6.909  14.395  19.943  0.00  0.00    +0.000 A 
ATOM     37  C   UNL     1      -7.657  13.337  20.459  0.00  0.00    +0.000 A 
ATOM     38  C   UNL     1      -7.016  12.268  21.087  0.00  0.00    +0.000 A 
ATOM     39  C   UNL     1      -5.625  12.256  21.200  0.00  0.00    +0.000 A 
ENDBRANCH  27  34
ENDBRANCH   1  25
TORSDOF 3
ENDMDL
MODEL 9
REMARK VINA RESULT:      -9.2      5.055      7.302
REMARK  Name = 
REMARK  4 active torsions:
REMARK  status: ('A' for Active; 'I' for Inactive)
REMARK    1  A    between atoms: C_1  and  N_2
REMARK    2  A    between atoms: C_5  and  N_6
REMARK    3  A    between atoms: N_9  and  C_10
REMARK    4  A    between atoms: C_24  and  C_25
REMARK                            x       y       z     vdW  Elec       q    Type
REMARK                         _______ _______ _______ _____ _____    ______ ____
ROOT
ATOM      1  N   UNL     1       2.992  14.515  20.219  0.00  0.00    +0.000 N 
ATOM      2  C   UNL     1       4.109  14.457  20.994  0.00  0.00    +0.000 C 
ATOM      3  O   UNL     1       4.081  13.888  22.088  0.00  0.00    +0.000 OA
ATOM      4  N   UNL     1       5.236  15.001  20.436  0.00  0.00    +0.000 N 
ATOM      5  H   UNL     1       2.991  14.908  19.294  0.00  0.00    +0.000 HD
ATOM      6  H   UNL     1       5.119  15.544  19.593  0.00  0.00    +0.000 HD
ENDROOT
BRANCH   4   7
ATOM      7  C   UNL     1       6.516  14.800  20.923  0.00  0.00    +0.000 A 
ATOM      8  C   UNL     1       7.562  14.624  20.066  0.00  0.00    +0.000 A 
ATOM      9  C   UNL     1       8.816  14.074  20.655  0.00  0.00    +0.000 A 
ATOM     10  C   UNL     1       9.796  13.500  19.930  0.00  0.00    +0.000 A 
ATOM     11  C   UNL     1      11.248  13.463  20.226  0.00  0.00    +0.000 A 
ATOM     12  C   UNL     1      11.936  12.387  19.778  0.00  0.00    +0.000 A 
ATOM     13  C   UNL     1      11.228  11.357  19.016  0.00  0.00    +0.000 A 
ATOM     14  C   UNL     1       9.917  11.138  19.242  0.00  0.00    +0.000 A 
ATOM     15  C   UNL     1       9.353  12.082  20.232  0.00  0.00    +0.000 A 
ATOM     16  N   UNL     1       8.758  11.893  21.373  0.00  0.00    +0.000 NA
ATOM     17  C   UNL     1       8.572  13.195  21.804  0.00  0.00    +0.000 A 
ATOM     18  C   UNL     1       7.679  13.648  22.695  0.00  0.00    +0.000 A 
ATOM     19  N   UNL     1       6.751  14.606  22.297  0.00  0.00    +0.000 N 
ATOM     20  H   UNL     1       5.882  14.635  22.840  0.00  0.00    +0.000 HD
ENDBRANCH   4   7
BRANCH   1  25
ATOM     21  C   UNL     1      -1.271  16.497  21.614  0.00  0.00    +0.000 C 
ATOM     22  N   UNL     1      -0.453  15.297  21.473  0.00  0.00    +0.000 N 
ATOM     23  C   UNL     1       0.772  15.426  20.808  0.00  0.00    +0.000 C 
ATOM     24  O   UNL     1       1.127  16.496  20.299  0.00  0.00    +0.000 OA
ATOM     25  C   UNL     1       1.693  14.162  20.753  0.00  0.00    +0.000 C 
ATOM     26  N   UNL     1       1.111  13.236  19.798  0.00  0.00    +0.000 NA
ATOM     27  C   UNL     1       0.006  12.641  20.116  0.00  0.00    +0.000 C 
ATOM     28  C   UNL     1      -0.711  12.802  21.438  0.00  0.00    +0.000 A 
ATOM     29  C   UNL     1      -1.220  11.641  22.043  0.00  0.00    +0.000 A 
ATOM     30  C   UNL     1      -2.043  11.714  23.163  0.00  0.00    +0.000 A 
ATOM     31  C   UNL     1      -2.322  12.955  23.721  0.00  0.00    +0.000 A 
ATOM     32  C   UNL     1      -1.793  14.125  23.150  0.00  0.00    +0.000 A 
ATOM     33  C   UNL     1      -0.960  14.072  22.012  0.00  0.00    +0.000 A 
BRANCH  27  34
ATOM     34  C   UNL     1      -0.575  11.716  19.088  0.00  0.00    +0.000 A 
ATOM     35  C   UNL     1      -1.772  12.086  18.460  0.00  0.00    +0.000 A 
ATOM     36  C   UNL     1      -2.356  11.248  17.506  0.00  0.00    +0.000 A 
ATOM     37  C   UNL     1      -1.741  10.043  17.167  0.00  0.00    +0.000 A 
ATOM     38  C   UNL     1      -0.552   9.665  17.790  0.00  0.00    +0.000 A 
ATOM     39  C   UNL     1       0.026  10.491  18.755  0.00  0.00    +0.000 A 
ENDBRANCH  27  34
ENDBRANCH   1  25
TORSDOF 3
ENDMDL
