MODEL 1
REMARK VINA RESULT:      -7.9      0.000      0.000
REMARK  Name = 
REMARK  6 active torsions:
REMARK  status: ('A' for Active; 'I' for Inactive)
REMARK    1  A    between atoms: C_1  and  C_2
REMARK    2  A    between atoms: C_5  and  N_6
REMARK    3  A    between atoms: C_12  and  C_13
REMARK    4  A    between atoms: N_15  and  C_16
REMARK    5  A    between atoms: C_19  and  C_20
REMARK    6  A    between atoms: C_21  and  C_22
REMARK                            x       y       z     vdW  Elec       q    Type
REMARK                         _______ _______ _______ _____ _____    ______ ____
ROOT
ATOM      1  N   UNL     1       1.067  12.674  20.092  0.00  0.00    +0.000 N 
ATOM      2  C   UNL     1       0.495  11.828  21.007  0.00  0.00    +0.000 C 
ATOM      3  N   UNL     1      -0.572  12.072  21.680  0.00  0.00    +0.000 NA
ATOM      4  C   UNL     1      -1.047  11.211  22.624  0.00  0.00    +0.000 C 
ATOM      5  O   UNL     1      -2.080  11.463  23.244  0.00  0.00    +0.000 OA
ATOM      6  C   UNL     1      -0.289   9.970  22.982  0.00  0.00    +0.000 C 
ATOM      7  C   UNL     1       0.892   9.658  22.098  0.00  0.00    +0.000 C 
ATOM      8  N   UNL     1       1.205  10.685  21.131  0.00  0.00    +0.000 N 
ATOM      9  H   UNL     1       1.998  12.428  19.795  0.00  0.00    +0.000 HD
ATOM     10  H   UNL     1       1.954  10.466  20.484  0.00  0.00    +0.000 HD
ENDROOT
BRANCH   1  15
ATOM     11  C   UNL     1       0.087  18.296  19.385  0.00  0.00    +0.000 C 
ATOM     12  C   UNL     1       0.326  16.828  19.576  0.00  0.00    +0.000 A 
ATOM     13  C   UNL     1      -0.322  15.873  18.791  0.00  0.00    +0.000 A 
ATOM     14  C   UNL     1      -0.077  14.508  18.990  0.00  0.00    +0.000 A 
ATOM     15  C   UNL     1       0.833  14.065  19.964  0.00  0.00    +0.000 A 
ATOM     16  C   UNL     1       1.437  15.034  20.770  0.00  0.00    +0.000 A 
ATOM     17  C   UNL     1       1.200  16.398  20.573  0.00  0.00    +0.000 A 
ENDBRANCH   1  15
BRANCH   7  18
ATOM     18  C   UNL     1       0.723   8.318  21.380  0.00  0.00    +0.000 C 
ATOM     19  O   UNL     1      -0.393   7.800  21.343  0.00  0.00    +0.000 OA
ATOM     20  N   UNL     1       1.891   7.771  20.863  0.00  0.00    +0.000 N 
ATOM     21  H   UNL     1       2.768   8.186  21.161  0.00  0.00    +0.000 HD
BRANCH  20  22
ATOM     22  C   UNL     1       1.968   6.561  20.133  0.00  0.00    +0.000 A 
ATOM     23  C   UNL     1       2.329   6.513  18.788  0.00  0.00    +0.000 A 
ATOM     24  C   UNL     1       2.329   5.306  18.089  0.00  0.00    +0.000 A 
ATOM     25  C   UNL     1       1.973   4.108  18.717  0.00  0.00    +0.000 A 
ATOM     26  C   UNL     1       1.942   2.851  17.893  0.00  0.00    +0.000 C 
ATOM     27  C   UNL     1       1.642   4.131  20.086  0.00  0.00    +0.000 A 
ATOM     28  C   UNL     1       1.238   2.892  20.840  0.00  0.00    +0.000 C 
ATOM     29  C   UNL     1       1.662   5.360  20.783  0.00  0.00    +0.000 A 
ENDBRANCH  20  22
ENDBRANCH   7  18
TORSDOF 3
ENDMDL
MODEL 2
REMARK VINA RESULT:      -7.8      0.412      1.020
REMARK  Name = 
REMARK  6 active torsions:
REMARK  status: ('A' for Active; 'I' for Inactive)
REMARK    1  A    between atoms: C_1  and  C_2
REMARK    2  A    between atoms: C_5  and  N_6
REMARK    3  A    between atoms: C_12  and  C_13
REMARK    4  A    between atoms: N_15  and  C_16
REMARK    5  A    between atoms: C_19  and  C_20
REMARK    6  A    between atoms: C_21  and  C_22
REMARK                            x       y       z     vdW  Elec       q    Type
REMARK                         _______ _______ _______ _____ _____    ______ ____
ROOT
ATOM      1  N   UNL     1       0.755  12.906  20.227  0.00  0.00    +0.000 N 
ATOM      2  C   UNL     1       0.239  12.008  21.127  0.00  0.00    +0.000 C 
ATOM      3  N   UNL     1      -0.824  12.184  21.826  0.00  0.00    +0.000 NA
ATOM      4  C   UNL     1      -1.241  11.275  22.753  0.00  0.00    +0.000 C 
ATOM      5  O   UNL     1      -2.271  11.461  23.400  0.00  0.00    +0.000 OA
ATOM      6  C   UNL     1      -0.421  10.060  23.059  0.00  0.00    +0.000 C 
ATOM      7  C   UNL     1       0.755   9.828  22.144  0.00  0.00    +0.000 C 
ATOM      8  N   UNL     1       1.002  10.895  21.203  0.00  0.00    +0.000 N 
ATOM      9  H   UNL     1       1.689  12.710  19.905  0.00  0.00    +0.000 HD
ATOM     10  H   UNL     1       1.746  10.730  20.535  0.00  0.00    +0.000 HD
ENDROOT
BRANCH   1  15
ATOM     11  C   UNL     1      -0.459  18.525  20.083  0.00  0.00    +0.000 C 
ATOM     12  C   UNL     1      -0.125  17.064  20.117  0.00  0.00    +0.000 A 
ATOM     13  C   UNL     1       0.662  16.516  21.131  0.00  0.00    +0.000 A 
ATOM     14  C   UNL     1       0.954  15.146  21.139  0.00  0.00    +0.000 A 
ATOM     15  C   UNL     1       0.456  14.288  20.145  0.00  0.00    +0.000 A 
ATOM     16  C   UNL     1      -0.292  14.863  19.113  0.00  0.00    +0.000 A 
ATOM     17  C   UNL     1      -0.592  16.228  19.103  0.00  0.00    +0.000 A 
ENDBRANCH   1  15
BRANCH   7  18
ATOM     18  C   UNL     1       0.631   8.503  21.389  0.00  0.00    +0.000 C 
ATOM     19  O   UNL     1      -0.477   7.976  21.290  0.00  0.00    +0.000 OA
ATOM     20  N   UNL     1       1.827   7.978  20.913  0.00  0.00    +0.000 N 
ATOM     21  H   UNL     1       2.685   8.393  21.260  0.00  0.00    +0.000 HD
BRANCH  20  22
ATOM     22  C   UNL     1       1.948   6.786  20.160  0.00  0.00    +0.000 A 
ATOM     23  C   UNL     1       2.375   6.771  18.834  0.00  0.00    +0.000 A 
ATOM     24  C   UNL     1       2.418   5.581  18.109  0.00  0.00    +0.000 A 
ATOM     25  C   UNL     1       2.040   4.366  18.691  0.00  0.00    +0.000 A 
ATOM     26  C   UNL     1       2.058   3.128  17.838  0.00  0.00    +0.000 C 
ATOM     27  C   UNL     1       1.642   4.355  20.042  0.00  0.00    +0.000 A 
ATOM     28  C   UNL     1       1.211   3.097  20.747  0.00  0.00    +0.000 C 
ATOM     29  C   UNL     1       1.619   5.568  20.768  0.00  0.00    +0.000 A 
ENDBRANCH  20  22
ENDBRANCH   7  18
TORSDOF 3
ENDMDL
MODEL 3
REMARK VINA RESULT:      -7.7      4.121      6.847
REMARK  Name = 
REMARK  6 active torsions:
REMARK  status: ('A' for Active; 'I' for Inactive)
REMARK    1  A    between atoms: C_1  and  C_2
REMARK    2  A    between atoms: C_5  and  N_6
REMARK    3  A    between atoms: C_12  and  C_13
REMARK    4  A    between atoms: N_15  and  C_16
REMARK    5  A    between atoms: C_19  and  C_20
REMARK    6  A    between atoms: C_21  and  C_22
REMARK                            x       y       z     vdW  Elec       q    Type
REMARK                         _______ _______ _______ _____ _____    ______ ____
ROOT
ATOM      1  N   UNL     1       2.396   7.697  19.992  0.00  0.00    +0.000 N 
ATOM      2  C   UNL     1       2.431   6.327  19.972  0.00  0.00    +0.000 C 
ATOM      3  N   UNL     1       1.461   5.553  20.306  0.00  0.00    +0.000 NA
ATOM      4  C   UNL     1       1.590   4.196  20.327  0.00  0.00    +0.000 C 
ATOM      5  O   UNL     1       0.641   3.477  20.638  0.00  0.00    +0.000 OA
ATOM      6  C   UNL     1       2.909   3.546  20.041  0.00  0.00    +0.000 C 
ATOM      7  C   UNL     1       3.990   4.472  19.544  0.00  0.00    +0.000 C 
ATOM      8  N   UNL     1       3.635   5.872  19.562  0.00  0.00    +0.000 N 
ATOM      9  H   UNL     1       3.287   8.157  19.891  0.00  0.00    +0.000 HD
ATOM     10  H   UNL     1       4.323   6.505  19.170  0.00  0.00    +0.000 HD
ENDROOT
BRANCH   1  15
ATOM     11  C   UNL     1      -1.353  11.126  22.687  0.00  0.00    +0.000 C 
ATOM     12  C   UNL     1      -0.389  10.222  21.978  0.00  0.00    +0.000 A 
ATOM     13  C   UNL     1      -0.309  10.186  20.586  0.00  0.00    +0.000 A 
ATOM     14  C   UNL     1       0.604   9.333  19.950  0.00  0.00    +0.000 A 
ATOM     15  C   UNL     1       1.469   8.510  20.690  0.00  0.00    +0.000 A 
ATOM     16  C   UNL     1       1.341   8.527  22.081  0.00  0.00    +0.000 A 
ATOM     17  C   UNL     1       0.437   9.379  22.721  0.00  0.00    +0.000 A 
ENDBRANCH   1  15
BRANCH   7  18
ATOM     18  C   UNL     1       4.465   4.086  18.142  0.00  0.00    +0.000 C 
ATOM     19  O   UNL     1       4.051   3.039  17.642  0.00  0.00    +0.000 OA
ATOM     20  N   UNL     1       5.384   4.954  17.566  0.00  0.00    +0.000 N 
ATOM     21  H   UNL     1       5.808   5.647  18.174  0.00  0.00    +0.000 HD
BRANCH  20  22
ATOM     22  C   UNL     1       5.931   4.816  16.269  0.00  0.00    +0.000 A 
ATOM     23  C   UNL     1       7.206   5.269  15.936  0.00  0.00    +0.000 A 
ATOM     24  C   UNL     1       7.681   5.171  14.628  0.00  0.00    +0.000 A 
ATOM     25  C   UNL     1       6.897   4.611  13.614  0.00  0.00    +0.000 A 
ATOM     26  C   UNL     1       7.449   4.585  12.215  0.00  0.00    +0.000 C 
ATOM     27  C   UNL     1       5.621   4.113  13.940  0.00  0.00    +0.000 A 
ATOM     28  C   UNL     1       4.706   3.502  12.912  0.00  0.00    +0.000 C 
ATOM     29  C   UNL     1       5.160   4.205  15.273  0.00  0.00    +0.000 A 
ENDBRANCH  20  22
ENDBRANCH   7  18
TORSDOF 3
ENDMDL
MODEL 4
REMARK VINA RESULT:      -7.5      3.678      4.278
REMARK  Name = 
REMARK  6 active torsions:
REMARK  status: ('A' for Active; 'I' for Inactive)
REMARK    1  A    between atoms: C_1  and  C_2
REMARK    2  A    between atoms: C_5  and  N_6
REMARK    3  A    between atoms: C_12  and  C_13
REMARK    4  A    between atoms: N_15  and  C_16
REMARK    5  A    between atoms: C_19  and  C_20
REMARK    6  A    between atoms: C_21  and  C_22
REMARK                            x       y       z     vdW  Elec       q    Type
REMARK                         _______ _______ _______ _____ _____    ______ ____
ROOT
ATOM      1  N   UNL     1      -2.261  10.703  17.745  0.00  0.00    +0.000 N 
ATOM      2  C   UNL     1      -1.210  10.631  18.623  0.00  0.00    +0.000 C 
ATOM      3  N   UNL     1      -1.279  10.858  19.886  0.00  0.00    +0.000 NA
ATOM      4  C   UNL     1      -0.176  10.834  20.688  0.00  0.00    +0.000 C 
ATOM      5  O   UNL     1      -0.272  11.041  21.897  0.00  0.00    +0.000 OA
ATOM      6  C   UNL     1       1.189  10.624  20.110  0.00  0.00    +0.000 C 
ATOM      7  C   UNL     1       1.221  10.249  18.649  0.00  0.00    +0.000 C 
ATOM      8  N   UNL     1      -0.064  10.297  17.990  0.00  0.00    +0.000 N 
ATOM      9  H   UNL     1      -2.014  10.690  16.768  0.00  0.00    +0.000 HD
ATOM     10  H   UNL     1      -0.076   9.984  17.026  0.00  0.00    +0.000 HD
ENDROOT
BRANCH   1  15
ATOM     11  C   UNL     1      -7.286  13.416  18.428  0.00  0.00    +0.000 C 
ATOM     12  C   UNL     1      -5.985  12.693  18.250  0.00  0.00    +0.000 A 
ATOM     13  C   UNL     1      -5.669  12.036  17.059  0.00  0.00    +0.000 A 
ATOM     14  C   UNL     1      -4.444  11.371  16.921  0.00  0.00    +0.000 A 
ATOM     15  C   UNL     1      -3.498  11.360  17.959  0.00  0.00    +0.000 A 
ATOM     16  C   UNL     1      -3.852  11.984  19.158  0.00  0.00    +0.000 A 
ATOM     17  C   UNL     1      -5.070  12.654  19.302  0.00  0.00    +0.000 A 
ENDBRANCH   1  15
BRANCH   7  18
ATOM     18  C   UNL     1       1.853   8.873  18.432  0.00  0.00    +0.000 C 
ATOM     19  O   UNL     1       2.248   8.572  17.306  0.00  0.00    +0.000 OA
ATOM     20  N   UNL     1       1.878   8.049  19.550  0.00  0.00    +0.000 N 
ATOM     21  H   UNL     1       1.318   8.333  20.347  0.00  0.00    +0.000 HD
BRANCH  20  22
ATOM     22  C   UNL     1       2.443   6.752  19.592  0.00  0.00    +0.000 A 
ATOM     23  C   UNL     1       3.588   6.405  18.877  0.00  0.00    +0.000 A 
ATOM     24  C   UNL     1       4.074   5.098  18.895  0.00  0.00    +0.000 A 
ATOM     25  C   UNL     1       3.431   4.098  19.634  0.00  0.00    +0.000 A 
ATOM     26  C   UNL     1       3.976   2.698  19.567  0.00  0.00    +0.000 C 
ATOM     27  C   UNL     1       2.295   4.439  20.393  0.00  0.00    +0.000 A 
ATOM     28  C   UNL     1       1.536   3.427  21.210  0.00  0.00    +0.000 C 
ATOM     29  C   UNL     1       1.825   5.772  20.377  0.00  0.00    +0.000 A 
ENDBRANCH  20  22
ENDBRANCH   7  18
TORSDOF 3
ENDMDL
MODEL 5
REMARK VINA RESULT:      -7.4      0.488      1.363
REMARK  Name = 
REMARK  6 active torsions:
REMARK  status: ('A' for Active; 'I' for Inactive)
REMARK    1  A    between atoms: C_1  and  C_2
REMARK    2  A    between atoms: C_5  and  N_6
REMARK    3  A    between atoms: C_12  and  C_13
REMARK    4  A    between atoms: N_15  and  C_16
REMARK    5  A    between atoms: C_19  and  C_20
REMARK    6  A    between atoms: C_21  and  C_22
REMARK                            x       y       z     vdW  Elec       q    Type
REMARK                         _______ _______ _______ _____ _____    ______ ____
ROOT
ATOM      1  N   UNL     1       1.203  12.484  20.046  0.00  0.00    +0.000 N 
ATOM      2  C   UNL     1       0.633  11.656  20.978  0.00  0.00    +0.000 C 
ATOM      3  N   UNL     1      -0.410  11.930  21.677  0.00  0.00    +0.000 NA
ATOM      4  C   UNL     1      -0.883  11.083  22.636  0.00  0.00    +0.000 C 
ATOM      5  O   UNL     1      -1.892  11.364  23.282  0.00  0.00    +0.000 OA
ATOM      6  C   UNL     1      -0.149   9.824  22.978  0.00  0.00    +0.000 C 
ATOM      7  C   UNL     1       1.001   9.479  22.065  0.00  0.00    +0.000 C 
ATOM      8  N   UNL     1       1.315  10.495  21.087  0.00  0.00    +0.000 N 
ATOM      9  H   UNL     1       2.119  12.212  19.726  0.00  0.00    +0.000 HD
ATOM     10  H   UNL     1       2.041  10.254  20.421  0.00  0.00    +0.000 HD
ENDROOT
BRANCH   1  15
ATOM     11  C   UNL     1       0.349  18.128  19.349  0.00  0.00    +0.000 C 
ATOM     12  C   UNL     1       0.555  16.655  19.538  0.00  0.00    +0.000 A 
ATOM     13  C   UNL     1      -0.164  15.714  18.800  0.00  0.00    +0.000 A 
ATOM     14  C   UNL     1       0.052  14.344  18.996  0.00  0.00    +0.000 A 
ATOM     15  C   UNL     1       1.003  13.881  19.919  0.00  0.00    +0.000 A 
ATOM     16  C   UNL     1       1.680  14.837  20.681  0.00  0.00    +0.000 A 
ATOM     17  C   UNL     1       1.472  16.205  20.487  0.00  0.00    +0.000 A 
ENDBRANCH   1  15
BRANCH   7  18
ATOM     18  C   UNL     1       0.777   8.142  21.355  0.00  0.00    +0.000 C 
ATOM     19  O   UNL     1      -0.372   7.716  21.238  0.00  0.00    +0.000 OA
ATOM     20  N   UNL     1       1.933   7.491  20.940  0.00  0.00    +0.000 N 
ATOM     21  H   UNL     1       2.815   7.840  21.300  0.00  0.00    +0.000 HD
BRANCH  20  22
ATOM     22  C   UNL     1       1.966   6.264  20.236  0.00  0.00    +0.000 A 
ATOM     23  C   UNL     1       1.245   5.142  20.641  0.00  0.00    +0.000 A 
ATOM     24  C   UNL     1       1.358   3.933  19.955  0.00  0.00    +0.000 A 
ATOM     25  C   UNL     1       2.191   3.811  18.838  0.00  0.00    +0.000 A 
ATOM     26  C   UNL     1       2.308   2.465  18.177  0.00  0.00    +0.000 C 
ATOM     27  C   UNL     1       2.898   4.944  18.391  0.00  0.00    +0.000 A 
ATOM     28  C   UNL     1       3.824   4.903  17.204  0.00  0.00    +0.000 C 
ATOM     29  C   UNL     1       2.761   6.166  19.088  0.00  0.00    +0.000 A 
ENDBRANCH  20  22
ENDBRANCH   7  18
TORSDOF 3
ENDMDL
MODEL 6
REMARK VINA RESULT:      -7.4      2.244      9.629
REMARK  Name = 
REMARK  6 active torsions:
REMARK  status: ('A' for Active; 'I' for Inactive)
REMARK    1  A    between atoms: C_1  and  C_2
REMARK    2  A    between atoms: C_5  and  N_6
REMARK    3  A    between atoms: C_12  and  C_13
REMARK    4  A    between atoms: N_15  and  C_16
REMARK    5  A    between atoms: C_19  and  C_20
REMARK    6  A    between atoms: C_21  and  C_22
REMARK                            x       y       z     vdW  Elec       q    Type
REMARK                         _______ _______ _______ _____ _____    ______ ____
ROOT
ATOM      1  N   UNL     1       2.794   7.257  17.910  0.00  0.00    +0.000 N 
ATOM      2  C   UNL     1       2.139   8.109  18.761  0.00  0.00    +0.000 C 
ATOM      3  N   UNL     1       1.826   7.847  19.980  0.00  0.00    +0.000 NA
ATOM      4  C   UNL     1       1.113   8.719  20.748  0.00  0.00    +0.000 C 
ATOM      5  O   UNL     1       0.838   8.449  21.917  0.00  0.00    +0.000 OA
ATOM      6  C   UNL     1       0.585   9.996  20.172  0.00  0.00    +0.000 C 
ATOM      7  C   UNL     1       1.065  10.323  18.780  0.00  0.00    +0.000 C 
ATOM      8  N   UNL     1       1.844   9.279  18.154  0.00  0.00    +0.000 N 
ATOM      9  H   UNL     1       2.794   7.527  16.939  0.00  0.00    +0.000 HD
ATOM     10  H   UNL     1       2.232   9.505  17.246  0.00  0.00    +0.000 HD
ENDROOT
BRANCH   1  15
ATOM     11  C   UNL     1       3.545   1.582  18.460  0.00  0.00    +0.000 C 
ATOM     12  C   UNL     1       3.351   3.063  18.334  0.00  0.00    +0.000 A 
ATOM     13  C   UNL     1       4.382   3.962  18.607  0.00  0.00    +0.000 A 
ATOM     14  C   UNL     1       4.172   5.342  18.478  0.00  0.00    +0.000 A 
ATOM     15  C   UNL     1       2.934   5.855  18.058  0.00  0.00    +0.000 A 
ATOM     16  C   UNL     1       1.901   4.941  17.834  0.00  0.00    +0.000 A 
ATOM     17  C   UNL     1       2.105   3.563  17.956  0.00  0.00    +0.000 A 
ENDBRANCH   1  15
BRANCH   7  18
ATOM     18  C   UNL     1       1.853  11.634  18.747  0.00  0.00    +0.000 C 
ATOM     19  O   UNL     1       2.669  11.814  17.843  0.00  0.00    +0.000 OA
ATOM     20  N   UNL     1       1.601  12.504  19.801  0.00  0.00    +0.000 N 
ATOM     21  H   UNL     1       1.081  12.135  20.591  0.00  0.00    +0.000 HD
BRANCH  20  22
ATOM     22  C   UNL     1       2.186  13.783  19.957  0.00  0.00    +0.000 A 
ATOM     23  C   UNL     1       3.284  14.014  20.784  0.00  0.00    +0.000 A 
ATOM     24  C   UNL     1       3.788  15.302  20.959  0.00  0.00    +0.000 A 
ATOM     25  C   UNL     1       3.213  16.399  20.308  0.00  0.00    +0.000 A 
ATOM     26  C   UNL     1       3.772  17.768  20.583  0.00  0.00    +0.000 C 
ATOM     27  C   UNL     1       2.127  16.179  19.439  0.00  0.00    +0.000 A 
ATOM     28  C   UNL     1       1.441  17.300  18.704  0.00  0.00    +0.000 C 
ATOM     29  C   UNL     1       1.637  14.866  19.260  0.00  0.00    +0.000 A 
ENDBRANCH  20  22
ENDBRANCH   7  18
TORSDOF 3
ENDMDL
MODEL 7
REMARK VINA RESULT:      -7.4      3.713      4.441
REMARK  Name = 
REMARK  6 active torsions:
REMARK  status: ('A' for Active; 'I' for Inactive)
REMARK    1  A    between atoms: C_1  and  C_2
REMARK    2  A    between atoms: C_5  and  N_6
REMARK    3  A    between atoms: C_12  and  C_13
REMARK    4  A    between atoms: N_15  and  C_16
REMARK    5  A    between atoms: C_19  and  C_20
REMARK    6  A    between atoms: C_21  and  C_22
REMARK                            x       y       z     vdW  Elec       q    Type
REMARK                         _______ _______ _______ _____ _____    ______ ____
ROOT
ATOM      1  N   UNL     1      -2.656  10.845  18.063  0.00  0.00    +0.000 N 
ATOM      2  C   UNL     1      -1.542  11.023  18.843  0.00  0.00    +0.000 C 
ATOM      3  N   UNL     1      -1.517  11.625  19.978  0.00  0.00    +0.000 NA
ATOM      4  C   UNL     1      -0.358  11.824  20.668  0.00  0.00    +0.000 C 
ATOM      5  O   UNL     1      -0.364  12.391  21.760  0.00  0.00    +0.000 OA
ATOM      6  C   UNL     1       0.961  11.421  20.085  0.00  0.00    +0.000 C 
ATOM      7  C   UNL     1       0.885  10.619  18.810  0.00  0.00    +0.000 C 
ATOM      8  N   UNL     1      -0.445  10.489  18.262  0.00  0.00    +0.000 N 
ATOM      9  H   UNL     1      -2.482  10.530  17.121  0.00  0.00    +0.000 HD
ATOM     10  H   UNL     1      -0.527   9.898  17.442  0.00  0.00    +0.000 HD
ENDROOT
BRANCH   1  15
ATOM     11  C   UNL     1      -7.583  13.803  18.254  0.00  0.00    +0.000 C 
ATOM     12  C   UNL     1      -6.308  13.017  18.202  0.00  0.00    +0.000 A 
ATOM     13  C   UNL     1      -5.865  12.418  17.022  0.00  0.00    +0.000 A 
ATOM     14  C   UNL     1      -4.667  11.691  17.002  0.00  0.00    +0.000 A 
ATOM     15  C   UNL     1      -3.875  11.560  18.154  0.00  0.00    +0.000 A 
ATOM     16  C   UNL     1      -4.359  12.128  19.336  0.00  0.00    +0.000 A 
ATOM     17  C   UNL     1      -5.550  12.858  19.361  0.00  0.00    +0.000 A 
ENDBRANCH   1  15
BRANCH   7  18
ATOM     18  C   UNL     1       1.504   9.231  18.978  0.00  0.00    +0.000 C 
ATOM     19  O   UNL     1       1.466   8.693  20.085  0.00  0.00    +0.000 OA
ATOM     20  N   UNL     1       2.114   8.711  17.842  0.00  0.00    +0.000 N 
ATOM     21  H   UNL     1       2.272   9.350  17.069  0.00  0.00    +0.000 HD
BRANCH  20  22
ATOM     22  C   UNL     1       2.718   7.435  17.755  0.00  0.00    +0.000 A 
ATOM     23  C   UNL     1       4.055   7.256  17.407  0.00  0.00    +0.000 A 
ATOM     24  C   UNL     1       4.594   5.977  17.270  0.00  0.00    +0.000 A 
ATOM     25  C   UNL     1       3.811   4.836  17.482  0.00  0.00    +0.000 A 
ATOM     26  C   UNL     1       4.440   3.487  17.265  0.00  0.00    +0.000 C 
ATOM     27  C   UNL     1       2.468   4.998  17.872  0.00  0.00    +0.000 A 
ATOM     28  C   UNL     1       1.551   3.829  18.114  0.00  0.00    +0.000 C 
ATOM     29  C   UNL     1       1.941   6.301  18.022  0.00  0.00    +0.000 A 
ENDBRANCH  20  22
ENDBRANCH   7  18
TORSDOF 3
ENDMDL
MODEL 8
REMARK VINA RESULT:      -7.4      7.216     11.033
REMARK  Name = 
REMARK  6 active torsions:
REMARK  status: ('A' for Active; 'I' for Inactive)
REMARK    1  A    between atoms: C_1  and  C_2
REMARK    2  A    between atoms: C_5  and  N_6
REMARK    3  A    between atoms: C_12  and  C_13
REMARK    4  A    between atoms: N_15  and  C_16
REMARK    5  A    between atoms: C_19  and  C_20
REMARK    6  A    between atoms: C_21  and  C_22
REMARK                            x       y       z     vdW  Elec       q    Type
REMARK                         _______ _______ _______ _____ _____    ______ ____
ROOT
ATOM      1  N   UNL     1       4.646   5.590  19.196  0.00  0.00    +0.000 N 
ATOM      2  C   UNL     1       5.541   5.900  18.205  0.00  0.00    +0.000 C 
ATOM      3  N   UNL     1       5.406   5.602  16.962  0.00  0.00    +0.000 NA
ATOM      4  C   UNL     1       6.371   5.884  16.041  0.00  0.00    +0.000 C 
ATOM      5  O   UNL     1       6.211   5.600  14.854  0.00  0.00    +0.000 OA
ATOM      6  C   UNL     1       7.679   6.482  16.458  0.00  0.00    +0.000 C 
ATOM      7  C   UNL     1       7.758   6.921  17.898  0.00  0.00    +0.000 C 
ATOM      8  N   UNL     1       6.610   6.561  18.698  0.00  0.00    +0.000 N 
ATOM      9  H   UNL     1       4.979   5.716  20.139  0.00  0.00    +0.000 HD
ATOM     10  H   UNL     1       6.614   6.905  19.652  0.00  0.00    +0.000 HD
ENDROOT
BRANCH   1  15
ATOM     11  C   UNL     1       0.355   1.769  18.948  0.00  0.00    +0.000 C 
ATOM     12  C   UNL     1       1.476   2.763  18.995  0.00  0.00    +0.000 A 
ATOM     13  C   UNL     1       1.374   4.011  18.379  0.00  0.00    +0.000 A 
ATOM     14  C   UNL     1       2.438   4.921  18.443  0.00  0.00    +0.000 A 
ATOM     15  C   UNL     1       3.620   4.614  19.136  0.00  0.00    +0.000 A 
ATOM     16  C   UNL     1       3.720   3.342  19.707  0.00  0.00    +0.000 A 
ATOM     17  C   UNL     1       2.661   2.432  19.652  0.00  0.00    +0.000 A 
ENDBRANCH   1  15
BRANCH   7  18
ATOM     18  C   UNL     1       8.009   8.426  18.017  0.00  0.00    +0.000 C 
ATOM     19  O   UNL     1       7.396   9.191  17.274  0.00  0.00    +0.000 OA
ATOM     20  N   UNL     1       8.972   8.794  18.949  0.00  0.00    +0.000 N 
ATOM     21  H   UNL     1       9.557   8.056  19.326  0.00  0.00    +0.000 HD
BRANCH  20  22
ATOM     22  C   UNL     1       9.342  10.126  19.252  0.00  0.00    +0.000 A 
ATOM     23  C   UNL     1       9.238  10.665  20.533  0.00  0.00    +0.000 A 
ATOM     24  C   UNL     1       9.553  12.002  20.774  0.00  0.00    +0.000 A 
ATOM     25  C   UNL     1       9.987  12.840  19.741  0.00  0.00    +0.000 A 
ATOM     26  C   UNL     1      10.258  14.285  20.059  0.00  0.00    +0.000 C 
ATOM     27  C   UNL     1      10.135  12.303  18.448  0.00  0.00    +0.000 A 
ATOM     28  C   UNL     1      10.587  13.132  17.276  0.00  0.00    +0.000 C 
ATOM     29  C   UNL     1       9.827  10.942  18.223  0.00  0.00    +0.000 A 
ENDBRANCH  20  22
ENDBRANCH   7  18
TORSDOF 3
ENDMDL
MODEL 9
REMARK VINA RESULT:      -7.4      3.765      4.495
REMARK  Name = 
REMARK  6 active torsions:
REMARK  status: ('A' for Active; 'I' for Inactive)
REMARK    1  A    between atoms: C_1  and  C_2
REMARK    2  A    between atoms: C_5  and  N_6
REMARK    3  A    between atoms: C_12  and  C_13
REMARK    4  A    between atoms: N_15  and  C_16
REMARK    5  A    between atoms: C_19  and  C_20
REMARK    6  A    between atoms: C_21  and  C_22
REMARK                            x       y       z     vdW  Elec       q    Type
REMARK                         _______ _______ _______ _____ _____    ______ ____
ROOT
ATOM      1  N   UNL     1      -1.653  10.231  17.159  0.00  0.00    +0.000 N 
ATOM      2  C   UNL     1      -0.811  10.093  18.231  0.00  0.00    +0.000 C 
ATOM      3  N   UNL     1      -1.146  10.238  19.464  0.00  0.00    +0.000 NA
ATOM      4  C   UNL     1      -0.237  10.151  20.477  0.00  0.00    +0.000 C 
ATOM      5  O   UNL     1      -0.587  10.281  21.650  0.00  0.00    +0.000 OA
ATOM      6  C   UNL     1       1.220   9.967  20.188  0.00  0.00    +0.000 C 
ATOM      7  C   UNL     1       1.561   9.687  18.745  0.00  0.00    +0.000 C 
ATOM      8  N   UNL     1       0.444   9.789  17.835  0.00  0.00    +0.000 N 
ATOM      9  H   UNL     1      -1.206  10.279  16.257  0.00  0.00    +0.000 HD
ATOM     10  H   UNL     1       0.638   9.540  16.871  0.00  0.00    +0.000 HD
ENDROOT
BRANCH   1  15
ATOM     11  C   UNL     1      -6.785  12.823  17.296  0.00  0.00    +0.000 C 
ATOM     12  C   UNL     1      -5.439  12.164  17.263  0.00  0.00    +0.000 A 
ATOM     13  C   UNL     1      -4.654  12.044  18.411  0.00  0.00    +0.000 A 
ATOM     14  C   UNL     1      -3.402  11.420  18.351  0.00  0.00    +0.000 A 
ATOM     15  C   UNL     1      -2.910  10.885  17.149  0.00  0.00    +0.000 A 
ATOM     16  C   UNL     1      -3.691  11.055  16.002  0.00  0.00    +0.000 A 
ATOM     17  C   UNL     1      -4.943  11.672  16.056  0.00  0.00    +0.000 A 
ENDBRANCH   1  15
BRANCH   7  18
ATOM     18  C   UNL     1       2.231   8.322  18.577  0.00  0.00    +0.000 C 
ATOM     19  O   UNL     1       2.786   8.060  17.510  0.00  0.00    +0.000 OA
ATOM     20  N   UNL     1       2.105   7.462  19.661  0.00  0.00    +0.000 N 
ATOM     21  H   UNL     1       1.434   7.717  20.378  0.00  0.00    +0.000 HD
BRANCH  20  22
ATOM     22  C   UNL     1       2.671   6.167  19.741  0.00  0.00    +0.000 A 
ATOM     23  C   UNL     1       3.906   5.848  19.181  0.00  0.00    +0.000 A 
ATOM     24  C   UNL     1       4.397   4.543  19.227  0.00  0.00    +0.000 A 
ATOM     25  C   UNL     1       3.668   3.518  19.840  0.00  0.00    +0.000 A 
ATOM     26  C   UNL     1       4.230   2.123  19.808  0.00  0.00    +0.000 C 
ATOM     27  C   UNL     1       2.435   3.830  20.445  0.00  0.00    +0.000 A 
ATOM     28  C   UNL     1       1.581   2.790  21.120  0.00  0.00    +0.000 C 
ATOM     29  C   UNL     1       1.959   5.160  20.404  0.00  0.00    +0.000 A 
ENDBRANCH  20  22
ENDBRANCH   7  18
TORSDOF 3
ENDMDL
