MODEL 1
REMARK VINA RESULT:      -8.2      0.000      0.000
REMARK  Name = 
REMARK  5 active torsions:
REMARK  status: ('A' for Active; 'I' for Inactive)
REMARK    1  A    between atoms: O_1  and  C_2
REMARK    2  A    between atoms: C_5  and  N_6
REMARK    3  A    between atoms: N_6  and  C_7
REMARK    4  A    between atoms: N_10  and  C_11
REMARK    5  A    between atoms: C_19  and  C_20
REMARK                            x       y       z     vdW  Elec       q    Type
REMARK                         _______ _______ _______ _____ _____    ______ ____
ROOT
ATOM      1  C   UNL     1       0.617   9.787  19.531  0.00  0.00    +0.000 A 
ATOM      2  N   UNL     1       1.309   8.835  18.858  0.00  0.00    +0.000 NA
ATOM      3  C   UNL     1       1.936   7.882  19.559  0.00  0.00    +0.000 A 
ATOM      4  N   UNL     1       2.604   6.886  18.838  0.00  0.00    +0.000 N 
ATOM      5  N   UNL     1       1.969   7.858  20.890  0.00  0.00    +0.000 NA
ATOM      6  C   UNL     1       1.330   8.853  21.535  0.00  0.00    +0.000 A 
ATOM      7  C   UNL     1       0.626   9.878  20.928  0.00  0.00    +0.000 A 
ATOM      8  H   UNL     1       3.433   7.336  18.477  0.00  0.00    +0.000 HD
ENDROOT
BRANCH   4   9
ATOM      9  C   UNL     1       2.871   5.641  19.574  0.00  0.00    +0.000 C 
ATOM     10  C   UNL     1       1.782   4.603  19.279  0.00  0.00    +0.000 C 
ATOM     11  C   UNL     1       1.785   4.143  17.821  0.00  0.00    +0.000 C 
ATOM     12  C   UNL     1       3.153   3.661  17.345  0.00  0.00    +0.000 C 
ATOM     13  C   UNL     1       4.308   4.578  17.736  0.00  0.00    +0.000 C 
ATOM     14  C   UNL     1       4.240   5.063  19.182  0.00  0.00    +0.000 C 
ENDBRANCH   4   9
BRANCH   7  15
ATOM     15  C   UNL     1      -0.082  10.906  21.724  0.00  0.00    +0.000 A 
ATOM     16  C   UNL     1      -1.094  10.603  22.640  0.00  0.00    +0.000 A 
ATOM     17  C   UNL     1      -1.742  11.633  23.320  0.00  0.00    +0.000 A 
ATOM     18  C   UNL     1      -1.357  12.946  23.100  0.00  0.00    +0.000 A 
ATOM     19  C   UNL     1      -0.338  13.177  22.197  0.00  0.00    +0.000 A 
ATOM     20  N   UNL     1       0.289  12.200  21.503  0.00  0.00    +0.000 NA
ENDBRANCH   7  15
BRANCH   1  21
ATOM     21  N   UNL     1      -0.084  10.760  18.790  0.00  0.00    +0.000 N 
ATOM     22  H   UNL     1       0.168  11.682  19.165  0.00  0.00    +0.000 HD
BRANCH  21  26
ATOM     23  C   UNL     1      -3.997  11.378  17.114  0.00  0.00    +0.000 C 
ATOM     24  C   UNL     1      -3.769  11.804  18.562  0.00  0.00    +0.000 C 
ATOM     25  C   UNL     1      -2.282  11.937  18.886  0.00  0.00    +0.000 C 
ATOM     26  C   UNL     1      -1.529  10.623  18.608  0.00  0.00    +0.000 C 
ATOM     27  C   UNL     1      -1.753  10.221  17.134  0.00  0.00    +0.000 C 
ATOM     28  C   UNL     1      -3.230  10.102  16.781  0.00  0.00    +0.000 C 
BRANCH  23  29
ATOM     29  O   UNL     1      -5.383  11.139  16.893  0.00  0.00    +0.000 OA
ATOM     30  H   UNL     1      -5.785  11.977  16.602  0.00  0.00    +0.000 HD
ENDBRANCH  23  29
ENDBRANCH  21  26
ENDBRANCH   1  21
TORSDOF 5
ENDMDL
MODEL 2
REMARK VINA RESULT:      -7.2      0.595      1.092
REMARK  Name = 
REMARK  5 active torsions:
REMARK  status: ('A' for Active; 'I' for Inactive)
REMARK    1  A    between atoms: O_1  and  C_2
REMARK    2  A    between atoms: C_5  and  N_6
REMARK    3  A    between atoms: N_6  and  C_7
REMARK    4  A    between atoms: N_10  and  C_11
REMARK    5  A    between atoms: C_19  and  C_20
REMARK                            x       y       z     vdW  Elec       q    Type
REMARK                         _______ _______ _______ _____ _____    ______ ____
ROOT
ATOM      1  C   UNL     1       0.814  10.147  19.614  0.00  0.00    +0.000 A 
ATOM      2  N   UNL     1       1.476   9.143  18.986  0.00  0.00    +0.000 NA
ATOM      3  C   UNL     1       1.856   8.079  19.706  0.00  0.00    +0.000 A 
ATOM      4  N   UNL     1       2.496   7.038  19.025  0.00  0.00    +0.000 N 
ATOM      5  N   UNL     1       1.674   7.985  21.022  0.00  0.00    +0.000 NA
ATOM      6  C   UNL     1       1.074   9.025  21.631  0.00  0.00    +0.000 A 
ATOM      7  C   UNL     1       0.613  10.167  20.998  0.00  0.00    +0.000 A 
ATOM      8  H   UNL     1       3.423   7.387  18.826  0.00  0.00    +0.000 HD
ENDROOT
BRANCH   4   9
ATOM      9  C   UNL     1       2.481   5.733  19.704  0.00  0.00    +0.000 C 
ATOM     10  C   UNL     1       1.408   4.826  19.091  0.00  0.00    +0.000 C 
ATOM     11  C   UNL     1       1.711   4.451  17.639  0.00  0.00    +0.000 C 
ATOM     12  C   UNL     1       3.107   3.864  17.449  0.00  0.00    +0.000 C 
ATOM     13  C   UNL     1       4.212   4.639  18.161  0.00  0.00    +0.000 C 
ATOM     14  C   UNL     1       3.851   5.046  19.587  0.00  0.00    +0.000 C 
ENDBRANCH   4   9
BRANCH   7  15
ATOM     15  C   UNL     1      -0.075  11.242  21.749  0.00  0.00    +0.000 A 
ATOM     16  C   UNL     1      -1.177  11.013  22.578  0.00  0.00    +0.000 A 
ATOM     17  C   UNL     1      -1.796  12.086  23.218  0.00  0.00    +0.000 A 
ATOM     18  C   UNL     1      -1.294  13.367  23.045  0.00  0.00    +0.000 A 
ATOM     19  C   UNL     1      -0.192  13.523  22.228  0.00  0.00    +0.000 A 
ATOM     20  N   UNL     1       0.411  12.504  21.574  0.00  0.00    +0.000 NA
ENDBRANCH   7  15
BRANCH   1  21
ATOM     21  N   UNL     1       0.371  11.243  18.845  0.00  0.00    +0.000 N 
ATOM     22  H   UNL     1       0.443  12.085  19.429  0.00  0.00    +0.000 HD
BRANCH  21  26
ATOM     23  C   UNL     1      -3.850  10.629  18.283  0.00  0.00    +0.000 C 
ATOM     24  C   UNL     1      -2.892   9.704  17.537  0.00  0.00    +0.000 C 
ATOM     25  C   UNL     1      -1.489   9.735  18.141  0.00  0.00    +0.000 C 
ATOM     26  C   UNL     1      -0.918  11.165  18.158  0.00  0.00    +0.000 C 
ATOM     27  C   UNL     1      -1.889  12.081  18.935  0.00  0.00    +0.000 C 
ATOM     28  C   UNL     1      -3.301  12.051  18.365  0.00  0.00    +0.000 C 
BRANCH  23  29
ATOM     29  O   UNL     1      -5.104  10.671  17.611  0.00  0.00    +0.000 OA
ATOM     30  H   UNL     1      -5.682  10.006  18.024  0.00  0.00    +0.000 HD
ENDBRANCH  23  29
ENDBRANCH  21  26
ENDBRANCH   1  21
TORSDOF 5
ENDMDL
MODEL 3
REMARK VINA RESULT:      -7.1      3.052      8.419
REMARK  Name = 
REMARK  5 active torsions:
REMARK  status: ('A' for Active; 'I' for Inactive)
REMARK    1  A    between atoms: O_1  and  C_2
REMARK    2  A    between atoms: C_5  and  N_6
REMARK    3  A    between atoms: N_6  and  C_7
REMARK    4  A    between atoms: N_10  and  C_11
REMARK    5  A    between atoms: C_19  and  C_20
REMARK                            x       y       z     vdW  Elec       q    Type
REMARK                         _______ _______ _______ _____ _____    ______ ____
ROOT
ATOM      1  C   UNL     1       3.526   6.557  19.050  0.00  0.00    +0.000 A 
ATOM      2  N   UNL     1       2.594   7.367  19.611  0.00  0.00    +0.000 NA
ATOM      3  C   UNL     1       2.140   8.409  18.901  0.00  0.00    +0.000 A 
ATOM      4  N   UNL     1       1.146   9.201  19.485  0.00  0.00    +0.000 N 
ATOM      5  N   UNL     1       2.606   8.728  17.695  0.00  0.00    +0.000 NA
ATOM      6  C   UNL     1       3.579   7.947  17.189  0.00  0.00    +0.000 A 
ATOM      7  C   UNL     1       4.113   6.830  17.810  0.00  0.00    +0.000 A 
ATOM      8  H   UNL     1       1.623   9.737  20.196  0.00  0.00    +0.000 HD
ENDROOT
BRANCH   4   9
ATOM      9  C   UNL     1       0.355  10.017  18.551  0.00  0.00    +0.000 C 
ATOM     10  C   UNL     1      -1.077  10.186  19.072  0.00  0.00    +0.000 C 
ATOM     11  C   UNL     1      -1.141  10.995  20.369  0.00  0.00    +0.000 C 
ATOM     12  C   UNL     1      -0.423  12.338  20.275  0.00  0.00    +0.000 C 
ATOM     13  C   UNL     1       0.956  12.265  19.626  0.00  0.00    +0.000 C 
ATOM     14  C   UNL     1       0.993  11.403  18.368  0.00  0.00    +0.000 C 
ENDBRANCH   4   9
BRANCH   7  15
ATOM     15  C   UNL     1       5.153   6.005  17.154  0.00  0.00    +0.000 A 
ATOM     16  C   UNL     1       5.078   5.597  15.819  0.00  0.00    +0.000 A 
ATOM     17  C   UNL     1       6.079   4.785  15.287  0.00  0.00    +0.000 A 
ATOM     18  C   UNL     1       7.152   4.413  16.082  0.00  0.00    +0.000 A 
ATOM     19  C   UNL     1       7.176   4.865  17.386  0.00  0.00    +0.000 A 
ATOM     20  N   UNL     1       6.206   5.631  17.936  0.00  0.00    +0.000 NA
ENDBRANCH   7  15
BRANCH   1  21
ATOM     21  N   UNL     1       3.964   5.433  19.779  0.00  0.00    +0.000 N 
ATOM     22  H   UNL     1       4.927   5.225  19.486  0.00  0.00    +0.000 HD
BRANCH  21  26
ATOM     23  C   UNL     1       0.940   2.605  18.610  0.00  0.00    +0.000 C 
ATOM     24  C   UNL     1       0.787   3.289  19.966  0.00  0.00    +0.000 C 
ATOM     25  C   UNL     1       1.649   4.546  20.067  0.00  0.00    +0.000 C 
ATOM     26  C   UNL     1       3.134   4.228  19.812  0.00  0.00    +0.000 C 
ATOM     27  C   UNL     1       3.272   3.558  18.428  0.00  0.00    +0.000 C 
ATOM     28  C   UNL     1       2.404   2.313  18.295  0.00  0.00    +0.000 C 
BRANCH  23  29
ATOM     29  O   UNL     1       0.226   1.374  18.605  0.00  0.00    +0.000 OA
ATOM     30  H   UNL     1       0.865   0.662  18.425  0.00  0.00    +0.000 HD
ENDBRANCH  23  29
ENDBRANCH  21  26
ENDBRANCH   1  21
TORSDOF 5
ENDMDL
MODEL 4
REMARK VINA RESULT:      -7.1      3.675      8.391
REMARK  Name = 
REMARK  5 active torsions:
REMARK  status: ('A' for Active; 'I' for Inactive)
REMARK    1  A    between atoms: O_1  and  C_2
REMARK    2  A    between atoms: C_5  and  N_6
REMARK    3  A    between atoms: N_6  and  C_7
REMARK    4  A    between atoms: N_10  and  C_11
REMARK    5  A    between atoms: C_19  and  C_20
REMARK                            x       y       z     vdW  Elec       q    Type
REMARK                         _______ _______ _______ _____ _____    ______ ____
ROOT
ATOM      1  C   UNL     1       2.153   7.112  18.746  0.00  0.00    +0.000 A 
ATOM      2  N   UNL     1       2.014   8.427  18.443  0.00  0.00    +0.000 NA
ATOM      3  C   UNL     1       1.451   9.237  19.349  0.00  0.00    +0.000 A 
ATOM      4  N   UNL     1       1.361  10.596  19.029  0.00  0.00    +0.000 N 
ATOM      5  N   UNL     1       0.960   8.804  20.509  0.00  0.00    +0.000 NA
ATOM      6  C   UNL     1       1.050   7.484  20.756  0.00  0.00    +0.000 A 
ATOM      7  C   UNL     1       1.631   6.550  19.915  0.00  0.00    +0.000 A 
ATOM      8  H   UNL     1       0.625  10.654  18.340  0.00  0.00    +0.000 HD
ENDROOT
BRANCH   4   9
ATOM      9  C   UNL     1       1.184  11.505  20.171  0.00  0.00    +0.000 C 
ATOM     10  C   UNL     1       2.012  12.781  19.970  0.00  0.00    +0.000 C 
ATOM     11  C   UNL     1       1.523  13.620  18.788  0.00  0.00    +0.000 C 
ATOM     12  C   UNL     1       0.031  13.931  18.848  0.00  0.00    +0.000 C 
ATOM     13  C   UNL     1      -0.844  12.730  19.193  0.00  0.00    +0.000 C 
ATOM     14  C   UNL     1      -0.296  11.884  20.339  0.00  0.00    +0.000 C 
ENDBRANCH   4   9
BRANCH   7  15
ATOM     15  C   UNL     1       1.722   5.121  20.295  0.00  0.00    +0.000 A 
ATOM     16  C   UNL     1       2.369   4.675  21.451  0.00  0.00    +0.000 A 
ATOM     17  C   UNL     1       2.448   3.308  21.715  0.00  0.00    +0.000 A 
ATOM     18  C   UNL     1       1.861   2.407  20.840  0.00  0.00    +0.000 A 
ATOM     19  C   UNL     1       1.221   2.914  19.726  0.00  0.00    +0.000 A 
ATOM     20  N   UNL     1       1.153   4.232  19.431  0.00  0.00    +0.000 NA
ENDBRANCH   7  15
BRANCH   1  21
ATOM     21  N   UNL     1       2.792   6.272  17.812  0.00  0.00    +0.000 N 
ATOM     22  H   UNL     1       2.235   5.412  17.731  0.00  0.00    +0.000 HD
BRANCH  21  26
ATOM     23  C   UNL     1       6.671   4.630  16.936  0.00  0.00    +0.000 C 
ATOM     24  C   UNL     1       5.990   4.192  18.230  0.00  0.00    +0.000 C 
ATOM     25  C   UNL     1       4.491   4.487  18.210  0.00  0.00    +0.000 C 
ATOM     26  C   UNL     1       4.218   5.983  17.961  0.00  0.00    +0.000 C 
ATOM     27  C   UNL     1       4.896   6.401  16.638  0.00  0.00    +0.000 C 
ATOM     28  C   UNL     1       6.388   6.097  16.626  0.00  0.00    +0.000 C 
BRANCH  23  29
ATOM     29  O   UNL     1       8.079   4.459  17.048  0.00  0.00    +0.000 OA
ATOM     30  H   UNL     1       8.239   3.608  17.492  0.00  0.00    +0.000 HD
ENDBRANCH  23  29
ENDBRANCH  21  26
ENDBRANCH   1  21
TORSDOF 5
ENDMDL
MODEL 5
REMARK VINA RESULT:      -7.0      3.173      8.194
REMARK  Name = 
REMARK  5 active torsions:
REMARK  status: ('A' for Active; 'I' for Inactive)
REMARK    1  A    between atoms: O_1  and  C_2
REMARK    2  A    between atoms: C_5  and  N_6
REMARK    3  A    between atoms: N_6  and  C_7
REMARK    4  A    between atoms: N_10  and  C_11
REMARK    5  A    between atoms: C_19  and  C_20
REMARK                            x       y       z     vdW  Elec       q    Type
REMARK                         _______ _______ _______ _____ _____    ______ ____
ROOT
ATOM      1  C   UNL     1       2.360   7.339  19.431  0.00  0.00    +0.000 A 
ATOM      2  N   UNL     1       1.407   8.264  19.706  0.00  0.00    +0.000 NA
ATOM      3  C   UNL     1       1.221   9.269  18.841  0.00  0.00    +0.000 A 
ATOM      4  N   UNL     1       0.200  10.183  19.126  0.00  0.00    +0.000 N 
ATOM      5  N   UNL     1       1.969   9.443  17.753  0.00  0.00    +0.000 NA
ATOM      6  C   UNL     1       2.952   8.549  17.538  0.00  0.00    +0.000 A 
ATOM      7  C   UNL     1       3.229   7.455  18.341  0.00  0.00    +0.000 A 
ATOM      8  H   UNL     1       0.557  10.743  19.887  0.00  0.00    +0.000 HD
ENDROOT
BRANCH   4   9
ATOM      9  C   UNL     1      -0.285  10.969  17.982  0.00  0.00    +0.000 C 
ATOM     10  C   UNL     1      -1.427  10.229  17.274  0.00  0.00    +0.000 C 
ATOM     11  C   UNL     1      -2.674  10.095  18.148  0.00  0.00    +0.000 C 
ATOM     12  C   UNL     1      -3.150  11.425  18.725  0.00  0.00    +0.000 C 
ATOM     13  C   UNL     1      -2.036  12.283  19.317  0.00  0.00    +0.000 C 
ATOM     14  C   UNL     1      -0.785  12.346  18.444  0.00  0.00    +0.000 C 
ENDBRANCH   4   9
BRANCH   7  15
ATOM     15  C   UNL     1       4.307   6.499  17.998  0.00  0.00    +0.000 A 
ATOM     16  C   UNL     1       4.595   6.107  16.688  0.00  0.00    +0.000 A 
ATOM     17  C   UNL     1       5.599   5.169  16.452  0.00  0.00    +0.000 A 
ATOM     18  C   UNL     1       6.320   4.655  17.520  0.00  0.00    +0.000 A 
ATOM     19  C   UNL     1       5.998   5.098  18.787  0.00  0.00    +0.000 A 
ATOM     20  N   UNL     1       5.011   5.986  19.047  0.00  0.00    +0.000 NA
ENDBRANCH   7  15
BRANCH   1  21
ATOM     21  N   UNL     1       2.520   6.255  20.318  0.00  0.00    +0.000 N 
ATOM     22  H   UNL     1       3.526   6.065  20.402  0.00  0.00    +0.000 HD
BRANCH  21  26
ATOM     23  C   UNL     1       1.696   2.156  19.306  0.00  0.00    +0.000 C 
ATOM     24  C   UNL     1       1.052   3.242  18.448  0.00  0.00    +0.000 C 
ATOM     25  C   UNL     1       1.748   4.591  18.626  0.00  0.00    +0.000 C 
ATOM     26  C   UNL     1       1.751   5.029  20.102  0.00  0.00    +0.000 C 
ATOM     27  C   UNL     1       2.425   3.928  20.949  0.00  0.00    +0.000 C 
ATOM     28  C   UNL     1       1.761   2.569  20.773  0.00  0.00    +0.000 C 
BRANCH  23  29
ATOM     29  O   UNL     1       0.940   0.954  19.212  0.00  0.00    +0.000 OA
ATOM     30  H   UNL     1       0.820   0.752  18.267  0.00  0.00    +0.000 HD
ENDBRANCH  23  29
ENDBRANCH  21  26
ENDBRANCH   1  21
TORSDOF 5
ENDMDL
MODEL 6
REMARK VINA RESULT:      -6.8      3.046      8.177
REMARK  Name = 
REMARK  5 active torsions:
REMARK  status: ('A' for Active; 'I' for Inactive)
REMARK    1  A    between atoms: O_1  and  C_2
REMARK    2  A    between atoms: C_5  and  N_6
REMARK    3  A    between atoms: N_6  and  C_7
REMARK    4  A    between atoms: N_10  and  C_11
REMARK    5  A    between atoms: C_19  and  C_20
REMARK                            x       y       z     vdW  Elec       q    Type
REMARK                         _______ _______ _______ _____ _____    ______ ____
ROOT
ATOM      1  C   UNL     1       2.887   7.041  19.261  0.00  0.00    +0.000 A 
ATOM      2  N   UNL     1       1.921   7.932  19.596  0.00  0.00    +0.000 NA
ATOM      3  C   UNL     1       1.671   8.949  18.762  0.00  0.00    +0.000 A 
ATOM      4  N   UNL     1       0.639   9.828  19.110  0.00  0.00    +0.000 N 
ATOM      5  N   UNL     1       2.367   9.167  17.648  0.00  0.00    +0.000 NA
ATOM      6  C   UNL     1       3.365   8.306  17.372  0.00  0.00    +0.000 A 
ATOM      7  C   UNL     1       3.706   7.204  18.138  0.00  0.00    +0.000 A 
ATOM      8  H   UNL     1       1.012  10.382  19.867  0.00  0.00    +0.000 HD
ENDROOT
BRANCH   4   9
ATOM      9  C   UNL     1       0.084  10.623  18.004  0.00  0.00    +0.000 C 
ATOM     10  C   UNL     1      -1.249  10.026  17.536  0.00  0.00    +0.000 C 
ATOM     11  C   UNL     1      -2.342  10.116  18.602  0.00  0.00    +0.000 C 
ATOM     12  C   UNL     1      -2.529  11.526  19.154  0.00  0.00    +0.000 C 
ATOM     13  C   UNL     1      -1.226  12.238  19.504  0.00  0.00    +0.000 C 
ATOM     14  C   UNL     1      -0.140  12.079  18.443  0.00  0.00    +0.000 C 
ENDBRANCH   4   9
BRANCH   7  15
ATOM     15  C   UNL     1       4.794   6.287  17.730  0.00  0.00    +0.000 A 
ATOM     16  C   UNL     1       4.890   5.733  16.449  0.00  0.00    +0.000 A 
ATOM     17  C   UNL     1       5.922   4.843  16.156  0.00  0.00    +0.000 A 
ATOM     18  C   UNL     1       6.859   4.537  17.132  0.00  0.00    +0.000 A 
ATOM     19  C   UNL     1       6.718   5.132  18.370  0.00  0.00    +0.000 A 
ATOM     20  N   UNL     1       5.712   5.977  18.690  0.00  0.00    +0.000 NA
ENDBRANCH   7  15
BRANCH   1  21
ATOM     21  N   UNL     1       3.114   5.943  20.116  0.00  0.00    +0.000 N 
ATOM     22  H   UNL     1       4.092   5.986  20.428  0.00  0.00    +0.000 HD
BRANCH  21  26
ATOM     23  C   UNL     1       0.607   2.662  18.911  0.00  0.00    +0.000 C 
ATOM     24  C   UNL     1       1.420   2.501  20.193  0.00  0.00    +0.000 C 
ATOM     25  C   UNL     1       1.906   3.847  20.728  0.00  0.00    +0.000 C 
ATOM     26  C   UNL     1       2.742   4.599  19.675  0.00  0.00    +0.000 C 
ATOM     27  C   UNL     1       1.896   4.771  18.395  0.00  0.00    +0.000 C 
ATOM     28  C   UNL     1       1.382   3.443  17.854  0.00  0.00    +0.000 C 
BRANCH  23  29
ATOM     29  O   UNL     1       0.287   1.382  18.377  0.00  0.00    +0.000 OA
ATOM     30  H   UNL     1       1.108   0.995  18.024  0.00  0.00    +0.000 HD
ENDBRANCH  23  29
ENDBRANCH  21  26
ENDBRANCH   1  21
TORSDOF 5
ENDMDL
MODEL 7
REMARK VINA RESULT:      -6.8      3.978      8.712
REMARK  Name = 
REMARK  5 active torsions:
REMARK  status: ('A' for Active; 'I' for Inactive)
REMARK    1  A    between atoms: O_1  and  C_2
REMARK    2  A    between atoms: C_5  and  N_6
REMARK    3  A    between atoms: N_6  and  C_7
REMARK    4  A    between atoms: N_10  and  C_11
REMARK    5  A    between atoms: C_19  and  C_20
REMARK                            x       y       z     vdW  Elec       q    Type
REMARK                         _______ _______ _______ _____ _____    ______ ____
ROOT
ATOM      1  C   UNL     1       2.834   7.909  17.759  0.00  0.00    +0.000 A 
ATOM      2  N   UNL     1       2.601   9.240  17.633  0.00  0.00    +0.000 NA
ATOM      3  C   UNL     1       1.841   9.846  18.554  0.00  0.00    +0.000 A 
ATOM      4  N   UNL     1       1.654  11.227  18.426  0.00  0.00    +0.000 N 
ATOM      5  N   UNL     1       1.247   9.197  19.553  0.00  0.00    +0.000 NA
ATOM      6  C   UNL     1       1.440   7.866  19.617  0.00  0.00    +0.000 A 
ATOM      7  C   UNL     1       2.221   7.127  18.744  0.00  0.00    +0.000 A 
ATOM      8  H   UNL     1       1.015  11.334  17.652  0.00  0.00    +0.000 HD
ENDROOT
BRANCH   4   9
ATOM      9  C   UNL     1       1.234  11.926  19.649  0.00  0.00    +0.000 C 
ATOM     10  C   UNL     1       2.190  13.086  19.955  0.00  0.00    +0.000 C 
ATOM     11  C   UNL     1       2.135  14.189  18.897  0.00  0.00    +0.000 C 
ATOM     12  C   UNL     1       0.721  14.693  18.627  0.00  0.00    +0.000 C 
ATOM     13  C   UNL     1      -0.315  13.586  18.459  0.00  0.00    +0.000 C 
ATOM     14  C   UNL     1      -0.194  12.474  19.497  0.00  0.00    +0.000 C 
ENDBRANCH   4   9
BRANCH   7  15
ATOM     15  C   UNL     1       2.409   5.669  18.921  0.00  0.00    +0.000 A 
ATOM     16  C   UNL     1       3.214   5.116  19.921  0.00  0.00    +0.000 A 
ATOM     17  C   UNL     1       3.373   3.732  19.994  0.00  0.00    +0.000 A 
ATOM     18  C   UNL     1       2.708   2.919  19.089  0.00  0.00    +0.000 A 
ATOM     19  C   UNL     1       1.913   3.527  18.138  0.00  0.00    +0.000 A 
ATOM     20  N   UNL     1       1.763   4.867  18.026  0.00  0.00    +0.000 NA
ENDBRANCH   7  15
BRANCH   1  21
ATOM     21  N   UNL     1       3.675   7.283  16.817  0.00  0.00    +0.000 N 
ATOM     22  H   UNL     1       3.079   6.888  16.079  0.00  0.00    +0.000 HD
BRANCH  21  26
ATOM     23  C   UNL     1       7.277   4.931  16.814  0.00  0.00    +0.000 C 
ATOM     24  C   UNL     1       5.944   4.188  16.767  0.00  0.00    +0.000 C 
ATOM     25  C   UNL     1       4.799   5.106  16.341  0.00  0.00    +0.000 C 
ATOM     26  C   UNL     1       4.681   6.325  17.275  0.00  0.00    +0.000 C 
ATOM     27  C   UNL     1       6.031   7.074  17.292  0.00  0.00    +0.000 C 
ATOM     28  C   UNL     1       7.191   6.174  17.694  0.00  0.00    +0.000 C 
BRANCH  23  29
ATOM     29  O   UNL     1       8.287   4.078  17.340  0.00  0.00    +0.000 OA
ATOM     30  H   UNL     1       9.024   4.640  17.637  0.00  0.00    +0.000 HD
ENDBRANCH  23  29
ENDBRANCH  21  26
ENDBRANCH   1  21
TORSDOF 5
ENDMDL
MODEL 8
REMARK VINA RESULT:      -6.7      3.724      8.380
REMARK  Name = 
REMARK  5 active torsions:
REMARK  status: ('A' for Active; 'I' for Inactive)
REMARK    1  A    between atoms: O_1  and  C_2
REMARK    2  A    between atoms: C_5  and  N_6
REMARK    3  A    between atoms: N_6  and  C_7
REMARK    4  A    between atoms: N_10  and  C_11
REMARK    5  A    between atoms: C_19  and  C_20
REMARK                            x       y       z     vdW  Elec       q    Type
REMARK                         _______ _______ _______ _____ _____    ______ ____
ROOT
ATOM      1  C   UNL     1       2.240   6.668  18.529  0.00  0.00    +0.000 A 
ATOM      2  N   UNL     1       2.041   7.952  18.141  0.00  0.00    +0.000 NA
ATOM      3  C   UNL     1       1.640   8.843  19.056  0.00  0.00    +0.000 A 
ATOM      4  N   UNL     1       1.487  10.170  18.639  0.00  0.00    +0.000 N 
ATOM      5  N   UNL     1       1.364   8.519  20.318  0.00  0.00    +0.000 NA
ATOM      6  C   UNL     1       1.506   7.225  20.661  0.00  0.00    +0.000 A 
ATOM      7  C   UNL     1       1.936   6.215  19.817  0.00  0.00    +0.000 A 
ATOM      8  H   UNL     1       0.641  10.174  18.087  0.00  0.00    +0.000 HD
ENDROOT
BRANCH   4   9
ATOM      9  C   UNL     1       1.507  11.178  19.710  0.00  0.00    +0.000 C 
ATOM     10  C   UNL     1       2.188  12.462  19.220  0.00  0.00    +0.000 C 
ATOM     11  C   UNL     1       1.400  13.160  18.110  0.00  0.00    +0.000 C 
ATOM     12  C   UNL     1      -0.060  13.411  18.477  0.00  0.00    +0.000 C 
ATOM     13  C   UNL     1      -0.760  12.213  19.110  0.00  0.00    +0.000 C 
ATOM     14  C   UNL     1       0.079  11.507  20.172  0.00  0.00    +0.000 C 
ENDBRANCH   4   9
BRANCH   7  15
ATOM     15  C   UNL     1       2.103   4.824  20.299  0.00  0.00    +0.000 A 
ATOM     16  C   UNL     1       1.059   4.073  20.847  0.00  0.00    +0.000 A 
ATOM     17  C   UNL     1       1.307   2.785  21.317  0.00  0.00    +0.000 A 
ATOM     18  C   UNL     1       2.583   2.252  21.211  0.00  0.00    +0.000 A 
ATOM     19  C   UNL     1       3.565   3.039  20.642  0.00  0.00    +0.000 A 
ATOM     20  N   UNL     1       3.358   4.302  20.204  0.00  0.00    +0.000 NA
ENDBRANCH   7  15
BRANCH   1  21
ATOM     21  N   UNL     1       2.711   5.743  17.575  0.00  0.00    +0.000 N 
ATOM     22  H   UNL     1       2.400   4.808  17.865  0.00  0.00    +0.000 HD
BRANCH  21  26
ATOM     23  C   UNL     1       6.848   4.570  17.469  0.00  0.00    +0.000 C 
ATOM     24  C   UNL     1       6.518   5.963  17.999  0.00  0.00    +0.000 C 
ATOM     25  C   UNL     1       5.046   6.088  18.386  0.00  0.00    +0.000 C 
ATOM     26  C   UNL     1       4.124   5.754  17.198  0.00  0.00    +0.000 C 
ATOM     27  C   UNL     1       4.458   4.333  16.691  0.00  0.00    +0.000 C 
ATOM     28  C   UNL     1       5.926   4.178  16.318  0.00  0.00    +0.000 C 
BRANCH  23  29
ATOM     29  O   UNL     1       8.191   4.536  16.999  0.00  0.00    +0.000 OA
ATOM     30  H   UNL     1       8.167   4.601  16.029  0.00  0.00    +0.000 HD
ENDBRANCH  23  29
ENDBRANCH  21  26
ENDBRANCH   1  21
TORSDOF 5
ENDMDL
MODEL 9
REMARK VINA RESULT:      -6.7      2.974      3.731
REMARK  Name = 
REMARK  5 active torsions:
REMARK  status: ('A' for Active; 'I' for Inactive)
REMARK    1  A    between atoms: O_1  and  C_2
REMARK    2  A    between atoms: C_5  and  N_6
REMARK    3  A    between atoms: N_6  and  C_7
REMARK    4  A    between atoms: N_10  and  C_11
REMARK    5  A    between atoms: C_19  and  C_20
REMARK                            x       y       z     vdW  Elec       q    Type
REMARK                         _______ _______ _______ _____ _____    ______ ____
ROOT
ATOM      1  C   UNL     1       1.024  10.170  19.097  0.00  0.00    +0.000 A 
ATOM      2  N   UNL     1       1.867   9.256  18.554  0.00  0.00    +0.000 NA
ATOM      3  C   UNL     1       2.015   8.076  19.171  0.00  0.00    +0.000 A 
ATOM      4  N   UNL     1       2.855   7.135  18.565  0.00  0.00    +0.000 N 
ATOM      5  N   UNL     1       1.427   7.778  20.327  0.00  0.00    +0.000 NA
ATOM      6  C   UNL     1       0.648   8.727  20.879  0.00  0.00    +0.000 A 
ATOM      7  C   UNL     1       0.393   9.973  20.330  0.00  0.00    +0.000 A 
ATOM      8  H   UNL     1       3.792   7.477  18.729  0.00  0.00    +0.000 HD
ENDROOT
BRANCH   4   9
ATOM      9  C   UNL     1       2.647   5.740  18.979  0.00  0.00    +0.000 C 
ATOM     10  C   UNL     1       2.583   4.823  17.751  0.00  0.00    +0.000 C 
ATOM     11  C   UNL     1       3.910   4.759  16.994  0.00  0.00    +0.000 C 
ATOM     12  C   UNL     1       5.096   4.406  17.888  0.00  0.00    +0.000 C 
ATOM     13  C   UNL     1       5.139   5.179  19.202  0.00  0.00    +0.000 C 
ATOM     14  C   UNL     1       3.785   5.272  19.900  0.00  0.00    +0.000 C 
ENDBRANCH   4   9
BRANCH   7  15
ATOM     15  C   UNL     1      -0.515  10.938  20.992  0.00  0.00    +0.000 A 
ATOM     16  C   UNL     1      -0.421  11.273  22.346  0.00  0.00    +0.000 A 
ATOM     17  C   UNL     1      -1.342  12.158  22.904  0.00  0.00    +0.000 A 
ATOM     18  C   UNL     1      -2.326  12.717  22.103  0.00  0.00    +0.000 A 
ATOM     19  C   UNL     1      -2.352  12.359  20.769  0.00  0.00    +0.000 A 
ATOM     20  N   UNL     1      -1.489  11.482  20.208  0.00  0.00    +0.000 NA
ENDBRANCH   7  15
BRANCH   1  21
ATOM     21  N   UNL     1       0.830  11.391  18.419  0.00  0.00    +0.000 N 
ATOM     22  H   UNL     1       0.930  11.210  17.413  0.00  0.00    +0.000 HD
BRANCH  21  26
ATOM     23  C   UNL     1       2.568  15.321  18.225  0.00  0.00    +0.000 C 
ATOM     24  C   UNL     1       3.517  14.129  18.329  0.00  0.00    +0.000 C 
ATOM     25  C   UNL     1       2.823  12.819  17.957  0.00  0.00    +0.000 C 
ATOM     26  C   UNL     1       1.583  12.573  18.837  0.00  0.00    +0.000 C 
ATOM     27  C   UNL     1       0.627  13.778  18.701  0.00  0.00    +0.000 C 
ATOM     28  C   UNL     1       1.302  15.099  19.046  0.00  0.00    +0.000 C 
BRANCH  23  29
ATOM     29  O   UNL     1       3.214  16.495  18.703  0.00  0.00    +0.000 OA
ATOM     30  H   UNL     1       3.109  17.187  18.027  0.00  0.00    +0.000 HD
ENDBRANCH  23  29
ENDBRANCH  21  26
ENDBRANCH   1  21
TORSDOF 5
ENDMDL
