MODEL 1
REMARK VINA RESULT:      -7.4      0.000      0.000
REMARK  Name = 
REMARK  3 active torsions:
REMARK  status: ('A' for Active; 'I' for Inactive)
REMARK    1  A    between atoms: C_8  and  C_10
REMARK    2  A    between atoms: C_10  and  C_11
REMARK    3  A    between atoms: C_11  and  C_12
REMARK                            x       y       z     vdW  Elec       q    Type
REMARK                         _______ _______ _______ _____ _____    ______ ____
ROOT
ATOM      1  O   UNL     1       8.608   9.259  17.850  0.00  0.00    +0.000 OA
ATOM      2  C   UNL     1       8.123   8.167  18.087  0.00  0.00    +0.000 C 
ATOM      3  C   UNL     1       7.073   7.483  17.267  0.00  0.00    +0.000 C 
ATOM      4  C   UNL     1       7.001   6.065  17.858  0.00  0.00    +0.000 C 
ATOM      5  C   UNL     1       7.351   4.963  16.837  0.00  0.00    +0.000 C 
ATOM      6  C   UNL     1       6.130   4.055  16.773  0.00  0.00    +0.000 C 
ATOM      7  N   UNL     1       5.062   4.843  17.347  0.00  0.00    +0.000 N 
ATOM      8  C   UNL     1       3.740   4.496  17.151  0.00  0.00    +0.000 C 
ATOM      9  O   UNL     1       3.417   3.572  16.404  0.00  0.00    +0.000 OA
ATOM     10  C   UNL     1       5.604   5.716  18.368  0.00  0.00    +0.000 C 
ATOM     11  C   UNL     1       7.983   6.108  19.002  0.00  0.00    +0.000 C 
ATOM     12  O   UNL     1       8.323   5.162  19.694  0.00  0.00    +0.000 OA
ATOM     13  N   UNL     1       8.465   7.369  19.124  0.00  0.00    +0.000 N 
ATOM     14  H   UNL     1       9.198   7.609  19.775  0.00  0.00    +0.000 HD
ENDROOT
BRANCH   8  15
ATOM     15  C   UNL     1       2.698   5.376  17.819  0.00  0.00    +0.000 C 
BRANCH  15  16
ATOM     16  C   UNL     1       1.476   4.567  18.243  0.00  0.00    +0.000 C 
BRANCH  16  17
ATOM     17  C   UNL     1       1.697   3.908  19.576  0.00  0.00    +0.000 A 
ATOM     18  C   UNL     1       1.992   4.506  20.785  0.00  0.00    +0.000 A 
ATOM     19  C   UNL     1       2.120   3.556  21.841  0.00  0.00    +0.000 A 
ATOM     20  C   UNL     1       1.926   2.266  21.402  0.00  0.00    +0.000 A 
ATOM     21  S   UNL     1       1.591   2.203  19.726  0.00  0.00    +0.000 S 
ENDBRANCH  16  17
ENDBRANCH  15  16
ENDBRANCH   8  15
TORSDOF 3
ENDMDL
MODEL 2
REMARK VINA RESULT:      -7.1      3.932      4.868
REMARK  Name = 
REMARK  3 active torsions:
REMARK  status: ('A' for Active; 'I' for Inactive)
REMARK    1  A    between atoms: C_8  and  C_10
REMARK    2  A    between atoms: C_10  and  C_11
REMARK    3  A    between atoms: C_11  and  C_12
REMARK                            x       y       z     vdW  Elec       q    Type
REMARK                         _______ _______ _______ _____ _____    ______ ____
ROOT
ATOM      1  O   UNL     1       7.014   4.467  13.446  0.00  0.00    +0.000 OA
ATOM      2  C   UNL     1       6.752   4.660  14.620  0.00  0.00    +0.000 C 
ATOM      3  C   UNL     1       5.380   4.874  15.182  0.00  0.00    +0.000 C 
ATOM      4  C   UNL     1       5.588   4.826  16.705  0.00  0.00    +0.000 C 
ATOM      5  C   UNL     1       4.801   3.690  17.391  0.00  0.00    +0.000 C 
ATOM      6  C   UNL     1       3.900   4.370  18.414  0.00  0.00    +0.000 C 
ATOM      7  N   UNL     1       3.866   5.756  18.002  0.00  0.00    +0.000 N 
ATOM      8  C   UNL     1       2.891   6.612  18.472  0.00  0.00    +0.000 C 
ATOM      9  O   UNL     1       1.960   6.212  19.173  0.00  0.00    +0.000 OA
ATOM     10  C   UNL     1       5.134   6.110  17.397  0.00  0.00    +0.000 C 
ATOM     11  C   UNL     1       7.080   4.648  16.854  0.00  0.00    +0.000 C 
ATOM     12  O   UNL     1       7.681   4.459  17.898  0.00  0.00    +0.000 OA
ATOM     13  N   UNL     1       7.654   4.693  15.627  0.00  0.00    +0.000 N 
ATOM     14  H   UNL     1       8.637   4.516  15.481  0.00  0.00    +0.000 HD
ENDROOT
BRANCH   8  15
ATOM     15  C   UNL     1       2.960   8.053  17.998  0.00  0.00    +0.000 C 
BRANCH  15  16
ATOM     16  C   UNL     1       1.568   8.656  17.843  0.00  0.00    +0.000 C 
BRANCH  16  17
ATOM     17  C   UNL     1       1.269   9.624  18.953  0.00  0.00    +0.000 A 
ATOM     18  C   UNL     1       0.818   9.349  20.229  0.00  0.00    +0.000 A 
ATOM     19  C   UNL     1       0.659  10.529  21.013  0.00  0.00    +0.000 A 
ATOM     20  C   UNL     1       0.987  11.665  20.309  0.00  0.00    +0.000 A 
ATOM     21  S   UNL     1       1.484  11.308  18.712  0.00  0.00    +0.000 S 
ENDBRANCH  16  17
ENDBRANCH  15  16
ENDBRANCH   8  15
TORSDOF 3
ENDMDL
MODEL 3
REMARK VINA RESULT:      -7.1      3.400      6.961
REMARK  Name = 
REMARK  3 active torsions:
REMARK  status: ('A' for Active; 'I' for Inactive)
REMARK    1  A    between atoms: C_8  and  C_10
REMARK    2  A    between atoms: C_10  and  C_11
REMARK    3  A    between atoms: C_11  and  C_12
REMARK                            x       y       z     vdW  Elec       q    Type
REMARK                         _______ _______ _______ _____ _____    ______ ____
ROOT
ATOM      1  O   UNL     1       0.183   2.088  18.760  0.00  0.00    +0.000 OA
ATOM      2  C   UNL     1       1.061   2.905  18.970  0.00  0.00    +0.000 C 
ATOM      3  C   UNL     1       1.805   3.672  17.921  0.00  0.00    +0.000 C 
ATOM      4  C   UNL     1       2.606   4.716  18.718  0.00  0.00    +0.000 C 
ATOM      5  C   UNL     1       2.239   6.170  18.355  0.00  0.00    +0.000 C 
ATOM      6  C   UNL     1       3.535   6.818  17.884  0.00  0.00    +0.000 C 
ATOM      7  N   UNL     1       4.409   5.705  17.584  0.00  0.00    +0.000 N 
ATOM      8  C   UNL     1       5.540   5.879  16.811  0.00  0.00    +0.000 C 
ATOM      9  O   UNL     1       5.794   6.955  16.268  0.00  0.00    +0.000 OA
ATOM     10  C   UNL     1       4.111   4.605  18.478  0.00  0.00    +0.000 C 
ATOM     11  C   UNL     1       2.277   4.393  20.155  0.00  0.00    +0.000 C 
ATOM     12  O   UNL     1       2.619   5.037  21.133  0.00  0.00    +0.000 OA
ATOM     13  N   UNL     1       1.503   3.282  20.192  0.00  0.00    +0.000 N 
ATOM     14  H   UNL     1       1.097   2.930  21.047  0.00  0.00    +0.000 HD
ENDROOT
BRANCH   8  15
ATOM     15  C   UNL     1       6.402   4.651  16.577  0.00  0.00    +0.000 C 
BRANCH  15  16
ATOM     16  C   UNL     1       5.864   3.805  15.428  0.00  0.00    +0.000 C 
BRANCH  16  17
ATOM     17  C   UNL     1       6.509   4.188  14.124  0.00  0.00    +0.000 A 
ATOM     18  C   UNL     1       7.442   5.179  13.892  0.00  0.00    +0.000 A 
ATOM     19  C   UNL     1       7.835   5.242  12.523  0.00  0.00    +0.000 A 
ATOM     20  C   UNL     1       7.184   4.303  11.755  0.00  0.00    +0.000 A 
ATOM     21  S   UNL     1       6.107   3.352  12.683  0.00  0.00    +0.000 S 
ENDBRANCH  16  17
ENDBRANCH  15  16
ENDBRANCH   8  15
TORSDOF 3
ENDMDL
MODEL 4
REMARK VINA RESULT:      -7.0      3.742      4.773
REMARK  Name = 
REMARK  3 active torsions:
REMARK  status: ('A' for Active; 'I' for Inactive)
REMARK    1  A    between atoms: C_8  and  C_10
REMARK    2  A    between atoms: C_10  and  C_11
REMARK    3  A    between atoms: C_11  and  C_12
REMARK                            x       y       z     vdW  Elec       q    Type
REMARK                         _______ _______ _______ _____ _____    ______ ____
ROOT
ATOM      1  O   UNL     1       6.308   3.791  13.484  0.00  0.00    +0.000 OA
ATOM      2  C   UNL     1       6.256   4.460  14.500  0.00  0.00    +0.000 C 
ATOM      3  C   UNL     1       5.201   4.356  15.558  0.00  0.00    +0.000 C 
ATOM      4  C   UNL     1       5.732   5.232  16.705  0.00  0.00    +0.000 C 
ATOM      5  C   UNL     1       5.962   4.447  18.013  0.00  0.00    +0.000 C 
ATOM      6  C   UNL     1       5.093   5.128  19.062  0.00  0.00    +0.000 C 
ATOM      7  N   UNL     1       4.143   5.905  18.297  0.00  0.00    +0.000 N 
ATOM      8  C   UNL     1       2.987   6.384  18.879  0.00  0.00    +0.000 C 
ATOM      9  O   UNL     1       2.670   6.087  20.031  0.00  0.00    +0.000 OA
ATOM     10  C   UNL     1       4.769   6.359  17.072  0.00  0.00    +0.000 C 
ATOM     11  C   UNL     1       7.018   5.797  16.153  0.00  0.00    +0.000 C 
ATOM     12  O   UNL     1       7.827   6.473  16.765  0.00  0.00    +0.000 OA
ATOM     13  N   UNL     1       7.156   5.403  14.863  0.00  0.00    +0.000 N 
ATOM     14  H   UNL     1       7.984   5.599  14.321  0.00  0.00    +0.000 HD
ENDROOT
BRANCH   8  15
ATOM     15  C   UNL     1       2.070   7.211  17.995  0.00  0.00    +0.000 C 
BRANCH  15  16
ATOM     16  C   UNL     1       2.277   8.705  18.222  0.00  0.00    +0.000 C 
BRANCH  16  17
ATOM     17  C   UNL     1       1.209   9.271  19.117  0.00  0.00    +0.000 A 
ATOM     18  C   UNL     1       1.002   9.025  20.459  0.00  0.00    +0.000 A 
ATOM     19  C   UNL     1      -0.108   9.755  20.978  0.00  0.00    +0.000 A 
ATOM     20  C   UNL     1      -0.714  10.528  20.013  0.00  0.00    +0.000 A 
ATOM     21  S   UNL     1       0.053  10.373  18.493  0.00  0.00    +0.000 S 
ENDBRANCH  16  17
ENDBRANCH  15  16
ENDBRANCH   8  15
TORSDOF 3
ENDMDL
MODEL 5
REMARK VINA RESULT:      -6.9      3.807      4.675
REMARK  Name = 
REMARK  3 active torsions:
REMARK  status: ('A' for Active; 'I' for Inactive)
REMARK    1  A    between atoms: C_8  and  C_10
REMARK    2  A    between atoms: C_10  and  C_11
REMARK    3  A    between atoms: C_11  and  C_12
REMARK                            x       y       z     vdW  Elec       q    Type
REMARK                         _______ _______ _______ _____ _____    ______ ____
ROOT
ATOM      1  O   UNL     1       6.980   5.111  14.198  0.00  0.00    +0.000 OA
ATOM      2  C   UNL     1       6.664   5.060  15.373  0.00  0.00    +0.000 C 
ATOM      3  C   UNL     1       5.262   5.008  15.896  0.00  0.00    +0.000 C 
ATOM      4  C   UNL     1       5.432   4.714  17.396  0.00  0.00    +0.000 C 
ATOM      5  C   UNL     1       4.774   3.390  17.834  0.00  0.00    +0.000 C 
ATOM      6  C   UNL     1       3.768   3.767  18.915  0.00  0.00    +0.000 C 
ATOM      7  N   UNL     1       3.573   5.190  18.749  0.00  0.00    +0.000 N 
ATOM      8  C   UNL     1       2.486   5.828  19.312  0.00  0.00    +0.000 C 
ATOM      9  O   UNL     1       1.594   5.203  19.886  0.00  0.00    +0.000 OA
ATOM     10  C   UNL     1       4.804   5.792  18.277  0.00  0.00    +0.000 C 
ATOM     11  C   UNL     1       6.930   4.689  17.584  0.00  0.00    +0.000 C 
ATOM     12  O   UNL     1       7.521   4.390  18.608  0.00  0.00    +0.000 OA
ATOM     13  N   UNL     1       7.527   5.020  16.413  0.00  0.00    +0.000 N 
ATOM     14  H   UNL     1       8.528   4.987  16.287  0.00  0.00    +0.000 HD
ENDROOT
BRANCH   8  15
ATOM     15  C   UNL     1       2.389   7.328  19.099  0.00  0.00    +0.000 C 
BRANCH  15  16
ATOM     16  C   UNL     1       1.849   8.033  20.339  0.00  0.00    +0.000 C 
BRANCH  16  17
ATOM     17  C   UNL     1       0.928   9.160  19.965  0.00  0.00    +0.000 A 
ATOM     18  C   UNL     1      -0.180   9.620  20.649  0.00  0.00    +0.000 A 
ATOM     19  C   UNL     1      -0.803  10.721  19.991  0.00  0.00    +0.000 A 
ATOM     20  C   UNL     1      -0.154  11.060  18.825  0.00  0.00    +0.000 A 
ATOM     21  S   UNL     1       1.198  10.056  18.528  0.00  0.00    +0.000 S 
ENDBRANCH  16  17
ENDBRANCH  15  16
ENDBRANCH   8  15
TORSDOF 3
ENDMDL
MODEL 6
REMARK VINA RESULT:      -6.8      3.913      6.092
REMARK  Name = 
REMARK  3 active torsions:
REMARK  status: ('A' for Active; 'I' for Inactive)
REMARK    1  A    between atoms: C_8  and  C_10
REMARK    2  A    between atoms: C_10  and  C_11
REMARK    3  A    between atoms: C_11  and  C_12
REMARK                            x       y       z     vdW  Elec       q    Type
REMARK                         _______ _______ _______ _____ _____    ______ ____
ROOT
ATOM      1  O   UNL     1       1.354   2.491  22.309  0.00  0.00    +0.000 OA
ATOM      2  C   UNL     1       1.736   2.843  21.208  0.00  0.00    +0.000 C 
ATOM      3  C   UNL     1       2.366   4.163  20.886  0.00  0.00    +0.000 C 
ATOM      4  C   UNL     1       2.867   3.997  19.442  0.00  0.00    +0.000 C 
ATOM      5  C   UNL     1       4.395   4.161  19.306  0.00  0.00    +0.000 C 
ATOM      6  C   UNL     1       4.602   5.303  18.319  0.00  0.00    +0.000 C 
ATOM      7  N   UNL     1       3.328   5.987  18.284  0.00  0.00    +0.000 N 
ATOM      8  C   UNL     1       3.223   7.265  17.773  0.00  0.00    +0.000 C 
ATOM      9  O   UNL     1       4.215   7.907  17.425  0.00  0.00    +0.000 OA
ATOM     10  C   UNL     1       2.262   5.028  18.491  0.00  0.00    +0.000 C 
ATOM     11  C   UNL     1       2.413   2.607  19.067  0.00  0.00    +0.000 C 
ATOM     12  O   UNL     1       2.683   2.016  18.035  0.00  0.00    +0.000 OA
ATOM     13  N   UNL     1       1.678   2.094  20.084  0.00  0.00    +0.000 N 
ATOM     14  H   UNL     1       1.341   1.143  20.083  0.00  0.00    +0.000 HD
ENDROOT
BRANCH   8  15
ATOM     15  C   UNL     1       1.836   7.882  17.759  0.00  0.00    +0.000 C 
BRANCH  15  16
ATOM     16  C   UNL     1       1.850   9.296  18.331  0.00  0.00    +0.000 C 
BRANCH  16  17
ATOM     17  C   UNL     1       1.156   9.351  19.663  0.00  0.00    +0.000 A 
ATOM     18  C   UNL     1       1.233   8.446  20.703  0.00  0.00    +0.000 A 
ATOM     19  C   UNL     1       0.440   8.838  21.821  0.00  0.00    +0.000 A 
ATOM     20  C   UNL     1      -0.219  10.025  21.595  0.00  0.00    +0.000 A 
ATOM     21  S   UNL     1       0.117  10.660  20.044  0.00  0.00    +0.000 S 
ENDBRANCH  16  17
ENDBRANCH  15  16
ENDBRANCH   8  15
TORSDOF 3
ENDMDL
MODEL 7
REMARK VINA RESULT:      -6.8      3.539      6.857
REMARK  Name = 
REMARK  3 active torsions:
REMARK  status: ('A' for Active; 'I' for Inactive)
REMARK    1  A    between atoms: C_8  and  C_10
REMARK    2  A    between atoms: C_10  and  C_11
REMARK    3  A    between atoms: C_11  and  C_12
REMARK                            x       y       z     vdW  Elec       q    Type
REMARK                         _______ _______ _______ _____ _____    ______ ____
ROOT
ATOM      1  O   UNL     1       0.179   2.107  18.443  0.00  0.00    +0.000 OA
ATOM      2  C   UNL     1       1.081   2.887  18.692  0.00  0.00    +0.000 C 
ATOM      3  C   UNL     1       1.826   3.707  17.684  0.00  0.00    +0.000 C 
ATOM      4  C   UNL     1       2.667   4.673  18.534  0.00  0.00    +0.000 C 
ATOM      5  C   UNL     1       2.331   6.157  18.279  0.00  0.00    +0.000 C 
ATOM      6  C   UNL     1       3.634   6.805  17.829  0.00  0.00    +0.000 C 
ATOM      7  N   UNL     1       4.473   5.695  17.436  0.00  0.00    +0.000 N 
ATOM      8  C   UNL     1       5.594   5.895  16.656  0.00  0.00    +0.000 C 
ATOM      9  O   UNL     1       5.866   6.999  16.182  0.00  0.00    +0.000 OA
ATOM     10  C   UNL     1       4.163   4.543  18.258  0.00  0.00    +0.000 C 
ATOM     11  C   UNL     1       2.356   4.260  19.952  0.00  0.00    +0.000 C 
ATOM     12  O   UNL     1       2.731   4.826  20.965  0.00  0.00    +0.000 OA
ATOM     13  N   UNL     1       1.554   3.168  19.928  0.00  0.00    +0.000 N 
ATOM     14  H   UNL     1       1.155   2.768  20.764  0.00  0.00    +0.000 HD
ENDROOT
BRANCH   8  15
ATOM     15  C   UNL     1       6.421   4.666  16.321  0.00  0.00    +0.000 C 
BRANCH  15  16
ATOM     16  C   UNL     1       7.198   4.855  15.022  0.00  0.00    +0.000 C 
BRANCH  16  17
ATOM     17  C   UNL     1       6.469   4.242  13.859  0.00  0.00    +0.000 A 
ATOM     18  C   UNL     1       5.143   3.865  13.785  0.00  0.00    +0.000 A 
ATOM     19  C   UNL     1       4.804   3.328  12.508  0.00  0.00    +0.000 A 
ATOM     20  C   UNL     1       5.883   3.306  11.654  0.00  0.00    +0.000 A 
ATOM     21  S   UNL     1       7.295   3.930  12.389  0.00  0.00    +0.000 S 
ENDBRANCH  16  17
ENDBRANCH  15  16
ENDBRANCH   8  15
TORSDOF 3
ENDMDL
MODEL 8
REMARK VINA RESULT:      -6.8      4.330      5.557
REMARK  Name = 
REMARK  3 active torsions:
REMARK  status: ('A' for Active; 'I' for Inactive)
REMARK    1  A    between atoms: C_8  and  C_10
REMARK    2  A    between atoms: C_10  and  C_11
REMARK    3  A    between atoms: C_11  and  C_12
REMARK                            x       y       z     vdW  Elec       q    Type
REMARK                         _______ _______ _______ _____ _____    ______ ____
ROOT
ATOM      1  O   UNL     1       6.440   4.229  13.639  0.00  0.00    +0.000 OA
ATOM      2  C   UNL     1       6.338   4.780  14.720  0.00  0.00    +0.000 C 
ATOM      3  C   UNL     1       5.071   4.931  15.504  0.00  0.00    +0.000 C 
ATOM      4  C   UNL     1       5.536   5.471  16.867  0.00  0.00    +0.000 C 
ATOM      5  C   UNL     1       5.187   4.535  18.043  0.00  0.00    +0.000 C 
ATOM      6  C   UNL     1       4.328   5.363  18.990  0.00  0.00    +0.000 C 
ATOM      7  N   UNL     1       3.877   6.478  18.188  0.00  0.00    +0.000 N 
ATOM      8  C   UNL     1       2.809   7.255  18.591  0.00  0.00    +0.000 C 
ATOM      9  O   UNL     1       2.141   6.973  19.586  0.00  0.00    +0.000 OA
ATOM     10  C   UNL     1       4.895   6.813  17.213  0.00  0.00    +0.000 C 
ATOM     11  C   UNL     1       7.027   5.629  16.695  0.00  0.00    +0.000 C 
ATOM     12  O   UNL     1       7.822   5.940  17.567  0.00  0.00    +0.000 OA
ATOM     13  N   UNL     1       7.358   5.334  15.415  0.00  0.00    +0.000 N 
ATOM     14  H   UNL     1       8.315   5.296  15.096  0.00  0.00    +0.000 HD
ENDROOT
BRANCH   8  15
ATOM     15  C   UNL     1       2.432   8.417  17.689  0.00  0.00    +0.000 C 
BRANCH  15  16
ATOM     16  C   UNL     1       1.145   9.089  18.156  0.00  0.00    +0.000 C 
BRANCH  16  17
ATOM     17  C   UNL     1       1.339  10.569  18.335  0.00  0.00    +0.000 A 
ATOM     18  C   UNL     1       2.435  11.335  17.990  0.00  0.00    +0.000 A 
ATOM     19  C   UNL     1       2.252  12.713  18.303  0.00  0.00    +0.000 A 
ATOM     20  C   UNL     1       1.027  12.953  18.883  0.00  0.00    +0.000 A 
ATOM     21  S   UNL     1       0.104  11.523  19.046  0.00  0.00    +0.000 S 
ENDBRANCH  16  17
ENDBRANCH  15  16
ENDBRANCH   8  15
TORSDOF 3
ENDMDL
MODEL 9
REMARK VINA RESULT:      -6.8      3.678      6.317
REMARK  Name = 
REMARK  3 active torsions:
REMARK  status: ('A' for Active; 'I' for Inactive)
REMARK    1  A    between atoms: C_8  and  C_10
REMARK    2  A    between atoms: C_10  and  C_11
REMARK    3  A    between atoms: C_11  and  C_12
REMARK                            x       y       z     vdW  Elec       q    Type
REMARK                         _______ _______ _______ _____ _____    ______ ____
ROOT
ATOM      1  O   UNL     1       1.483   2.348  22.452  0.00  0.00    +0.000 OA
ATOM      2  C   UNL     1       1.501   2.759  21.305  0.00  0.00    +0.000 C 
ATOM      3  C   UNL     1       2.657   3.446  20.645  0.00  0.00    +0.000 C 
ATOM      4  C   UNL     1       2.245   3.532  19.165  0.00  0.00    +0.000 C 
ATOM      5  C   UNL     1       3.209   2.783  18.222  0.00  0.00    +0.000 C 
ATOM      6  C   UNL     1       3.718   3.828  17.236  0.00  0.00    +0.000 C 
ATOM      7  N   UNL     1       3.420   5.095  17.866  0.00  0.00    +0.000 N 
ATOM      8  C   UNL     1       4.033   6.258  17.444  0.00  0.00    +0.000 C 
ATOM      9  O   UNL     1       4.923   6.249  16.592  0.00  0.00    +0.000 OA
ATOM     10  C   UNL     1       2.209   4.970  18.651  0.00  0.00    +0.000 C 
ATOM     11  C   UNL     1       0.860   2.932  19.148  0.00  0.00    +0.000 C 
ATOM     12  O   UNL     1       0.187   2.706  18.156  0.00  0.00    +0.000 OA
ATOM     13  N   UNL     1       0.486   2.646  20.418  0.00  0.00    +0.000 N 
ATOM     14  H   UNL     1      -0.373   2.164  20.636  0.00  0.00    +0.000 HD
ENDROOT
BRANCH   8  15
ATOM     15  C   UNL     1       3.631   7.538  18.155  0.00  0.00    +0.000 C 
BRANCH  15  16
ATOM     16  C   UNL     1       2.485   8.239  17.432  0.00  0.00    +0.000 C 
BRANCH  16  17
ATOM     17  C   UNL     1       1.548   8.893  18.408  0.00  0.00    +0.000 A 
ATOM     18  C   UNL     1       0.607   9.874  18.163  0.00  0.00    +0.000 A 
ATOM     19  C   UNL     1      -0.110  10.243  19.339  0.00  0.00    +0.000 A 
ATOM     20  C   UNL     1       0.311   9.537  20.443  0.00  0.00    +0.000 A 
ATOM     21  S   UNL     1       1.563   8.436  20.061  0.00  0.00    +0.000 S 
ENDBRANCH  16  17
ENDBRANCH  15  16
ENDBRANCH   8  15
TORSDOF 3
ENDMDL
