MODEL 1
REMARK VINA RESULT:      -7.6      0.000      0.000
REMARK  Name = 
REMARK  8 active torsions:
REMARK  status: ('A' for Active; 'I' for Inactive)
REMARK    1  A    between atoms: C_1  and  C_2
REMARK    2  A    between atoms: C_2  and  C_3
REMARK    3  A    between atoms: C_2  and  N_4
REMARK    4  A    between atoms: N_7  and  C_8
REMARK    5  A    between atoms: C_8  and  C_9
REMARK    6  A    between atoms: C_9  and  N_10
REMARK    7  A    between atoms: N_13  and  C_14
REMARK    8  A    between atoms: C_16  and  C_17
REMARK                            x       y       z     vdW  Elec       q    Type
REMARK                         _______ _______ _______ _____ _____    ______ ____
ROOT
ATOM      1  N   UNL     1       0.363   9.586  20.069  0.00  0.00    +0.000 NA
ATOM      2  C   UNL     1       1.098   9.301  18.814  0.00  0.00    +0.000 C 
ATOM      3  C   UNL     1       2.398   8.463  18.941  0.00  0.00    +0.000 C 
ATOM      4  N   UNL     1       2.286   7.229  19.754  0.00  0.00    +0.000 NA
ATOM      5  C   UNL     1       1.679   7.649  21.041  0.00  0.00    +0.000 C 
ATOM      6  C   UNL     1       0.309   8.355  20.888  0.00  0.00    +0.000 C 
ENDROOT
BRANCH   4   7
ATOM      7  C   UNL     1       1.551   6.127  19.073  0.00  0.00    +0.000 C 
ATOM      8  C   UNL     1       2.042   5.882  17.612  0.00  0.00    +0.000 C 
ATOM      9  C   UNL     1       2.909   4.599  17.559  0.00  0.00    +0.000 C 
ATOM     10  C   UNL     1       2.801   4.057  18.954  0.00  0.00    +0.000 A 
ATOM     11  C   UNL     1       3.412   2.928  19.486  0.00  0.00    +0.000 A 
ATOM     12  C   UNL     1       3.046   2.511  20.769  0.00  0.00    +0.000 A 
ATOM     13  C   UNL     1       2.022   3.170  21.451  0.00  0.00    +0.000 A 
ATOM     14  F   UNL     1       1.666   2.752  22.672  0.00  0.00    +0.000 F 
ATOM     15  C   UNL     1       1.398   4.286  20.910  0.00  0.00    +0.000 A 
ATOM     16  C   UNL     1       1.863   4.780  19.696  0.00  0.00    +0.000 A 
BRANCH   9  17
ATOM     17  C   UNL     1       4.284   4.795  16.966  0.00  0.00    +0.000 A 
ATOM     18  C   UNL     1       5.007   5.989  17.135  0.00  0.00    +0.000 A 
ATOM     19  C   UNL     1       6.236   6.168  16.492  0.00  0.00    +0.000 A 
ATOM     20  C   UNL     1       6.750   5.159  15.686  0.00  0.00    +0.000 A 
ATOM     21  F   UNL     1       7.917   5.346  15.053  0.00  0.00    +0.000 F 
ATOM     22  C   UNL     1       6.068   3.965  15.519  0.00  0.00    +0.000 A 
ATOM     23  C   UNL     1       4.838   3.782  16.158  0.00  0.00    +0.000 A 
ENDBRANCH   9  17
ENDBRANCH   4   7
BRANCH   1  24
ATOM     24  C   UNL     1       0.954  10.681  20.862  0.00  0.00    +0.000 C 
BRANCH  24  25
ATOM     25  C   UNL     1       0.200  12.022  20.810  0.00  0.00    +0.000 C 
BRANCH  25  29
ATOM     26  N   UNL     1      -3.156  12.426  22.158  0.00  0.00    +0.000 N 
ATOM     27  C   UNL     1      -2.477  11.986  23.361  0.00  0.00    +0.000 C 
ATOM     28  C   UNL     1      -1.200  11.345  22.834  0.00  0.00    +0.000 C 
ATOM     29  N   UNL     1      -1.061  11.929  21.522  0.00  0.00    +0.000 N 
ATOM     30  C   UNL     1      -2.224  12.578  21.123  0.00  0.00    +0.000 C 
ATOM     31  O   UNL     1      -2.384  13.195  20.083  0.00  0.00    +0.000 OA
BRANCH  26  33
ATOM     32  C   UNL     1      -5.436  12.480  21.214  0.00  0.00    +0.000 C 
ATOM     33  C   UNL     1      -4.436  13.135  22.164  0.00  0.00    +0.000 C 
ATOM     34  C   UNL     1      -5.010  13.263  23.574  0.00  0.00    +0.000 C 
ENDBRANCH  26  33
ENDBRANCH  25  29
ENDBRANCH  24  25
ENDBRANCH   1  24
TORSDOF 6
ENDMDL
MODEL 2
REMARK VINA RESULT:      -7.4      1.002      1.396
REMARK  Name = 
REMARK  8 active torsions:
REMARK  status: ('A' for Active; 'I' for Inactive)
REMARK    1  A    between atoms: C_1  and  C_2
REMARK    2  A    between atoms: C_2  and  C_3
REMARK    3  A    between atoms: C_2  and  N_4
REMARK    4  A    between atoms: N_7  and  C_8
REMARK    5  A    between atoms: C_8  and  C_9
REMARK    6  A    between atoms: C_9  and  N_10
REMARK    7  A    between atoms: N_13  and  C_14
REMARK    8  A    between atoms: C_16  and  C_17
REMARK                            x       y       z     vdW  Elec       q    Type
REMARK                         _______ _______ _______ _____ _____    ______ ____
ROOT
ATOM      1  N   UNL     1       0.650   9.718  19.013  0.00  0.00    +0.000 NA
ATOM      2  C   UNL     1       1.507   9.171  17.934  0.00  0.00    +0.000 C 
ATOM      3  C   UNL     1       2.725   8.318  18.375  0.00  0.00    +0.000 C 
ATOM      4  N   UNL     1       2.441   7.265  19.378  0.00  0.00    +0.000 NA
ATOM      5  C   UNL     1       1.717   7.946  20.480  0.00  0.00    +0.000 C 
ATOM      6  C   UNL     1       0.423   8.667  20.029  0.00  0.00    +0.000 C 
ENDROOT
BRANCH   4   7
ATOM      7  C   UNL     1       1.720   6.087  18.823  0.00  0.00    +0.000 C 
ATOM      8  C   UNL     1       2.181   5.720  17.378  0.00  0.00    +0.000 C 
ATOM      9  C   UNL     1       3.082   4.460  17.419  0.00  0.00    +0.000 C 
ATOM     10  C   UNL     1       3.025   4.047  18.860  0.00  0.00    +0.000 A 
ATOM     11  C   UNL     1       3.681   2.988  19.476  0.00  0.00    +0.000 A 
ATOM     12  C   UNL     1       3.360   2.683  20.802  0.00  0.00    +0.000 A 
ATOM     13  C   UNL     1       2.336   3.376  21.448  0.00  0.00    +0.000 A 
ATOM     14  F   UNL     1       2.023   3.064  22.712  0.00  0.00    +0.000 F 
ATOM     15  C   UNL     1       1.666   4.420  20.825  0.00  0.00    +0.000 A 
ATOM     16  C   UNL     1       2.086   4.812  19.558  0.00  0.00    +0.000 A 
BRANCH   9  17
ATOM     17  C   UNL     1       4.435   4.636  16.771  0.00  0.00    +0.000 A 
ATOM     18  C   UNL     1       5.282   5.710  17.093  0.00  0.00    +0.000 A 
ATOM     19  C   UNL     1       6.486   5.891  16.405  0.00  0.00    +0.000 A 
ATOM     20  C   UNL     1       6.851   5.002  15.400  0.00  0.00    +0.000 A 
ATOM     21  F   UNL     1       7.994   5.194  14.727  0.00  0.00    +0.000 F 
ATOM     22  C   UNL     1       6.044   3.923  15.078  0.00  0.00    +0.000 A 
ATOM     23  C   UNL     1       4.839   3.739  15.762  0.00  0.00    +0.000 A 
ENDBRANCH   9  17
ENDBRANCH   4   7
BRANCH   1  24
ATOM     24  C   UNL     1       1.215  10.917  19.661  0.00  0.00    +0.000 C 
BRANCH  24  25
ATOM     25  C   UNL     1       0.889  11.081  21.156  0.00  0.00    +0.000 C 
BRANCH  25  29
ATOM     26  N   UNL     1      -2.220  12.705  22.125  0.00  0.00    +0.000 N 
ATOM     27  C   UNL     1      -2.189  13.085  20.726  0.00  0.00    +0.000 C 
ATOM     28  C   UNL     1      -0.734  12.871  20.332  0.00  0.00    +0.000 C 
ATOM     29  N   UNL     1      -0.257  11.953  21.338  0.00  0.00    +0.000 N 
ATOM     30  C   UNL     1      -1.145  11.850  22.402  0.00  0.00    +0.000 C 
ATOM     31  O   UNL     1      -1.026  11.122  23.373  0.00  0.00    +0.000 OA
BRANCH  26  33
ATOM     32  C   UNL     1      -3.366  13.803  24.015  0.00  0.00    +0.000 C 
ATOM     33  C   UNL     1      -3.435  12.720  22.941  0.00  0.00    +0.000 C 
ATOM     34  C   UNL     1      -4.694  12.861  22.087  0.00  0.00    +0.000 C 
ENDBRANCH  26  33
ENDBRANCH  25  29
ENDBRANCH  24  25
ENDBRANCH   1  24
TORSDOF 6
ENDMDL
MODEL 3
REMARK VINA RESULT:      -7.4      2.585      4.076
REMARK  Name = 
REMARK  8 active torsions:
REMARK  status: ('A' for Active; 'I' for Inactive)
REMARK    1  A    between atoms: C_1  and  C_2
REMARK    2  A    between atoms: C_2  and  C_3
REMARK    3  A    between atoms: C_2  and  N_4
REMARK    4  A    between atoms: N_7  and  C_8
REMARK    5  A    between atoms: C_8  and  C_9
REMARK    6  A    between atoms: C_9  and  N_10
REMARK    7  A    between atoms: N_13  and  C_14
REMARK    8  A    between atoms: C_16  and  C_17
REMARK                            x       y       z     vdW  Elec       q    Type
REMARK                         _______ _______ _______ _____ _____    ______ ____
ROOT
ATOM      1  N   UNL     1       0.412   9.678  19.786  0.00  0.00    +0.000 NA
ATOM      2  C   UNL     1       1.154   9.299  18.560  0.00  0.00    +0.000 C 
ATOM      3  C   UNL     1       2.441   8.455  18.755  0.00  0.00    +0.000 C 
ATOM      4  N   UNL     1       2.306   7.279  19.647  0.00  0.00    +0.000 NA
ATOM      5  C   UNL     1       1.694   7.793  20.898  0.00  0.00    +0.000 C 
ATOM      6  C   UNL     1       0.335   8.505  20.685  0.00  0.00    +0.000 C 
ENDROOT
BRANCH   4   7
ATOM      7  C   UNL     1       1.561   6.144  19.036  0.00  0.00    +0.000 C 
ATOM      8  C   UNL     1       2.006   5.847  17.570  0.00  0.00    +0.000 C 
ATOM      9  C   UNL     1       2.886   4.572  17.537  0.00  0.00    +0.000 C 
ATOM     10  C   UNL     1       2.831   4.084  18.954  0.00  0.00    +0.000 A 
ATOM     11  C   UNL     1       3.474   2.983  19.509  0.00  0.00    +0.000 A 
ATOM     12  C   UNL     1       3.156   2.613  20.819  0.00  0.00    +0.000 A 
ATOM     13  C   UNL     1       2.149   3.287  21.509  0.00  0.00    +0.000 A 
ATOM     14  F   UNL     1       1.838   2.914  22.757  0.00  0.00    +0.000 F 
ATOM     15  C   UNL     1       1.493   4.374  20.947  0.00  0.00    +0.000 A 
ATOM     16  C   UNL     1       1.910   4.826  19.700  0.00  0.00    +0.000 A 
BRANCH   9  17
ATOM     17  C   UNL     1       4.238   4.759  16.889  0.00  0.00    +0.000 A 
ATOM     18  C   UNL     1       4.937   5.977  16.961  0.00  0.00    +0.000 A 
ATOM     19  C   UNL     1       6.142   6.141  16.270  0.00  0.00    +0.000 A 
ATOM     20  C   UNL     1       6.655   5.095  15.513  0.00  0.00    +0.000 A 
ATOM     21  F   UNL     1       7.798   5.265  14.833  0.00  0.00    +0.000 F 
ATOM     22  C   UNL     1       5.996   3.878  15.442  0.00  0.00    +0.000 A 
ATOM     23  C   UNL     1       4.790   3.710  16.129  0.00  0.00    +0.000 A 
ENDBRANCH   9  17
ENDBRANCH   4   7
BRANCH   1  24
ATOM     24  C   UNL     1       1.011  10.815  20.509  0.00  0.00    +0.000 C 
BRANCH  24  25
ATOM     25  C   UNL     1       0.727  12.206  19.913  0.00  0.00    +0.000 C 
BRANCH  25  29
ATOM     26  N   UNL     1       3.643  14.379  19.788  0.00  0.00    +0.000 N 
ATOM     27  C   UNL     1       3.428  14.203  18.365  0.00  0.00    +0.000 C 
ATOM     28  C   UNL     1       2.547  12.962  18.290  0.00  0.00    +0.000 C 
ATOM     29  N   UNL     1       1.968  12.896  19.610  0.00  0.00    +0.000 N 
ATOM     30  C   UNL     1       2.616  13.745  20.499  0.00  0.00    +0.000 C 
ATOM     31  O   UNL     1       2.319  13.928  21.668  0.00  0.00    +0.000 OA
BRANCH  26  33
ATOM     32  C   UNL     1       5.725  14.974  20.972  0.00  0.00    +0.000 C 
ATOM     33  C   UNL     1       4.422  15.480  20.358  0.00  0.00    +0.000 C 
ATOM     34  C   UNL     1       4.680  16.585  19.336  0.00  0.00    +0.000 C 
ENDBRANCH  26  33
ENDBRANCH  25  29
ENDBRANCH  24  25
ENDBRANCH   1  24
TORSDOF 6
ENDMDL
MODEL 4
REMARK VINA RESULT:      -7.3      2.435      3.868
REMARK  Name = 
REMARK  8 active torsions:
REMARK  status: ('A' for Active; 'I' for Inactive)
REMARK    1  A    between atoms: C_1  and  C_2
REMARK    2  A    between atoms: C_2  and  C_3
REMARK    3  A    between atoms: C_2  and  N_4
REMARK    4  A    between atoms: N_7  and  C_8
REMARK    5  A    between atoms: C_8  and  C_9
REMARK    6  A    between atoms: C_9  and  N_10
REMARK    7  A    between atoms: N_13  and  C_14
REMARK    8  A    between atoms: C_16  and  C_17
REMARK                            x       y       z     vdW  Elec       q    Type
REMARK                         _______ _______ _______ _____ _____    ______ ____
ROOT
ATOM      1  N   UNL     1       0.476   9.678  19.718  0.00  0.00    +0.000 NA
ATOM      2  C   UNL     1       1.272   9.271  18.536  0.00  0.00    +0.000 C 
ATOM      3  C   UNL     1       2.527   8.399  18.805  0.00  0.00    +0.000 C 
ATOM      4  N   UNL     1       2.317   7.235  19.699  0.00  0.00    +0.000 NA
ATOM      5  C   UNL     1       1.652   7.774  20.911  0.00  0.00    +0.000 C 
ATOM      6  C   UNL     1       0.324   8.515  20.621  0.00  0.00    +0.000 C 
ENDROOT
BRANCH   4   7
ATOM      7  C   UNL     1       1.579   6.112  19.057  0.00  0.00    +0.000 C 
ATOM      8  C   UNL     1       2.042   5.841  17.592  0.00  0.00    +0.000 C 
ATOM      9  C   UNL     1       2.921   4.565  17.547  0.00  0.00    +0.000 C 
ATOM     10  C   UNL     1       2.848   4.052  18.955  0.00  0.00    +0.000 A 
ATOM     11  C   UNL     1       3.482   2.940  19.497  0.00  0.00    +0.000 A 
ATOM     12  C   UNL     1       3.147   2.547  20.796  0.00  0.00    +0.000 A 
ATOM     13  C   UNL     1       2.132   3.210  21.486  0.00  0.00    +0.000 A 
ATOM     14  F   UNL     1       1.806   2.815  22.723  0.00  0.00    +0.000 F 
ATOM     15  C   UNL     1       1.484   4.308  20.935  0.00  0.00    +0.000 A 
ATOM     16  C   UNL     1       1.918   4.782  19.702  0.00  0.00    +0.000 A 
BRANCH   9  17
ATOM     17  C   UNL     1       4.281   4.763  16.920  0.00  0.00    +0.000 A 
ATOM     18  C   UNL     1       5.032   5.935  17.119  0.00  0.00    +0.000 A 
ATOM     19  C   UNL     1       6.244   6.120  16.447  0.00  0.00    +0.000 A 
ATOM     20  C   UNL     1       6.714   5.139  15.581  0.00  0.00    +0.000 A 
ATOM     21  F   UNL     1       7.864   5.332  14.921  0.00  0.00    +0.000 F 
ATOM     22  C   UNL     1       6.003   3.965  15.384  0.00  0.00    +0.000 A 
ATOM     23  C   UNL     1       4.790   3.777  16.052  0.00  0.00    +0.000 A 
ENDBRANCH   9  17
ENDBRANCH   4   7
BRANCH   1  24
ATOM     24  C   UNL     1       1.063  10.808  20.463  0.00  0.00    +0.000 C 
BRANCH  24  25
ATOM     25  C   UNL     1       0.370  12.167  20.263  0.00  0.00    +0.000 C 
BRANCH  25  29
ATOM     26  N   UNL     1       3.098  14.378  19.311  0.00  0.00    +0.000 N 
ATOM     27  C   UNL     1       3.147  14.561  20.749  0.00  0.00    +0.000 C 
ATOM     28  C   UNL     1       1.783  14.068  21.215  0.00  0.00    +0.000 C 
ATOM     29  N   UNL     1       1.351  13.227  20.125  0.00  0.00    +0.000 N 
ATOM     30  C   UNL     1       2.139  13.408  18.994  0.00  0.00    +0.000 C 
ATOM     31  O   UNL     1       2.035  12.804  17.939  0.00  0.00    +0.000 OA
BRANCH  26  33
ATOM     32  C   UNL     1       3.819  15.756  17.394  0.00  0.00    +0.000 C 
ATOM     33  C   UNL     1       4.214  14.694  18.417  0.00  0.00    +0.000 C 
ATOM     34  C   UNL     1       5.466  15.103  19.191  0.00  0.00    +0.000 C 
ENDBRANCH  26  33
ENDBRANCH  25  29
ENDBRANCH  24  25
ENDBRANCH   1  24
TORSDOF 6
ENDMDL
MODEL 5
REMARK VINA RESULT:      -7.2      2.148      3.203
REMARK  Name = 
REMARK  8 active torsions:
REMARK  status: ('A' for Active; 'I' for Inactive)
REMARK    1  A    between atoms: C_1  and  C_2
REMARK    2  A    between atoms: C_2  and  C_3
REMARK    3  A    between atoms: C_2  and  N_4
REMARK    4  A    between atoms: N_7  and  C_8
REMARK    5  A    between atoms: C_8  and  C_9
REMARK    6  A    between atoms: C_9  and  N_10
REMARK    7  A    between atoms: N_13  and  C_14
REMARK    8  A    between atoms: C_16  and  C_17
REMARK                            x       y       z     vdW  Elec       q    Type
REMARK                         _______ _______ _______ _____ _____    ______ ____
ROOT
ATOM      1  N   UNL     1       0.427   9.563  20.075  0.00  0.00    +0.000 NA
ATOM      2  C   UNL     1       1.240   9.249  18.876  0.00  0.00    +0.000 C 
ATOM      3  C   UNL     1       2.476   8.336  19.089  0.00  0.00    +0.000 C 
ATOM      4  N   UNL     1       2.232   7.101  19.872  0.00  0.00    +0.000 NA
ATOM      5  C   UNL     1       1.553   7.542  21.115  0.00  0.00    +0.000 C 
ATOM      6  C   UNL     1       0.241   8.328  20.869  0.00  0.00    +0.000 C 
ENDROOT
BRANCH   4   7
ATOM      7  C   UNL     1       1.489   6.051  19.121  0.00  0.00    +0.000 C 
ATOM      8  C   UNL     1       2.003   5.875  17.658  0.00  0.00    +0.000 C 
ATOM      9  C   UNL     1       2.847   4.580  17.551  0.00  0.00    +0.000 C 
ATOM     10  C   UNL     1       2.704   3.967  18.913  0.00  0.00    +0.000 A 
ATOM     11  C   UNL     1       3.285   2.800  19.395  0.00  0.00    +0.000 A 
ATOM     12  C   UNL     1       2.888   2.322  20.647  0.00  0.00    +0.000 A 
ATOM     13  C   UNL     1       1.864   2.964  21.345  0.00  0.00    +0.000 A 
ATOM     14  F   UNL     1       1.478   2.489  22.536  0.00  0.00    +0.000 F 
ATOM     15  C   UNL     1       1.270   4.118  20.854  0.00  0.00    +0.000 A 
ATOM     16  C   UNL     1       1.765   4.668  19.677  0.00  0.00    +0.000 A 
BRANCH   9  17
ATOM     17  C   UNL     1       4.236   4.781  16.993  0.00  0.00    +0.000 A 
ATOM     18  C   UNL     1       4.966   5.963  17.214  0.00  0.00    +0.000 A 
ATOM     19  C   UNL     1       6.209   6.150  16.603  0.00  0.00    +0.000 A 
ATOM     20  C   UNL     1       6.732   5.161  15.777  0.00  0.00    +0.000 A 
ATOM     21  F   UNL     1       7.913   5.356  15.174  0.00  0.00    +0.000 F 
ATOM     22  C   UNL     1       6.042   3.979  15.559  0.00  0.00    +0.000 A 
ATOM     23  C   UNL     1       4.798   3.789  16.166  0.00  0.00    +0.000 A 
ENDBRANCH   9  17
ENDBRANCH   4   7
BRANCH   1  24
ATOM     24  C   UNL     1       1.017  10.613  20.927  0.00  0.00    +0.000 C 
BRANCH  24  25
ATOM     25  C   UNL     1       0.124  11.840  21.185  0.00  0.00    +0.000 C 
BRANCH  25  29
ATOM     26  N   UNL     1       1.380  14.811  19.501  0.00  0.00    +0.000 N 
ATOM     27  C   UNL     1       0.051  14.763  18.922  0.00  0.00    +0.000 C 
ATOM     28  C   UNL     1      -0.398  13.331  19.180  0.00  0.00    +0.000 C 
ATOM     29  N   UNL     1       0.454  12.915  20.268  0.00  0.00    +0.000 N 
ATOM     30  C   UNL     1       1.508  13.800  20.463  0.00  0.00    +0.000 C 
ATOM     31  O   UNL     1       2.359  13.727  21.333  0.00  0.00    +0.000 OA
BRANCH  26  33
ATOM     32  C   UNL     1       2.568  16.462  18.103  0.00  0.00    +0.000 C 
ATOM     33  C   UNL     1       2.213  16.014  19.519  0.00  0.00    +0.000 C 
ATOM     34  C   UNL     1       1.563  17.146  20.314  0.00  0.00    +0.000 C 
ENDBRANCH  26  33
ENDBRANCH  25  29
ENDBRANCH  24  25
ENDBRANCH   1  24
TORSDOF 6
ENDMDL
MODEL 6
REMARK VINA RESULT:      -7.2      2.320      3.444
REMARK  Name = 
REMARK  8 active torsions:
REMARK  status: ('A' for Active; 'I' for Inactive)
REMARK    1  A    between atoms: C_1  and  C_2
REMARK    2  A    between atoms: C_2  and  C_3
REMARK    3  A    between atoms: C_2  and  N_4
REMARK    4  A    between atoms: N_7  and  C_8
REMARK    5  A    between atoms: C_8  and  C_9
REMARK    6  A    between atoms: C_9  and  N_10
REMARK    7  A    between atoms: N_13  and  C_14
REMARK    8  A    between atoms: C_16  and  C_17
REMARK                            x       y       z     vdW  Elec       q    Type
REMARK                         _______ _______ _______ _____ _____    ______ ____
ROOT
ATOM      1  N   UNL     1       0.655   9.782  19.167  0.00  0.00    +0.000 NA
ATOM      2  C   UNL     1       1.511   9.230  18.090  0.00  0.00    +0.000 C 
ATOM      3  C   UNL     1       2.704   8.342  18.532  0.00  0.00    +0.000 C 
ATOM      4  N   UNL     1       2.382   7.281  19.516  0.00  0.00    +0.000 NA
ATOM      5  C   UNL     1       1.662   7.963  20.619  0.00  0.00    +0.000 C 
ATOM      6  C   UNL     1       0.390   8.721  20.164  0.00  0.00    +0.000 C 
ENDROOT
BRANCH   4   7
ATOM      7  C   UNL     1       1.640   6.129  18.935  0.00  0.00    +0.000 C 
ATOM      8  C   UNL     1       2.086   5.793  17.477  0.00  0.00    +0.000 C 
ATOM      9  C   UNL     1       2.969   4.520  17.479  0.00  0.00    +0.000 C 
ATOM     10  C   UNL     1       2.914   4.069  18.909  0.00  0.00    +0.000 A 
ATOM     11  C   UNL     1       3.558   2.985  19.494  0.00  0.00    +0.000 A 
ATOM     12  C   UNL     1       3.240   2.650  20.813  0.00  0.00    +0.000 A 
ATOM     13  C   UNL     1       2.231   3.341  21.484  0.00  0.00    +0.000 A 
ATOM     14  F   UNL     1       1.921   3.001  22.741  0.00  0.00    +0.000 F 
ATOM     15  C   UNL     1       1.574   4.411  20.893  0.00  0.00    +0.000 A 
ATOM     16  C   UNL     1       1.991   4.830  19.634  0.00  0.00    +0.000 A 
BRANCH   9  17
ATOM     17  C   UNL     1       4.320   4.692  16.828  0.00  0.00    +0.000 A 
ATOM     18  C   UNL     1       5.060   5.882  16.946  0.00  0.00    +0.000 A 
ATOM     19  C   UNL     1       6.263   6.038  16.252  0.00  0.00    +0.000 A 
ATOM     20  C   UNL     1       6.736   5.010  15.444  0.00  0.00    +0.000 A 
ATOM     21  F   UNL     1       7.877   5.174  14.761  0.00  0.00    +0.000 F 
ATOM     22  C   UNL     1       6.036   3.819  15.326  0.00  0.00    +0.000 A 
ATOM     23  C   UNL     1       4.832   3.660  16.017  0.00  0.00    +0.000 A 
ENDBRANCH   9  17
ENDBRANCH   4   7
BRANCH   1  24
ATOM     24  C   UNL     1       1.240  10.958  19.839  0.00  0.00    +0.000 C 
BRANCH  24  25
ATOM     25  C   UNL     1       0.270  12.122  20.107  0.00  0.00    +0.000 C 
BRANCH  25  29
ATOM     26  N   UNL     1       1.661  15.392  19.326  0.00  0.00    +0.000 N 
ATOM     27  C   UNL     1       2.812  14.805  19.984  0.00  0.00    +0.000 C 
ATOM     28  C   UNL     1       2.220  13.635  20.758  0.00  0.00    +0.000 C 
ATOM     29  N   UNL     1       0.972  13.391  20.075  0.00  0.00    +0.000 N 
ATOM     30  C   UNL     1       0.644  14.435  19.218  0.00  0.00    +0.000 C 
ATOM     31  O   UNL     1      -0.328  14.485  18.483  0.00  0.00    +0.000 OA
BRANCH  26  33
ATOM     32  C   UNL     1       1.593  17.857  19.205  0.00  0.00    +0.000 C 
ATOM     33  C   UNL     1       1.742  16.549  18.432  0.00  0.00    +0.000 C 
ATOM     34  C   UNL     1       3.023  16.536  17.599  0.00  0.00    +0.000 C 
ENDBRANCH  26  33
ENDBRANCH  25  29
ENDBRANCH  24  25
ENDBRANCH   1  24
TORSDOF 6
ENDMDL
MODEL 7
REMARK VINA RESULT:      -7.2      4.133     10.599
REMARK  Name = 
REMARK  8 active torsions:
REMARK  status: ('A' for Active; 'I' for Inactive)
REMARK    1  A    between atoms: C_1  and  C_2
REMARK    2  A    between atoms: C_2  and  C_3
REMARK    3  A    between atoms: C_2  and  N_4
REMARK    4  A    between atoms: N_7  and  C_8
REMARK    5  A    between atoms: C_8  and  C_9
REMARK    6  A    between atoms: C_9  and  N_10
REMARK    7  A    between atoms: N_13  and  C_14
REMARK    8  A    between atoms: C_16  and  C_17
REMARK                            x       y       z     vdW  Elec       q    Type
REMARK                         _______ _______ _______ _____ _____    ______ ____
ROOT
ATOM      1  N   UNL     1       1.663   9.776  17.615  0.00  0.00    +0.000 NA
ATOM      2  C   UNL     1       0.283   9.521  18.092  0.00  0.00    +0.000 C 
ATOM      3  C   UNL     1      -0.101  10.119  19.471  0.00  0.00    +0.000 C 
ATOM      4  N   UNL     1       0.247  11.546  19.670  0.00  0.00    +0.000 NA
ATOM      5  C   UNL     1       1.682  11.662  19.311  0.00  0.00    +0.000 C 
ATOM      6  C   UNL     1       2.009  11.191  17.872  0.00  0.00    +0.000 C 
ENDROOT
BRANCH   4   7
ATOM      7  C   UNL     1      -0.636  12.488  18.930  0.00  0.00    +0.000 C 
ATOM      8  C   UNL     1      -2.140  12.343  19.320  0.00  0.00    +0.000 C 
ATOM      9  C   UNL     1      -2.562  13.524  20.230  0.00  0.00    +0.000 C 
ATOM     10  C   UNL     1      -1.340  14.394  20.247  0.00  0.00    +0.000 A 
ATOM     11  C   UNL     1      -1.142  15.582  20.940  0.00  0.00    +0.000 A 
ATOM     12  C   UNL     1       0.019  16.318  20.687  0.00  0.00    +0.000 A 
ATOM     13  C   UNL     1       0.905  15.903  19.693  0.00  0.00    +0.000 A 
ATOM     14  F   UNL     1       2.005  16.625  19.445  0.00  0.00    +0.000 F 
ATOM     15  C   UNL     1       0.696  14.727  18.986  0.00  0.00    +0.000 A 
ATOM     16  C   UNL     1      -0.385  13.926  19.340  0.00  0.00    +0.000 A 
BRANCH   9  17
ATOM     17  C   UNL     1      -3.174  13.112  21.548  0.00  0.00    +0.000 A 
ATOM     18  C   UNL     1      -4.469  13.510  21.926  0.00  0.00    +0.000 A 
ATOM     19  C   UNL     1      -4.965  13.188  23.193  0.00  0.00    +0.000 A 
ATOM     20  C   UNL     1      -4.178  12.466  24.083  0.00  0.00    +0.000 A 
ATOM     21  F   UNL     1      -4.649  12.181  25.305  0.00  0.00    +0.000 F 
ATOM     22  C   UNL     1      -2.906  12.045  23.727  0.00  0.00    +0.000 A 
ATOM     23  C   UNL     1      -2.406  12.366  22.463  0.00  0.00    +0.000 A 
ENDBRANCH   9  17
ENDBRANCH   4   7
BRANCH   1  24
ATOM     24  C   UNL     1       2.672   8.900  18.241  0.00  0.00    +0.000 C 
BRANCH  24  25
ATOM     25  C   UNL     1       2.757   7.472  17.672  0.00  0.00    +0.000 C 
BRANCH  25  29
ATOM     26  N   UNL     1       2.279   4.507  19.727  0.00  0.00    +0.000 N 
ATOM     27  C   UNL     1       1.678   5.493  20.604  0.00  0.00    +0.000 C 
ATOM     28  C   UNL     1       2.226   6.815  20.081  0.00  0.00    +0.000 C 
ATOM     29  N   UNL     1       2.623   6.490  18.732  0.00  0.00    +0.000 N 
ATOM     30  C   UNL     1       2.648   5.116  18.520  0.00  0.00    +0.000 C 
ATOM     31  O   UNL     1       2.905   4.553  17.470  0.00  0.00    +0.000 OA
BRANCH  26  33
ATOM     32  C   UNL     1       1.825   2.645  21.281  0.00  0.00    +0.000 C 
ATOM     33  C   UNL     1       2.020   3.070  19.828  0.00  0.00    +0.000 C 
ATOM     34  C   UNL     1       0.841   2.640  18.958  0.00  0.00    +0.000 C 
ENDBRANCH  26  33
ENDBRANCH  25  29
ENDBRANCH  24  25
ENDBRANCH   1  24
TORSDOF 6
ENDMDL
MODEL 8
REMARK VINA RESULT:      -7.2      3.411      6.668
REMARK  Name = 
REMARK  8 active torsions:
REMARK  status: ('A' for Active; 'I' for Inactive)
REMARK    1  A    between atoms: C_1  and  C_2
REMARK    2  A    between atoms: C_2  and  C_3
REMARK    3  A    between atoms: C_2  and  N_4
REMARK    4  A    between atoms: N_7  and  C_8
REMARK    5  A    between atoms: C_8  and  C_9
REMARK    6  A    between atoms: C_9  and  N_10
REMARK    7  A    between atoms: N_13  and  C_14
REMARK    8  A    between atoms: C_16  and  C_17
REMARK                            x       y       z     vdW  Elec       q    Type
REMARK                         _______ _______ _______ _____ _____    ______ ____
ROOT
ATOM      1  N   UNL     1      -1.710  14.182  22.796  0.00  0.00    +0.000 NA
ATOM      2  C   UNL     1      -0.487  13.389  22.525  0.00  0.00    +0.000 C 
ATOM      3  C   UNL     1      -0.694  11.942  22.008  0.00  0.00    +0.000 C 
ATOM      4  N   UNL     1      -1.651  11.794  20.886  0.00  0.00    +0.000 NA
ATOM      5  C   UNL     1      -2.887  12.490  21.319  0.00  0.00    +0.000 C 
ATOM      6  C   UNL     1      -2.672  13.978  21.691  0.00  0.00    +0.000 C 
ENDROOT
BRANCH   4   7
ATOM      7  C   UNL     1      -1.121  12.267  19.578  0.00  0.00    +0.000 C 
ATOM      8  C   UNL     1       0.358  11.836  19.331  0.00  0.00    +0.000 C 
ATOM      9  C   UNL     1       0.402  10.674  18.307  0.00  0.00    +0.000 C 
ATOM     10  C   UNL     1      -1.032  10.539  17.884  0.00  0.00    +0.000 A 
ATOM     11  C   UNL     1      -1.583   9.621  16.998  0.00  0.00    +0.000 A 
ATOM     12  C   UNL     1      -2.921   9.775  16.622  0.00  0.00    +0.000 A 
ATOM     13  C   UNL     1      -3.646  10.881  17.064  0.00  0.00    +0.000 A 
ATOM     14  F   UNL     1      -4.921  11.030  16.683  0.00  0.00    +0.000 F 
ATOM     15  C   UNL     1      -3.089  11.809  17.933  0.00  0.00    +0.000 A 
ATOM     16  C   UNL     1      -1.805  11.576  18.415  0.00  0.00    +0.000 A 
BRANCH   9  17
ATOM     17  C   UNL     1       1.132   9.442  18.786  0.00  0.00    +0.000 A 
ATOM     18  C   UNL     1       1.820   8.591  17.902  0.00  0.00    +0.000 A 
ATOM     19  C   UNL     1       2.405   7.411  18.370  0.00  0.00    +0.000 A 
ATOM     20  C   UNL     1       2.312   7.077  19.716  0.00  0.00    +0.000 A 
ATOM     21  F   UNL     1       2.854   5.932  20.155  0.00  0.00    +0.000 F 
ATOM     22  C   UNL     1       1.658   7.908  20.612  0.00  0.00    +0.000 A 
ATOM     23  C   UNL     1       1.070   9.088  20.148  0.00  0.00    +0.000 A 
ENDBRANCH   9  17
ENDBRANCH   4   7
BRANCH   1  24
ATOM     24  C   UNL     1      -2.355  13.849  24.080  0.00  0.00    +0.000 C 
BRANCH  24  25
ATOM     25  C   UNL     1      -3.263  14.941  24.672  0.00  0.00    +0.000 C 
BRANCH  25  29
ATOM     26  N   UNL     1      -6.389  14.096  23.012  0.00  0.00    +0.000 N 
ATOM     27  C   UNL     1      -6.173  15.409  22.437  0.00  0.00    +0.000 C 
ATOM     28  C   UNL     1      -5.169  16.051  23.386  0.00  0.00    +0.000 C 
ATOM     29  N   UNL     1      -4.572  14.914  24.044  0.00  0.00    +0.000 N 
ATOM     30  C   UNL     1      -5.295  13.750  23.815  0.00  0.00    +0.000 C 
ATOM     31  O   UNL     1      -5.006  12.633  24.210  0.00  0.00    +0.000 OA
BRANCH  26  33
ATOM     32  C   UNL     1      -6.567  12.322  21.305  0.00  0.00    +0.000 C 
ATOM     33  C   UNL     1      -7.272  13.089  22.421  0.00  0.00    +0.000 C 
ATOM     34  C   UNL     1      -7.842  12.141  23.474  0.00  0.00    +0.000 C 
ENDBRANCH  26  33
ENDBRANCH  25  29
ENDBRANCH  24  25
ENDBRANCH   1  24
TORSDOF 6
ENDMDL
MODEL 9
REMARK VINA RESULT:      -7.1      3.892      9.818
REMARK  Name = 
REMARK  8 active torsions:
REMARK  status: ('A' for Active; 'I' for Inactive)
REMARK    1  A    between atoms: C_1  and  C_2
REMARK    2  A    between atoms: C_2  and  C_3
REMARK    3  A    between atoms: C_2  and  N_4
REMARK    4  A    between atoms: N_7  and  C_8
REMARK    5  A    between atoms: C_8  and  C_9
REMARK    6  A    between atoms: C_9  and  N_10
REMARK    7  A    between atoms: N_13  and  C_14
REMARK    8  A    between atoms: C_16  and  C_17
REMARK                            x       y       z     vdW  Elec       q    Type
REMARK                         _______ _______ _______ _____ _____    ______ ____
ROOT
ATOM      1  N   UNL     1       1.828   8.653  20.596  0.00  0.00    +0.000 NA
ATOM      2  C   UNL     1       0.746   9.155  19.716  0.00  0.00    +0.000 C 
ATOM      3  C   UNL     1      -0.680   9.206  20.323  0.00  0.00    +0.000 C 
ATOM      4  N   UNL     1      -0.784   9.834  21.662  0.00  0.00    +0.000 NA
ATOM      5  C   UNL     1       0.234   9.158  22.503  0.00  0.00    +0.000 C 
ATOM      6  C   UNL     1       1.674   9.251  21.941  0.00  0.00    +0.000 C 
ENDROOT
BRANCH   4   7
ATOM      7  C   UNL     1      -0.657  11.318  21.641  0.00  0.00    +0.000 C 
ATOM      8  C   UNL     1      -0.627  11.903  20.194  0.00  0.00    +0.000 C 
ATOM      9  C   UNL     1      -1.990  12.563  19.867  0.00  0.00    +0.000 C 
ATOM     10  C   UNL     1      -2.737  12.462  21.164  0.00  0.00    +0.000 A 
ATOM     11  C   UNL     1      -4.037  12.869  21.440  0.00  0.00    +0.000 A 
ATOM     12  C   UNL     1      -4.484  12.828  22.764  0.00  0.00    +0.000 A 
ATOM     13  C   UNL     1      -3.604  12.473  23.786  0.00  0.00    +0.000 A 
ATOM     14  F   UNL     1      -4.036  12.455  25.053  0.00  0.00    +0.000 F 
ATOM     15  C   UNL     1      -2.299  12.086  23.512  0.00  0.00    +0.000 A 
ATOM     16  C   UNL     1      -1.903  11.992  22.182  0.00  0.00    +0.000 A 
BRANCH   9  17
ATOM     17  C   UNL     1      -2.651  12.047  18.611  0.00  0.00    +0.000 A 
ATOM     18  C   UNL     1      -4.048  11.928  18.497  0.00  0.00    +0.000 A 
ATOM     19  C   UNL     1      -4.618  11.359  17.354  0.00  0.00    +0.000 A 
ATOM     20  C   UNL     1      -3.801  10.911  16.322  0.00  0.00    +0.000 A 
ATOM     21  F   UNL     1      -4.351  10.344  15.239  0.00  0.00    +0.000 F 
ATOM     22  C   UNL     1      -2.423  11.035  16.400  0.00  0.00    +0.000 A 
ATOM     23  C   UNL     1      -1.849  11.602  17.542  0.00  0.00    +0.000 A 
ENDBRANCH   9  17
ENDBRANCH   4   7
BRANCH   1  24
ATOM     24  C   UNL     1       1.858   7.182  20.710  0.00  0.00    +0.000 C 
BRANCH  24  25
ATOM     25  C   UNL     1       2.002   6.415  19.384  0.00  0.00    +0.000 C 
BRANCH  25  29
ATOM     26  N   UNL     1       5.353   5.785  18.116  0.00  0.00    +0.000 N 
ATOM     27  C   UNL     1       5.167   4.568  18.883  0.00  0.00    +0.000 C 
ATOM     28  C   UNL     1       4.020   4.915  19.824  0.00  0.00    +0.000 C 
ATOM     29  N   UNL     1       3.383   6.028  19.163  0.00  0.00    +0.000 N 
ATOM     30  C   UNL     1       4.175   6.541  18.142  0.00  0.00    +0.000 C 
ATOM     31  O   UNL     1       3.878   7.453  17.388  0.00  0.00    +0.000 OA
BRANCH  26  33
ATOM     32  C   UNL     1       7.363   7.014  17.379  0.00  0.00    +0.000 C 
ATOM     33  C   UNL     1       6.346   5.924  17.049  0.00  0.00    +0.000 C 
ATOM     34  C   UNL     1       7.034   4.597  16.734  0.00  0.00    +0.000 C 
ENDBRANCH  26  33
ENDBRANCH  25  29
ENDBRANCH  24  25
ENDBRANCH   1  24
TORSDOF 6
ENDMDL
