MODEL 1
REMARK VINA RESULT:      -9.3      0.000      0.000
REMARK  Name = 
REMARK  2 active torsions:
REMARK  status: ('A' for Active; 'I' for Inactive)
REMARK    1  A    between atoms: C_4  and  C_5
REMARK    2  A    between atoms: C_17  and  C_18
REMARK                            x       y       z     vdW  Elec       q    Type
REMARK                         _______ _______ _______ _____ _____    ______ ____
ROOT
ATOM      1  O   UNL     1       7.881   6.621  17.019  0.00  0.00    +0.000 OA
ATOM      2  C   UNL     1       7.057   5.824  16.588  0.00  0.00    +0.000 A 
ATOM      3  C   UNL     1       5.951   5.269  17.413  0.00  0.00    +0.000 A 
ATOM      4  C   UNL     1       5.086   4.405  16.850  0.00  0.00    +0.000 A 
ATOM      5  N   UNL     1       5.187   3.984  15.545  0.00  0.00    +0.000 N 
ATOM      6  C   UNL     1       6.169   4.451  14.732  0.00  0.00    +0.000 A 
ATOM      7  C   UNL     1       6.514   4.257  13.412  0.00  0.00    +0.000 A 
ATOM      8  C   UNL     1       7.611   5.136  13.223  0.00  0.00    +0.000 A 
ATOM      9  N   UNL     1       7.963   5.794  14.330  0.00  0.00    +0.000 NA
ATOM     10  N   UNL     1       7.072   5.360  15.259  0.00  0.00    +0.000 N 
ATOM     11  H   UNL     1       4.445   3.373  15.209  0.00  0.00    +0.000 HD
ENDROOT
BRANCH   4  12
ATOM     12  C   UNL     1       3.966   3.901  17.645  0.00  0.00    +0.000 A 
ATOM     13  C   UNL     1       2.651   4.101  17.201  0.00  0.00    +0.000 A 
ATOM     14  C   UNL     1       1.575   3.774  18.027  0.00  0.00    +0.000 A 
ATOM     15  C   UNL     1       1.813   3.262  19.302  0.00  0.00    +0.000 A 
ATOM     16  C   UNL     1       3.119   2.987  19.707  0.00  0.00    +0.000 A 
ATOM     17  C   UNL     1       4.197   3.291  18.882  0.00  0.00    +0.000 A 
ATOM     18  O   UNL     1       3.402   2.453  20.934  0.00  0.00    +0.000 OA
ATOM     19  C   UNL     1       2.473   2.981  21.881  0.00  0.00    +0.000 C 
ATOM     20  C   UNL     1       1.030   2.735  21.457  0.00  0.00    +0.000 C 
ATOM     21  O   UNL     1       0.722   3.111  20.110  0.00  0.00    +0.000 OA
ENDBRANCH   4  12
BRANCH   7  22
ATOM     22  C   UNL     1       5.828   3.394  12.469  0.00  0.00    +0.000 A 
ATOM     23  C   UNL     1       4.572   3.738  11.938  0.00  0.00    +0.000 A 
ATOM     24  C   UNL     1       3.937   2.912  11.006  0.00  0.00    +0.000 A 
ATOM     25  C   UNL     1       4.543   1.723  10.612  0.00  0.00    +0.000 A 
ATOM     26  C   UNL     1       5.770   1.367  11.157  0.00  0.00    +0.000 A 
ATOM     27  F   UNL     1       6.349   0.216  10.787  0.00  0.00    +0.000 F 
ATOM     28  C   UNL     1       6.417   2.188  12.076  0.00  0.00    +0.000 A 
ENDBRANCH   7  22
TORSDOF 2
ENDMDL
MODEL 2
REMARK VINA RESULT:      -9.3      4.676      6.462
REMARK  Name = 
REMARK  2 active torsions:
REMARK  status: ('A' for Active; 'I' for Inactive)
REMARK    1  A    between atoms: C_4  and  C_5
REMARK    2  A    between atoms: C_17  and  C_18
REMARK                            x       y       z     vdW  Elec       q    Type
REMARK                         _______ _______ _______ _____ _____    ______ ____
ROOT
ATOM      1  O   UNL     1       1.899   3.655  21.946  0.00  0.00    +0.000 OA
ATOM      2  C   UNL     1       2.289   4.315  20.991  0.00  0.00    +0.000 A 
ATOM      3  C   UNL     1       1.783   5.680  20.682  0.00  0.00    +0.000 A 
ATOM      4  C   UNL     1       2.279   6.334  19.616  0.00  0.00    +0.000 A 
ATOM      5  N   UNL     1       3.222   5.792  18.774  0.00  0.00    +0.000 N 
ATOM      6  C   UNL     1       3.732   4.555  18.996  0.00  0.00    +0.000 A 
ATOM      7  C   UNL     1       4.679   3.766  18.379  0.00  0.00    +0.000 A 
ATOM      8  C   UNL     1       4.753   2.621  19.212  0.00  0.00    +0.000 A 
ATOM      9  N   UNL     1       3.900   2.654  20.239  0.00  0.00    +0.000 NA
ATOM     10  N   UNL     1       3.269   3.849  20.095  0.00  0.00    +0.000 N 
ATOM     11  H   UNL     1       3.567   6.399  18.032  0.00  0.00    +0.000 HD
ENDROOT
BRANCH   4  12
ATOM     12  C   UNL     1       1.822   7.697  19.342  0.00  0.00    +0.000 A 
ATOM     13  C   UNL     1       2.104   8.290  18.104  0.00  0.00    +0.000 A 
ATOM     14  C   UNL     1       1.821   9.640  17.892  0.00  0.00    +0.000 A 
ATOM     15  C   UNL     1       1.271  10.400  18.923  0.00  0.00    +0.000 A 
ATOM     16  C   UNL     1       0.915   9.787  20.124  0.00  0.00    +0.000 A 
ATOM     17  C   UNL     1       1.176   8.437  20.336  0.00  0.00    +0.000 A 
ATOM     18  O   UNL     1       0.342  10.483  21.154  0.00  0.00    +0.000 OA
ATOM     19  C   UNL     1       0.902  11.796  21.178  0.00  0.00    +0.000 C 
ATOM     20  C   UNL     1       0.745  12.503  19.838  0.00  0.00    +0.000 C 
ATOM     21  O   UNL     1       1.164  11.743  18.698  0.00  0.00    +0.000 OA
ENDBRANCH   4  12
BRANCH   7  22
ATOM     22  C   UNL     1       5.439   4.117  17.194  0.00  0.00    +0.000 A 
ATOM     23  C   UNL     1       6.757   4.599  17.282  0.00  0.00    +0.000 A 
ATOM     24  C   UNL     1       7.489   4.903  16.130  0.00  0.00    +0.000 A 
ATOM     25  C   UNL     1       6.900   4.747  14.878  0.00  0.00    +0.000 A 
ATOM     26  C   UNL     1       5.589   4.298  14.790  0.00  0.00    +0.000 A 
ATOM     27  F   UNL     1       5.018   4.159  13.585  0.00  0.00    +0.000 F 
ATOM     28  C   UNL     1       4.856   3.981  15.929  0.00  0.00    +0.000 A 
ENDBRANCH   7  22
TORSDOF 2
ENDMDL
MODEL 3
REMARK VINA RESULT:      -9.3      0.876      1.274
REMARK  Name = 
REMARK  2 active torsions:
REMARK  status: ('A' for Active; 'I' for Inactive)
REMARK    1  A    between atoms: C_4  and  C_5
REMARK    2  A    between atoms: C_17  and  C_18
REMARK                            x       y       z     vdW  Elec       q    Type
REMARK                         _______ _______ _______ _____ _____    ______ ____
ROOT
ATOM      1  O   UNL     1       7.840   6.719  16.955  0.00  0.00    +0.000 OA
ATOM      2  C   UNL     1       7.055   5.883  16.525  0.00  0.00    +0.000 A 
ATOM      3  C   UNL     1       5.956   5.300  17.341  0.00  0.00    +0.000 A 
ATOM      4  C   UNL     1       5.135   4.394  16.779  0.00  0.00    +0.000 A 
ATOM      5  N   UNL     1       5.275   3.956  15.483  0.00  0.00    +0.000 N 
ATOM      6  C   UNL     1       6.252   4.446  14.678  0.00  0.00    +0.000 A 
ATOM      7  C   UNL     1       6.628   4.243  13.368  0.00  0.00    +0.000 A 
ATOM      8  C   UNL     1       7.693   5.160  13.182  0.00  0.00    +0.000 A 
ATOM      9  N   UNL     1       8.001   5.850  14.283  0.00  0.00    +0.000 NA
ATOM     10  N   UNL     1       7.110   5.398  15.205  0.00  0.00    +0.000 N 
ATOM     11  H   UNL     1       4.563   3.310  15.145  0.00  0.00    +0.000 HD
ENDROOT
BRANCH   4  12
ATOM     12  C   UNL     1       4.021   3.861  17.564  0.00  0.00    +0.000 A 
ATOM     13  C   UNL     1       2.711   3.976  17.080  0.00  0.00    +0.000 A 
ATOM     14  C   UNL     1       1.631   3.623  17.890  0.00  0.00    +0.000 A 
ATOM     15  C   UNL     1       1.860   3.170  19.188  0.00  0.00    +0.000 A 
ATOM     16  C   UNL     1       3.167   2.978  19.636  0.00  0.00    +0.000 A 
ATOM     17  C   UNL     1       4.250   3.309  18.828  0.00  0.00    +0.000 A 
ATOM     18  O   UNL     1       3.444   2.505  20.889  0.00  0.00    +0.000 OA
ATOM     19  C   UNL     1       2.464   3.017  21.792  0.00  0.00    +0.000 C 
ATOM     20  C   UNL     1       1.048   2.680  21.342  0.00  0.00    +0.000 C 
ATOM     21  O   UNL     1       0.757   2.991  19.974  0.00  0.00    +0.000 OA
ENDBRANCH   4  12
BRANCH   7  22
ATOM     22  C   UNL     1       5.991   3.338  12.429  0.00  0.00    +0.000 A 
ATOM     23  C   UNL     1       6.648   2.188  11.957  0.00  0.00    +0.000 A 
ATOM     24  C   UNL     1       6.010   1.308  11.077  0.00  0.00    +0.000 A 
ATOM     25  C   UNL     1       4.716   1.582  10.645  0.00  0.00    +0.000 A 
ATOM     26  C   UNL     1       4.075   2.733  11.089  0.00  0.00    +0.000 A 
ATOM     27  F   UNL     1       2.833   3.002  10.664  0.00  0.00    +0.000 F 
ATOM     28  C   UNL     1       4.696   3.609  11.974  0.00  0.00    +0.000 A 
ENDBRANCH   7  22
TORSDOF 2
ENDMDL
MODEL 4
REMARK VINA RESULT:      -8.8      4.806      6.801
REMARK  Name = 
REMARK  2 active torsions:
REMARK  status: ('A' for Active; 'I' for Inactive)
REMARK    1  A    between atoms: C_4  and  C_5
REMARK    2  A    between atoms: C_17  and  C_18
REMARK                            x       y       z     vdW  Elec       q    Type
REMARK                         _______ _______ _______ _____ _____    ______ ____
ROOT
ATOM      1  O   UNL     1       1.157   2.789  21.319  0.00  0.00    +0.000 OA
ATOM      2  C   UNL     1       1.703   3.674  20.674  0.00  0.00    +0.000 A 
ATOM      3  C   UNL     1       1.379   5.118  20.832  0.00  0.00    +0.000 A 
ATOM      4  C   UNL     1       2.040   6.022  20.086  0.00  0.00    +0.000 A 
ATOM      5  N   UNL     1       2.992   5.676  19.156  0.00  0.00    +0.000 N 
ATOM      6  C   UNL     1       3.342   4.379  18.960  0.00  0.00    +0.000 A 
ATOM      7  C   UNL     1       4.251   3.727  18.155  0.00  0.00    +0.000 A 
ATOM      8  C   UNL     1       4.123   2.369  18.542  0.00  0.00    +0.000 A 
ATOM      9  N   UNL     1       3.187   2.166  19.473  0.00  0.00    +0.000 NA
ATOM     10  N   UNL     1       2.705   3.412  19.721  0.00  0.00    +0.000 N 
ATOM     11  H   UNL     1       3.468   6.446  18.689  0.00  0.00    +0.000 HD
ENDROOT
BRANCH   4  12
ATOM     12  C   UNL     1       1.760   7.445  20.280  0.00  0.00    +0.000 A 
ATOM     13  C   UNL     1       1.544   7.942  21.573  0.00  0.00    +0.000 A 
ATOM     14  C   UNL     1       1.114   9.257  21.755  0.00  0.00    +0.000 A 
ATOM     15  C   UNL     1       0.885  10.069  20.646  0.00  0.00    +0.000 A 
ATOM     16  C   UNL     1       1.181   9.597  19.367  0.00  0.00    +0.000 A 
ATOM     17  C   UNL     1       1.629   8.294  19.177  0.00  0.00    +0.000 A 
ATOM     18  O   UNL     1       1.006  10.367  18.250  0.00  0.00    +0.000 OA
ATOM     19  C   UNL     1      -0.147  11.187  18.443  0.00  0.00    +0.000 C 
ATOM     20  C   UNL     1      -0.043  12.020  19.714  0.00  0.00    +0.000 C 
ATOM     21  O   UNL     1       0.320  11.288  20.891  0.00  0.00    +0.000 OA
ENDBRANCH   4  12
BRANCH   7  22
ATOM     22  C   UNL     1       5.151   4.353  17.205  0.00  0.00    +0.000 A 
ATOM     23  C   UNL     1       5.124   4.021  15.839  0.00  0.00    +0.000 A 
ATOM     24  C   UNL     1       5.975   4.655  14.929  0.00  0.00    +0.000 A 
ATOM     25  C   UNL     1       6.877   5.614  15.382  0.00  0.00    +0.000 A 
ATOM     26  C   UNL     1       6.925   5.923  16.735  0.00  0.00    +0.000 A 
ATOM     27  F   UNL     1       7.801   6.838  17.173  0.00  0.00    +0.000 F 
ATOM     28  C   UNL     1       6.074   5.307  17.647  0.00  0.00    +0.000 A 
ENDBRANCH   7  22
TORSDOF 2
ENDMDL
MODEL 5
REMARK VINA RESULT:      -8.8      4.909      6.709
REMARK  Name = 
REMARK  2 active torsions:
REMARK  status: ('A' for Active; 'I' for Inactive)
REMARK    1  A    between atoms: C_4  and  C_5
REMARK    2  A    between atoms: C_17  and  C_18
REMARK                            x       y       z     vdW  Elec       q    Type
REMARK                         _______ _______ _______ _____ _____    ______ ____
ROOT
ATOM      1  O   UNL     1       1.747   3.496  22.011  0.00  0.00    +0.000 OA
ATOM      2  C   UNL     1       2.157   4.205  21.101  0.00  0.00    +0.000 A 
ATOM      3  C   UNL     1       1.633   5.572  20.832  0.00  0.00    +0.000 A 
ATOM      4  C   UNL     1       2.153   6.283  19.814  0.00  0.00    +0.000 A 
ATOM      5  N   UNL     1       3.135   5.797  18.984  0.00  0.00    +0.000 N 
ATOM      6  C   UNL     1       3.663   4.561  19.171  0.00  0.00    +0.000 A 
ATOM      7  C   UNL     1       4.647   3.818  18.554  0.00  0.00    +0.000 A 
ATOM      8  C   UNL     1       4.716   2.640  19.339  0.00  0.00    +0.000 A 
ATOM      9  N   UNL     1       3.828   2.611  20.335  0.00  0.00    +0.000 NA
ATOM     10  N   UNL     1       3.177   3.798  20.220  0.00  0.00    +0.000 N 
ATOM     11  H   UNL     1       3.493   6.442  18.282  0.00  0.00    +0.000 HD
ENDROOT
BRANCH   4  12
ATOM     12  C   UNL     1       1.676   7.647  19.584  0.00  0.00    +0.000 A 
ATOM     13  C   UNL     1       2.007   8.307  18.392  0.00  0.00    +0.000 A 
ATOM     14  C   UNL     1       1.702   9.659  18.233  0.00  0.00    +0.000 A 
ATOM     15  C   UNL     1       1.081  10.354  19.269  0.00  0.00    +0.000 A 
ATOM     16  C   UNL     1       0.679   9.674  20.418  0.00  0.00    +0.000 A 
ATOM     17  C   UNL     1       0.961   8.322  20.577  0.00  0.00    +0.000 A 
ATOM     18  O   UNL     1       0.036  10.304  21.448  0.00  0.00    +0.000 OA
ATOM     19  C   UNL     1       0.561  11.627  21.567  0.00  0.00    +0.000 C 
ATOM     20  C   UNL     1       0.456  12.397  20.256  0.00  0.00    +0.000 C 
ATOM     21  O   UNL     1       0.952  11.705  19.105  0.00  0.00    +0.000 OA
ENDBRANCH   4  12
BRANCH   7  22
ATOM     22  C   UNL     1       5.440   4.236  17.413  0.00  0.00    +0.000 A 
ATOM     23  C   UNL     1       5.367   3.563  16.181  0.00  0.00    +0.000 A 
ATOM     24  C   UNL     1       6.113   3.995  15.081  0.00  0.00    +0.000 A 
ATOM     25  C   UNL     1       6.957   5.095  15.209  0.00  0.00    +0.000 A 
ATOM     26  C   UNL     1       7.052   5.745  16.433  0.00  0.00    +0.000 A 
ATOM     27  F   UNL     1       7.873   6.797  16.560  0.00  0.00    +0.000 F 
ATOM     28  C   UNL     1       6.305   5.330  17.531  0.00  0.00    +0.000 A 
ENDBRANCH   7  22
TORSDOF 2
ENDMDL
MODEL 6
REMARK VINA RESULT:      -8.7      4.554      6.635
REMARK  Name = 
REMARK  2 active torsions:
REMARK  status: ('A' for Active; 'I' for Inactive)
REMARK    1  A    between atoms: C_4  and  C_5
REMARK    2  A    between atoms: C_17  and  C_18
REMARK                            x       y       z     vdW  Elec       q    Type
REMARK                         _______ _______ _______ _____ _____    ______ ____
ROOT
ATOM      1  O   UNL     1       1.664   2.970  21.954  0.00  0.00    +0.000 OA
ATOM      2  C   UNL     1       2.096   3.800  21.164  0.00  0.00    +0.000 A 
ATOM      3  C   UNL     1       1.663   5.224  21.160  0.00  0.00    +0.000 A 
ATOM      4  C   UNL     1       2.202   6.067  20.260  0.00  0.00    +0.000 A 
ATOM      5  N   UNL     1       3.123   5.672  19.318  0.00  0.00    +0.000 N 
ATOM      6  C   UNL     1       3.566   4.391  19.265  0.00  0.00    +0.000 A 
ATOM      7  C   UNL     1       4.476   3.706  18.488  0.00  0.00    +0.000 A 
ATOM      8  C   UNL     1       4.484   2.406  19.052  0.00  0.00    +0.000 A 
ATOM      9  N   UNL     1       3.625   2.260  20.064  0.00  0.00    +0.000 NA
ATOM     10  N   UNL     1       3.057   3.489  20.185  0.00  0.00    +0.000 N 
ATOM     11  H   UNL     1       3.504   6.407  18.724  0.00  0.00    +0.000 HD
ENDROOT
BRANCH   4  12
ATOM     12  C   UNL     1       1.818   7.479  20.289  0.00  0.00    +0.000 A 
ATOM     13  C   UNL     1       1.539   8.099  21.516  0.00  0.00    +0.000 A 
ATOM     14  C   UNL     1       1.013   9.391  21.544  0.00  0.00    +0.000 A 
ATOM     15  C   UNL     1       0.751  10.057  20.348  0.00  0.00    +0.000 A 
ATOM     16  C   UNL     1       1.107   9.469  19.134  0.00  0.00    +0.000 A 
ATOM     17  C   UNL     1       1.650   8.189  19.097  0.00  0.00    +0.000 A 
ATOM     18  O   UNL     1       0.901  10.096  17.935  0.00  0.00    +0.000 OA
ATOM     19  C   UNL     1      -0.311  10.846  18.020  0.00  0.00    +0.000 C 
ATOM     20  C   UNL     1      -0.293  11.820  19.192  0.00  0.00    +0.000 C 
ATOM     21  O   UNL     1       0.096  11.251  20.447  0.00  0.00    +0.000 OA
ENDBRANCH   4  12
BRANCH   7  22
ATOM     22  C   UNL     1       5.263   4.265  17.405  0.00  0.00    +0.000 A 
ATOM     23  C   UNL     1       6.396   5.059  17.654  0.00  0.00    +0.000 A 
ATOM     24  C   UNL     1       7.164   5.565  16.600  0.00  0.00    +0.000 A 
ATOM     25  C   UNL     1       6.792   5.298  15.286  0.00  0.00    +0.000 A 
ATOM     26  C   UNL     1       5.656   4.538  15.037  0.00  0.00    +0.000 A 
ATOM     27  F   UNL     1       5.291   4.291  13.771  0.00  0.00    +0.000 F 
ATOM     28  C   UNL     1       4.892   4.019  16.078  0.00  0.00    +0.000 A 
ENDBRANCH   7  22
TORSDOF 2
ENDMDL
MODEL 7
REMARK VINA RESULT:      -8.5      4.636      8.468
REMARK  Name = 
REMARK  2 active torsions:
REMARK  status: ('A' for Active; 'I' for Inactive)
REMARK    1  A    between atoms: C_4  and  C_5
REMARK    2  A    between atoms: C_17  and  C_18
REMARK                            x       y       z     vdW  Elec       q    Type
REMARK                         _______ _______ _______ _____ _____    ______ ____
ROOT
ATOM      1  O   UNL     1       3.630   2.150  20.563  0.00  0.00    +0.000 OA
ATOM      2  C   UNL     1       3.745   3.184  19.917  0.00  0.00    +0.000 A 
ATOM      3  C   UNL     1       4.724   3.348  18.808  0.00  0.00    +0.000 A 
ATOM      4  C   UNL     1       4.771   4.519  18.147  0.00  0.00    +0.000 A 
ATOM      5  N   UNL     1       3.972   5.593  18.463  0.00  0.00    +0.000 N 
ATOM      6  C   UNL     1       3.054   5.514  19.459  0.00  0.00    +0.000 A 
ATOM      7  C   UNL     1       2.111   6.371  19.985  0.00  0.00    +0.000 A 
ATOM      8  C   UNL     1       1.452   5.583  20.962  0.00  0.00    +0.000 A 
ATOM      9  N   UNL     1       1.958   4.353  21.083  0.00  0.00    +0.000 NA
ATOM     10  N   UNL     1       2.951   4.321  20.156  0.00  0.00    +0.000 N 
ATOM     11  H   UNL     1       4.054   6.409  17.860  0.00  0.00    +0.000 HD
ENDROOT
BRANCH   4  12
ATOM     12  C   UNL     1       5.696   4.663  17.022  0.00  0.00    +0.000 A 
ATOM     13  C   UNL     1       6.589   5.743  16.990  0.00  0.00    +0.000 A 
ATOM     14  C   UNL     1       7.356   5.984  15.849  0.00  0.00    +0.000 A 
ATOM     15  C   UNL     1       7.218   5.156  14.736  0.00  0.00    +0.000 A 
ATOM     16  C   UNL     1       6.389   4.036  14.802  0.00  0.00    +0.000 A 
ATOM     17  C   UNL     1       5.636   3.777  15.943  0.00  0.00    +0.000 A 
ATOM     18  O   UNL     1       6.245   3.175  13.749  0.00  0.00    +0.000 OA
ATOM     19  C   UNL     1       6.304   3.929  12.538  0.00  0.00    +0.000 C 
ATOM     20  C   UNL     1       7.583   4.753  12.447  0.00  0.00    +0.000 C 
ATOM     21  O   UNL     1       7.881   5.541  13.605  0.00  0.00    +0.000 OA
ENDBRANCH   4  12
BRANCH   7  22
ATOM     22  C   UNL     1       1.855   7.730  19.544  0.00  0.00    +0.000 A 
ATOM     23  C   UNL     1       2.217   8.166  18.258  0.00  0.00    +0.000 A 
ATOM     24  C   UNL     1       1.935   9.469  17.835  0.00  0.00    +0.000 A 
ATOM     25  C   UNL     1       1.306  10.355  18.705  0.00  0.00    +0.000 A 
ATOM     26  C   UNL     1       0.973   9.935  19.987  0.00  0.00    +0.000 A 
ATOM     27  F   UNL     1       0.377  10.791  20.828  0.00  0.00    +0.000 F 
ATOM     28  C   UNL     1       1.238   8.636  20.413  0.00  0.00    +0.000 A 
ENDBRANCH   7  22
TORSDOF 2
ENDMDL
MODEL 8
REMARK VINA RESULT:      -8.4      4.714      6.622
REMARK  Name = 
REMARK  2 active torsions:
REMARK  status: ('A' for Active; 'I' for Inactive)
REMARK    1  A    between atoms: C_4  and  C_5
REMARK    2  A    between atoms: C_17  and  C_18
REMARK                            x       y       z     vdW  Elec       q    Type
REMARK                         _______ _______ _______ _____ _____    ______ ____
ROOT
ATOM      1  O   UNL     1       1.893   2.919  21.965  0.00  0.00    +0.000 OA
ATOM      2  C   UNL     1       2.213   3.744  21.119  0.00  0.00    +0.000 A 
ATOM      3  C   UNL     1       1.784   5.168  21.165  0.00  0.00    +0.000 A 
ATOM      4  C   UNL     1       2.194   6.006  20.195  0.00  0.00    +0.000 A 
ATOM      5  N   UNL     1       2.977   5.604  19.138  0.00  0.00    +0.000 N 
ATOM      6  C   UNL     1       3.409   4.322  19.032  0.00  0.00    +0.000 A 
ATOM      7  C   UNL     1       4.203   3.632  18.142  0.00  0.00    +0.000 A 
ATOM      8  C   UNL     1       4.288   2.335  18.707  0.00  0.00    +0.000 A 
ATOM      9  N   UNL     1       3.577   2.196  19.828  0.00  0.00    +0.000 NA
ATOM     10  N   UNL     1       3.031   3.426  20.019  0.00  0.00    +0.000 N 
ATOM     11  H   UNL     1       3.273   6.335  18.493  0.00  0.00    +0.000 HD
ENDROOT
BRANCH   4  12
ATOM     12  C   UNL     1       1.818   7.418  20.269  0.00  0.00    +0.000 A 
ATOM     13  C   UNL     1       1.503   7.990  21.509  0.00  0.00    +0.000 A 
ATOM     14  C   UNL     1       0.984   9.284  21.573  0.00  0.00    +0.000 A 
ATOM     15  C   UNL     1       0.765   9.999  20.397  0.00  0.00    +0.000 A 
ATOM     16  C   UNL     1       1.157   9.458  19.172  0.00  0.00    +0.000 A 
ATOM     17  C   UNL     1       1.694   8.176  19.102  0.00  0.00    +0.000 A 
ATOM     18  O   UNL     1       0.994  10.133  17.993  0.00  0.00    +0.000 OA
ATOM     19  C   UNL     1      -0.215  10.888  18.069  0.00  0.00    +0.000 C 
ATOM     20  C   UNL     1      -0.230  11.815  19.279  0.00  0.00    +0.000 C 
ATOM     21  O   UNL     1       0.114  11.193  20.522  0.00  0.00    +0.000 OA
ENDBRANCH   4  12
BRANCH   7  22
ATOM     22  C   UNL     1       4.834   4.185  16.957  0.00  0.00    +0.000 A 
ATOM     23  C   UNL     1       5.700   3.416  16.160  0.00  0.00    +0.000 A 
ATOM     24  C   UNL     1       6.276   3.952  15.004  0.00  0.00    +0.000 A 
ATOM     25  C   UNL     1       6.007   5.269  14.646  0.00  0.00    +0.000 A 
ATOM     26  C   UNL     1       5.173   6.040  15.447  0.00  0.00    +0.000 A 
ATOM     27  F   UNL     1       4.922   7.312  15.109  0.00  0.00    +0.000 F 
ATOM     28  C   UNL     1       4.585   5.513  16.593  0.00  0.00    +0.000 A 
ENDBRANCH   7  22
TORSDOF 2
ENDMDL
MODEL 9
REMARK VINA RESULT:      -8.2      4.976      7.101
REMARK  Name = 
REMARK  2 active torsions:
REMARK  status: ('A' for Active; 'I' for Inactive)
REMARK    1  A    between atoms: C_4  and  C_5
REMARK    2  A    between atoms: C_17  and  C_18
REMARK                            x       y       z     vdW  Elec       q    Type
REMARK                         _______ _______ _______ _____ _____    ______ ____
ROOT
ATOM      1  O   UNL     1       1.317   2.612  21.408  0.00  0.00    +0.000 OA
ATOM      2  C   UNL     1       1.838   3.571  20.852  0.00  0.00    +0.000 A 
ATOM      3  C   UNL     1       1.239   4.933  20.843  0.00  0.00    +0.000 A 
ATOM      4  C   UNL     1       1.890   5.929  20.214  0.00  0.00    +0.000 A 
ATOM      5  N   UNL     1       3.081   5.746  19.551  0.00  0.00    +0.000 N 
ATOM      6  C   UNL     1       3.687   4.533  19.519  0.00  0.00    +0.000 A 
ATOM      7  C   UNL     1       4.859   4.043  18.985  0.00  0.00    +0.000 A 
ATOM      8  C   UNL     1       4.882   2.692  19.415  0.00  0.00    +0.000 A 
ATOM      9  N   UNL     1       3.803   2.339  20.117  0.00  0.00    +0.000 NA
ATOM     10  N   UNL     1       3.066   3.479  20.172  0.00  0.00    +0.000 N 
ATOM     11  H   UNL     1       3.511   6.582  19.159  0.00  0.00    +0.000 HD
ENDROOT
BRANCH   4  12
ATOM     12  C   UNL     1       1.329   7.280  20.252  0.00  0.00    +0.000 A 
ATOM     13  C   UNL     1       1.747   8.233  19.313  0.00  0.00    +0.000 A 
ATOM     14  C   UNL     1       1.348   9.564  19.440  0.00  0.00    +0.000 A 
ATOM     15  C   UNL     1       0.543   9.944  20.512  0.00  0.00    +0.000 A 
ATOM     16  C   UNL     1       0.062   8.979  21.396  0.00  0.00    +0.000 A 
ATOM     17  C   UNL     1       0.439   7.646  21.265  0.00  0.00    +0.000 A 
ATOM     18  O   UNL     1      -0.758   9.297  22.445  0.00  0.00    +0.000 OA
ATOM     19  C   UNL     1      -0.369  10.574  22.950  0.00  0.00    +0.000 C 
ATOM     20  C   UNL     1      -0.376  11.640  21.860  0.00  0.00    +0.000 C 
ATOM     21  O   UNL     1       0.319  11.284  20.660  0.00  0.00    +0.000 OA
ENDBRANCH   4  12
BRANCH   7  22
ATOM     22  C   UNL     1       5.836   4.806  18.230  0.00  0.00    +0.000 A 
ATOM     23  C   UNL     1       6.007   4.616  16.848  0.00  0.00    +0.000 A 
ATOM     24  C   UNL     1       6.930   5.380  16.127  0.00  0.00    +0.000 A 
ATOM     25  C   UNL     1       7.704   6.330  16.787  0.00  0.00    +0.000 A 
ATOM     26  C   UNL     1       7.556   6.500  18.158  0.00  0.00    +0.000 A 
ATOM     27  F   UNL     1       8.310   7.406  18.796  0.00  0.00    +0.000 F 
ATOM     28  C   UNL     1       6.633   5.753  18.883  0.00  0.00    +0.000 A 
ENDBRANCH   7  22
TORSDOF 2
ENDMDL
