MODEL 1
REMARK VINA RESULT:      -8.3      0.000      0.000
REMARK  Name = 
REMARK  4 active torsions:
REMARK  status: ('A' for Active; 'I' for Inactive)
REMARK    1  A    between atoms: C_2  and  C_16
REMARK    2  A    between atoms: N_3  and  C_4
REMARK    3  A    between atoms: C_8  and  O_9
REMARK    4  A    between atoms: O_9  and  C_10
REMARK                            x       y       z     vdW  Elec       q    Type
REMARK                         _______ _______ _______ _____ _____    ______ ____
ROOT
ATOM      1  O   UNL     1       2.497   7.655  18.893  0.00  0.00    +0.000 OA
ATOM      2  C   UNL     1       1.945   7.456  19.969  0.00  0.00    +0.000 C 
ATOM      3  N   UNL     1       1.885   6.234  20.625  0.00  0.00    +0.000 N 
ATOM      4  H   UNL     1       1.293   6.175  21.448  0.00  0.00    +0.000 HD
ENDROOT
BRANCH   2   5
ATOM      5  C   UNL     1       1.237   8.603  20.608  0.00  0.00    +0.000 A 
ATOM      6  C   UNL     1       0.994   8.545  21.991  0.00  0.00    +0.000 A 
ATOM      7  C   UNL     1       0.299   9.574  22.618  0.00  0.00    +0.000 A 
ATOM      8  F   UNL     1       0.067   9.505  23.934  0.00  0.00    +0.000 F 
ATOM      9  C   UNL     1      -0.165  10.669  21.899  0.00  0.00    +0.000 A 
ATOM     10  C   UNL     1       0.086  10.746  20.530  0.00  0.00    +0.000 A 
ATOM     11  C   UNL     1       0.787   9.718  19.896  0.00  0.00    +0.000 A 
ATOM     12  F   UNL     1       1.019   9.836  18.580  0.00  0.00    +0.000 F 
ENDBRANCH   2   5
BRANCH   3  13
ATOM     13  C   UNL     1       2.438   5.018  20.166  0.00  0.00    +0.000 A 
ATOM     14  C   UNL     1       1.743   3.813  20.168  0.00  0.00    +0.000 A 
ATOM     15  C   UNL     1       2.406   2.668  19.760  0.00  0.00    +0.000 A 
ATOM     16  N   UNL     1       3.695   2.645  19.363  0.00  0.00    +0.000 NA
ATOM     17  C   UNL     1       4.346   3.827  19.358  0.00  0.00    +0.000 A 
ATOM     18  C   UNL     1       3.758   5.030  19.713  0.00  0.00    +0.000 A 
BRANCH  17  19
ATOM     19  O   UNL     1       5.692   3.868  19.023  0.00  0.00    +0.000 OA
BRANCH  19  20
ATOM     20  C   UNL     1       6.063   5.053  18.302  0.00  0.00    +0.000 C 
ATOM     21  C   UNL     1       5.585   4.939  16.870  0.00  0.00    +0.000 C 
ATOM     22  C   UNL     1       6.699   4.179  16.188  0.00  0.00    +0.000 C 
ATOM     23  O   UNL     1       7.910   4.476  16.889  0.00  0.00    +0.000 OA
ATOM     24  C   UNL     1       7.574   5.125  18.130  0.00  0.00    +0.000 C 
ENDBRANCH  19  20
ENDBRANCH  17  19
ENDBRANCH   3  13
TORSDOF 4
ENDMDL
MODEL 2
REMARK VINA RESULT:      -7.7      0.984      1.243
REMARK  Name = 
REMARK  4 active torsions:
REMARK  status: ('A' for Active; 'I' for Inactive)
REMARK    1  A    between atoms: C_2  and  C_16
REMARK    2  A    between atoms: N_3  and  C_4
REMARK    3  A    between atoms: C_8  and  O_9
REMARK    4  A    between atoms: O_9  and  C_10
REMARK                            x       y       z     vdW  Elec       q    Type
REMARK                         _______ _______ _______ _____ _____    ______ ____
ROOT
ATOM      1  O   UNL     1       2.003   8.040  18.620  0.00  0.00    +0.000 OA
ATOM      2  C   UNL     1       1.800   7.827  19.810  0.00  0.00    +0.000 C 
ATOM      3  N   UNL     1       2.121   6.654  20.479  0.00  0.00    +0.000 N 
ATOM      4  H   UNL     1       1.790   6.557  21.435  0.00  0.00    +0.000 HD
ENDROOT
BRANCH   2   5
ATOM      5  C   UNL     1       1.109   8.889  20.597  0.00  0.00    +0.000 A 
ATOM      6  C   UNL     1       0.884   8.660  21.965  0.00  0.00    +0.000 A 
ATOM      7  C   UNL     1       0.205   9.606  22.725  0.00  0.00    +0.000 A 
ATOM      8  F   UNL     1      -0.011   9.375  24.025  0.00  0.00    +0.000 F 
ATOM      9  C   UNL     1      -0.260  10.786  22.155  0.00  0.00    +0.000 A 
ATOM     10  C   UNL     1      -0.026  11.032  20.803  0.00  0.00    +0.000 A 
ATOM     11  C   UNL     1       0.659  10.088  20.036  0.00  0.00    +0.000 A 
ATOM     12  F   UNL     1       0.875  10.367  18.742  0.00  0.00    +0.000 F 
ENDBRANCH   2   5
BRANCH   3  13
ATOM     13  C   UNL     1       2.725   5.512  19.909  0.00  0.00    +0.000 A 
ATOM     14  C   UNL     1       2.667   4.248  20.488  0.00  0.00    +0.000 A 
ATOM     15  C   UNL     1       3.353   3.212  19.878  0.00  0.00    +0.000 A 
ATOM     16  N   UNL     1       4.087   3.352  18.754  0.00  0.00    +0.000 NA
ATOM     17  C   UNL     1       4.120   4.583  18.205  0.00  0.00    +0.000 A 
ATOM     18  C   UNL     1       3.435   5.673  18.719  0.00  0.00    +0.000 A 
BRANCH  17  19
ATOM     19  O   UNL     1       4.904   4.815  17.085  0.00  0.00    +0.000 OA
BRANCH  19  20
ATOM     20  C   UNL     1       6.289   4.487  17.280  0.00  0.00    +0.000 C 
ATOM     21  C   UNL     1       6.922   5.510  18.199  0.00  0.00    +0.000 C 
ATOM     22  C   UNL     1       7.322   6.624  17.259  0.00  0.00    +0.000 C 
ATOM     23  O   UNL     1       7.577   6.033  15.981  0.00  0.00    +0.000 OA
ATOM     24  C   UNL     1       7.074   4.683  15.992  0.00  0.00    +0.000 C 
ENDBRANCH  19  20
ENDBRANCH  17  19
ENDBRANCH   3  13
TORSDOF 4
ENDMDL
MODEL 3
REMARK VINA RESULT:      -7.6      1.393      1.551
REMARK  Name = 
REMARK  4 active torsions:
REMARK  status: ('A' for Active; 'I' for Inactive)
REMARK    1  A    between atoms: C_2  and  C_16
REMARK    2  A    between atoms: N_3  and  C_4
REMARK    3  A    between atoms: C_8  and  O_9
REMARK    4  A    between atoms: O_9  and  C_10
REMARK                            x       y       z     vdW  Elec       q    Type
REMARK                         _______ _______ _______ _____ _____    ______ ____
ROOT
ATOM      1  O   UNL     1       3.308   7.398  18.255  0.00  0.00    +0.000 OA
ATOM      2  C   UNL     1       2.424   7.116  19.055  0.00  0.00    +0.000 C 
ATOM      3  N   UNL     1       2.010   5.829  19.372  0.00  0.00    +0.000 N 
ATOM      4  H   UNL     1       1.185   5.735  19.958  0.00  0.00    +0.000 HD
ENDROOT
BRANCH   2   5
ATOM      5  C   UNL     1       1.694   8.242  19.707  0.00  0.00    +0.000 A 
ATOM      6  C   UNL     1       1.458   8.165  21.090  0.00  0.00    +0.000 A 
ATOM      7  C   UNL     1       0.744   9.174  21.729  0.00  0.00    +0.000 A 
ATOM      8  F   UNL     1       0.518   9.088  23.046  0.00  0.00    +0.000 F 
ATOM      9  C   UNL     1       0.255  10.266  21.022  0.00  0.00    +0.000 A 
ATOM     10  C   UNL     1       0.499  10.361  19.654  0.00  0.00    +0.000 A 
ATOM     11  C   UNL     1       1.219   9.354  19.007  0.00  0.00    +0.000 A 
ATOM     12  F   UNL     1       1.444   9.489  17.691  0.00  0.00    +0.000 F 
ENDBRANCH   2   5
BRANCH   3  13
ATOM     13  C   UNL     1       2.528   4.633  18.828  0.00  0.00    +0.000 A 
ATOM     14  C   UNL     1       2.055   3.370  19.170  0.00  0.00    +0.000 A 
ATOM     15  C   UNL     1       2.683   2.262  18.627  0.00  0.00    +0.000 A 
ATOM     16  N   UNL     1       3.737   2.329  17.787  0.00  0.00    +0.000 NA
ATOM     17  C   UNL     1       4.172   3.563  17.461  0.00  0.00    +0.000 A 
ATOM     18  C   UNL     1       3.585   4.731  17.922  0.00  0.00    +0.000 A 
BRANCH  17  19
ATOM     19  O   UNL     1       5.290   3.707  16.653  0.00  0.00    +0.000 OA
BRANCH  19  20
ATOM     20  C   UNL     1       5.395   5.006  16.050  0.00  0.00    +0.000 C 
ATOM     21  C   UNL     1       5.458   4.856  14.545  0.00  0.00    +0.000 C 
ATOM     22  C   UNL     1       6.927   4.618  14.279  0.00  0.00    +0.000 C 
ATOM     23  O   UNL     1       7.661   5.270  15.320  0.00  0.00    +0.000 OA
ATOM     24  C   UNL     1       6.743   5.637  16.367  0.00  0.00    +0.000 C 
ENDBRANCH  19  20
ENDBRANCH  17  19
ENDBRANCH   3  13
TORSDOF 4
ENDMDL
MODEL 4
REMARK VINA RESULT:      -7.5      0.904      1.953
REMARK  Name = 
REMARK  4 active torsions:
REMARK  status: ('A' for Active; 'I' for Inactive)
REMARK    1  A    between atoms: C_2  and  C_16
REMARK    2  A    between atoms: N_3  and  C_4
REMARK    3  A    between atoms: C_8  and  O_9
REMARK    4  A    between atoms: O_9  and  C_10
REMARK                            x       y       z     vdW  Elec       q    Type
REMARK                         _______ _______ _______ _____ _____    ______ ____
ROOT
ATOM      1  O   UNL     1       2.620   7.416  18.458  0.00  0.00    +0.000 OA
ATOM      2  C   UNL     1       2.107   7.490  19.569  0.00  0.00    +0.000 C 
ATOM      3  N   UNL     1       2.075   6.467  20.507  0.00  0.00    +0.000 N 
ATOM      4  H   UNL     1       1.513   6.616  21.340  0.00  0.00    +0.000 HD
ENDROOT
BRANCH   2   5
ATOM      5  C   UNL     1       1.417   8.762  19.931  0.00  0.00    +0.000 A 
ATOM      6  C   UNL     1       1.066   9.644  18.895  0.00  0.00    +0.000 A 
ATOM      7  C   UNL     1       0.460  10.860  19.194  0.00  0.00    +0.000 A 
ATOM      8  F   UNL     1       0.137  11.696  18.200  0.00  0.00    +0.000 F 
ATOM      9  C   UNL     1       0.192  11.225  20.508  0.00  0.00    +0.000 A 
ATOM     10  C   UNL     1       0.519  10.349  21.542  0.00  0.00    +0.000 A 
ATOM     11  C   UNL     1       1.123   9.126  21.248  0.00  0.00    +0.000 A 
ATOM     12  F   UNL     1       1.411   8.306  22.270  0.00  0.00    +0.000 F 
ENDBRANCH   2   5
BRANCH   3  13
ATOM     13  C   UNL     1       2.617   5.173  20.343  0.00  0.00    +0.000 A 
ATOM     14  C   UNL     1       2.064   4.034  20.919  0.00  0.00    +0.000 A 
ATOM     15  C   UNL     1       2.718   2.826  20.749  0.00  0.00    +0.000 A 
ATOM     16  N   UNL     1       3.869   2.682  20.060  0.00  0.00    +0.000 NA
ATOM     17  C   UNL     1       4.381   3.797  19.501  0.00  0.00    +0.000 A 
ATOM     18  C   UNL     1       3.781   5.044  19.583  0.00  0.00    +0.000 A 
BRANCH  17  19
ATOM     19  O   UNL     1       5.595   3.735  18.832  0.00  0.00    +0.000 OA
BRANCH  19  20
ATOM     20  C   UNL     1       5.970   4.977  18.217  0.00  0.00    +0.000 C 
ATOM     21  C   UNL     1       5.593   4.946  16.751  0.00  0.00    +0.000 C 
ATOM     22  C   UNL     1       6.777   4.269  16.100  0.00  0.00    +0.000 C 
ATOM     23  O   UNL     1       7.927   4.556  16.900  0.00  0.00    +0.000 OA
ATOM     24  C   UNL     1       7.486   5.109  18.155  0.00  0.00    +0.000 C 
ENDBRANCH  19  20
ENDBRANCH  17  19
ENDBRANCH   3  13
TORSDOF 4
ENDMDL
MODEL 5
REMARK VINA RESULT:      -7.5      5.019      8.606
REMARK  Name = 
REMARK  4 active torsions:
REMARK  status: ('A' for Active; 'I' for Inactive)
REMARK    1  A    between atoms: C_2  and  C_16
REMARK    2  A    between atoms: N_3  and  C_4
REMARK    3  A    between atoms: C_8  and  O_9
REMARK    4  A    between atoms: O_9  and  C_10
REMARK                            x       y       z     vdW  Elec       q    Type
REMARK                         _______ _______ _______ _____ _____    ______ ____
ROOT
ATOM      1  O   UNL     1       5.561   6.044  14.914  0.00  0.00    +0.000 OA
ATOM      2  C   UNL     1       6.120   4.954  14.862  0.00  0.00    +0.000 C 
ATOM      3  N   UNL     1       6.578   4.236  15.959  0.00  0.00    +0.000 N 
ATOM      4  H   UNL     1       7.131   3.404  15.773  0.00  0.00    +0.000 HD
ENDROOT
BRANCH   2   5
ATOM      5  C   UNL     1       6.375   4.369  13.514  0.00  0.00    +0.000 A 
ATOM      6  C   UNL     1       5.484   3.394  13.035  0.00  0.00    +0.000 A 
ATOM      7  C   UNL     1       5.710   2.792  11.802  0.00  0.00    +0.000 A 
ATOM      8  F   UNL     1       4.860   1.860  11.358  0.00  0.00    +0.000 F 
ATOM      9  C   UNL     1       6.810   3.139  11.025  0.00  0.00    +0.000 A 
ATOM     10  C   UNL     1       7.690   4.117  11.483  0.00  0.00    +0.000 A 
ATOM     11  C   UNL     1       7.466   4.728  12.718  0.00  0.00    +0.000 A 
ATOM     12  F   UNL     1       8.329   5.675  13.117  0.00  0.00    +0.000 F 
ENDBRANCH   2   5
BRANCH   3  13
ATOM     13  C   UNL     1       6.486   4.636  17.310  0.00  0.00    +0.000 A 
ATOM     14  C   UNL     1       7.527   5.253  17.996  0.00  0.00    +0.000 A 
ATOM     15  C   UNL     1       7.353   5.541  19.339  0.00  0.00    +0.000 A 
ATOM     16  N   UNL     1       6.232   5.252  20.032  0.00  0.00    +0.000 NA
ATOM     17  C   UNL     1       5.232   4.663  19.344  0.00  0.00    +0.000 A 
ATOM     18  C   UNL     1       5.298   4.371  17.991  0.00  0.00    +0.000 A 
BRANCH  17  19
ATOM     19  O   UNL     1       4.075   4.280  20.007  0.00  0.00    +0.000 OA
BRANCH  19  20
ATOM     20  C   UNL     1       3.059   3.769  19.131  0.00  0.00    +0.000 C 
ATOM     21  C   UNL     1       1.802   4.599  19.282  0.00  0.00    +0.000 C 
ATOM     22  C   UNL     1       1.102   3.961  20.460  0.00  0.00    +0.000 C 
ATOM     23  O   UNL     1       1.481   2.582  20.488  0.00  0.00    +0.000 OA
ATOM     24  C   UNL     1       2.594   2.395  19.593  0.00  0.00    +0.000 C 
ENDBRANCH  19  20
ENDBRANCH  17  19
ENDBRANCH   3  13
TORSDOF 4
ENDMDL
MODEL 6
REMARK VINA RESULT:      -7.5      4.077      7.952
REMARK  Name = 
REMARK  4 active torsions:
REMARK  status: ('A' for Active; 'I' for Inactive)
REMARK    1  A    between atoms: C_2  and  C_16
REMARK    2  A    between atoms: N_3  and  C_4
REMARK    3  A    between atoms: C_8  and  O_9
REMARK    4  A    between atoms: O_9  and  C_10
REMARK                            x       y       z     vdW  Elec       q    Type
REMARK                         _______ _______ _______ _____ _____    ______ ____
ROOT
ATOM      1  O   UNL     1       4.526   3.752  16.600  0.00  0.00    +0.000 OA
ATOM      2  C   UNL     1       4.885   4.756  15.995  0.00  0.00    +0.000 C 
ATOM      3  N   UNL     1       4.555   6.060  16.339  0.00  0.00    +0.000 N 
ATOM      4  H   UNL     1       4.814   6.794  15.687  0.00  0.00    +0.000 HD
ENDROOT
BRANCH   2   5
ATOM      5  C   UNL     1       5.703   4.567  14.762  0.00  0.00    +0.000 A 
ATOM      6  C   UNL     1       5.164   3.795  13.720  0.00  0.00    +0.000 A 
ATOM      7  C   UNL     1       5.911   3.560  12.571  0.00  0.00    +0.000 A 
ATOM      8  F   UNL     1       5.391   2.816  11.587  0.00  0.00    +0.000 F 
ATOM      9  C   UNL     1       7.194   4.078  12.431  0.00  0.00    +0.000 A 
ATOM     10  C   UNL     1       7.732   4.861  13.450  0.00  0.00    +0.000 A 
ATOM     11  C   UNL     1       6.984   5.104  14.604  0.00  0.00    +0.000 A 
ATOM     12  F   UNL     1       7.533   5.873  15.557  0.00  0.00    +0.000 F 
ENDBRANCH   2   5
BRANCH   3  13
ATOM     13  C   UNL     1       3.749   6.451  17.431  0.00  0.00    +0.000 A 
ATOM     14  C   UNL     1       3.209   7.726  17.564  0.00  0.00    +0.000 A 
ATOM     15  C   UNL     1       2.490   8.022  18.710  0.00  0.00    +0.000 A 
ATOM     16  N   UNL     1       2.285   7.148  19.717  0.00  0.00    +0.000 NA
ATOM     17  C   UNL     1       2.809   5.915  19.562  0.00  0.00    +0.000 A 
ATOM     18  C   UNL     1       3.510   5.513  18.436  0.00  0.00    +0.000 A 
BRANCH  17  19
ATOM     19  O   UNL     1       2.691   4.985  20.585  0.00  0.00    +0.000 OA
BRANCH  19  20
ATOM     20  C   UNL     1       2.498   3.642  20.115  0.00  0.00    +0.000 C 
ATOM     21  C   UNL     1       1.156   3.130  20.596  0.00  0.00    +0.000 C 
ATOM     22  C   UNL     1       1.460   2.599  21.978  0.00  0.00    +0.000 C 
ATOM     23  O   UNL     1       2.827   2.180  21.985  0.00  0.00    +0.000 OA
ATOM     24  C   UNL     1       3.468   2.689  20.800  0.00  0.00    +0.000 C 
ENDBRANCH  19  20
ENDBRANCH  17  19
ENDBRANCH   3  13
TORSDOF 4
ENDMDL
MODEL 7
REMARK VINA RESULT:      -7.5      4.058      8.500
REMARK  Name = 
REMARK  4 active torsions:
REMARK  status: ('A' for Active; 'I' for Inactive)
REMARK    1  A    between atoms: C_2  and  C_16
REMARK    2  A    between atoms: N_3  and  C_4
REMARK    3  A    between atoms: C_8  and  O_9
REMARK    4  A    between atoms: O_9  and  C_10
REMARK                            x       y       z     vdW  Elec       q    Type
REMARK                         _______ _______ _______ _____ _____    ______ ____
ROOT
ATOM      1  O   UNL     1       2.264   7.535  19.768  0.00  0.00    +0.000 OA
ATOM      2  C   UNL     1       2.436   7.491  18.556  0.00  0.00    +0.000 C 
ATOM      3  N   UNL     1       2.102   8.499  17.662  0.00  0.00    +0.000 N 
ATOM      4  H   UNL     1       2.184   8.289  16.671  0.00  0.00    +0.000 HD
ENDROOT
BRANCH   2   5
ATOM      5  C   UNL     1       3.007   6.238  17.982  0.00  0.00    +0.000 A 
ATOM      6  C   UNL     1       2.216   5.077  18.006  0.00  0.00    +0.000 A 
ATOM      7  C   UNL     1       2.728   3.878  17.519  0.00  0.00    +0.000 A 
ATOM      8  F   UNL     1       1.969   2.777  17.554  0.00  0.00    +0.000 F 
ATOM      9  C   UNL     1       4.017   3.804  17.004  0.00  0.00    +0.000 A 
ATOM     10  C   UNL     1       4.803   4.954  16.958  0.00  0.00    +0.000 A 
ATOM     11  C   UNL     1       4.294   6.161  17.441  0.00  0.00    +0.000 A 
ATOM     12  F   UNL     1       5.078   7.247  17.368  0.00  0.00    +0.000 F 
ENDBRANCH   2   5
BRANCH   3  13
ATOM     13  C   UNL     1       1.503   9.735  17.991  0.00  0.00    +0.000 A 
ATOM     14  C   UNL     1       2.231  10.865  18.351  0.00  0.00    +0.000 A 
ATOM     15  C   UNL     1       1.539  12.005  18.721  0.00  0.00    +0.000 A 
ATOM     16  N   UNL     1       0.193  12.089  18.762  0.00  0.00    +0.000 NA
ATOM     17  C   UNL     1      -0.492  10.986  18.399  0.00  0.00    +0.000 A 
ATOM     18  C   UNL     1       0.110   9.811  17.977  0.00  0.00    +0.000 A 
BRANCH  17  19
ATOM     19  O   UNL     1      -1.877  10.980  18.478  0.00  0.00    +0.000 OA
BRANCH  19  20
ATOM     20  C   UNL     1      -2.503  10.184  17.459  0.00  0.00    +0.000 C 
ATOM     21  C   UNL     1      -2.969  11.083  16.334  0.00  0.00    +0.000 C 
ATOM     22  C   UNL     1      -4.329  11.550  16.800  0.00  0.00    +0.000 C 
ATOM     23  O   UNL     1      -4.867  10.526  17.641  0.00  0.00    +0.000 OA
ATOM     24  C   UNL     1      -3.814   9.599  17.966  0.00  0.00    +0.000 C 
ENDBRANCH  19  20
ENDBRANCH  17  19
ENDBRANCH   3  13
TORSDOF 4
ENDMDL
MODEL 8
REMARK VINA RESULT:      -7.5      3.948      8.423
REMARK  Name = 
REMARK  4 active torsions:
REMARK  status: ('A' for Active; 'I' for Inactive)
REMARK    1  A    between atoms: C_2  and  C_16
REMARK    2  A    between atoms: N_3  and  C_4
REMARK    3  A    between atoms: C_8  and  O_9
REMARK    4  A    between atoms: O_9  and  C_10
REMARK                            x       y       z     vdW  Elec       q    Type
REMARK                         _______ _______ _______ _____ _____    ______ ____
ROOT
ATOM      1  O   UNL     1       2.104   6.717  20.047  0.00  0.00    +0.000 OA
ATOM      2  C   UNL     1       2.423   7.072  18.918  0.00  0.00    +0.000 C 
ATOM      3  N   UNL     1       2.029   8.256  18.309  0.00  0.00    +0.000 N 
ATOM      4  H   UNL     1       2.261   8.375  17.327  0.00  0.00    +0.000 HD
ENDROOT
BRANCH   2   5
ATOM      5  C   UNL     1       3.262   6.141  18.109  0.00  0.00    +0.000 A 
ATOM      6  C   UNL     1       4.439   6.643  17.530  0.00  0.00    +0.000 A 
ATOM      7  C   UNL     1       5.227   5.819  16.733  0.00  0.00    +0.000 A 
ATOM      8  F   UNL     1       6.342   6.308  16.179  0.00  0.00    +0.000 F 
ATOM      9  C   UNL     1       4.870   4.496  16.496  0.00  0.00    +0.000 A 
ATOM     10  C   UNL     1       3.714   3.983  17.080  0.00  0.00    +0.000 A 
ATOM     11  C   UNL     1       2.922   4.804  17.885  0.00  0.00    +0.000 A 
ATOM     12  F   UNL     1       1.824   4.268  18.440  0.00  0.00    +0.000 F 
ENDBRANCH   2   5
BRANCH   3  13
ATOM     13  C   UNL     1       1.194   9.244  18.877  0.00  0.00    +0.000 A 
ATOM     14  C   UNL     1       1.258   9.621  20.215  0.00  0.00    +0.000 A 
ATOM     15  C   UNL     1       0.346  10.551  20.681  0.00  0.00    +0.000 A 
ATOM     16  N   UNL     1      -0.614  11.114  19.918  0.00  0.00    +0.000 NA
ATOM     17  C   UNL     1      -0.650  10.742  18.622  0.00  0.00    +0.000 A 
ATOM     18  C   UNL     1       0.243   9.848  18.054  0.00  0.00    +0.000 A 
BRANCH  17  19
ATOM     19  O   UNL     1      -1.650  11.232  17.795  0.00  0.00    +0.000 OA
BRANCH  19  20
ATOM     20  C   UNL     1      -2.726  10.304  17.589  0.00  0.00    +0.000 C 
ATOM     21  C   UNL     1      -2.730   9.851  16.145  0.00  0.00    +0.000 C 
ATOM     22  C   UNL     1      -3.528  10.926  15.444  0.00  0.00    +0.000 C 
ATOM     23  O   UNL     1      -4.449  11.466  16.396  0.00  0.00    +0.000 OA
ATOM     24  C   UNL     1      -4.071  11.008  17.709  0.00  0.00    +0.000 C 
ENDBRANCH  19  20
ENDBRANCH  17  19
ENDBRANCH   3  13
TORSDOF 4
ENDMDL
MODEL 9
REMARK VINA RESULT:      -7.4      3.804      8.140
REMARK  Name = 
REMARK  4 active torsions:
REMARK  status: ('A' for Active; 'I' for Inactive)
REMARK    1  A    between atoms: C_2  and  C_16
REMARK    2  A    between atoms: N_3  and  C_4
REMARK    3  A    between atoms: C_8  and  O_9
REMARK    4  A    between atoms: O_9  and  C_10
REMARK                            x       y       z     vdW  Elec       q    Type
REMARK                         _______ _______ _______ _____ _____    ______ ____
ROOT
ATOM      1  O   UNL     1       1.734   6.432  20.525  0.00  0.00    +0.000 OA
ATOM      2  C   UNL     1       2.281   6.768  19.481  0.00  0.00    +0.000 C 
ATOM      3  N   UNL     1       2.088   7.978  18.828  0.00  0.00    +0.000 N 
ATOM      4  H   UNL     1       2.506   8.084  17.908  0.00  0.00    +0.000 HD
ENDROOT
BRANCH   2   5
ATOM      5  C   UNL     1       3.191   5.784  18.827  0.00  0.00    +0.000 A 
ATOM      6  C   UNL     1       4.542   5.773  19.212  0.00  0.00    +0.000 A 
ATOM      7  C   UNL     1       5.433   4.900  18.595  0.00  0.00    +0.000 A 
ATOM      8  F   UNL     1       6.719   4.902  18.964  0.00  0.00    +0.000 F 
ATOM      9  C   UNL     1       5.010   4.029  17.597  0.00  0.00    +0.000 A 
ATOM     10  C   UNL     1       3.669   4.019  17.221  0.00  0.00    +0.000 A 
ATOM     11  C   UNL     1       2.769   4.890  17.839  0.00  0.00    +0.000 A 
ATOM     12  F   UNL     1       1.484   4.840  17.457  0.00  0.00    +0.000 F 
ENDBRANCH   2   5
BRANCH   3  13
ATOM     13  C   UNL     1       1.230   9.019  19.247  0.00  0.00    +0.000 A 
ATOM     14  C   UNL     1       1.104   9.418  20.574  0.00  0.00    +0.000 A 
ATOM     15  C   UNL     1       0.182  10.404  20.881  0.00  0.00    +0.000 A 
ATOM     16  N   UNL     1      -0.613  11.002  19.970  0.00  0.00    +0.000 NA
ATOM     17  C   UNL     1      -0.466  10.608  18.689  0.00  0.00    +0.000 A 
ATOM     18  C   UNL     1       0.455   9.657  18.278  0.00  0.00    +0.000 A 
BRANCH  17  19
ATOM     19  O   UNL     1      -1.294  11.135  17.709  0.00  0.00    +0.000 OA
BRANCH  19  20
ATOM     20  C   UNL     1      -2.030  10.135  16.986  0.00  0.00    +0.000 C 
ATOM     21  C   UNL     1      -2.711  10.776  15.796  0.00  0.00    +0.000 C 
ATOM     22  C   UNL     1      -4.004  11.303  16.376  0.00  0.00    +0.000 C 
ATOM     23  O   UNL     1      -4.351  10.463  17.481  0.00  0.00    +0.000 OA
ATOM     24  C   UNL     1      -3.213   9.642  17.806  0.00  0.00    +0.000 C 
ENDBRANCH  19  20
ENDBRANCH  17  19
ENDBRANCH   3  13
TORSDOF 4
ENDMDL
