MODEL 1
REMARK VINA RESULT:      -7.1      0.000      0.000
REMARK  Name = 
REMARK  10 active torsions:
REMARK  status: ('A' for Active; 'I' for Inactive)
REMARK    1  A    between atoms: C_1  and  O_2
REMARK    2  A    between atoms: O_2  and  C_3
REMARK    3  A    between atoms: C_6  and  C_7
REMARK    4  A    between atoms: C_7  and  C_8
REMARK    5  A    between atoms: C_8  and  O_9
REMARK    6  A    between atoms: O_9  and  C_10
REMARK    7  A    between atoms: C_11  and  C_12
REMARK    8  A    between atoms: C_17  and  N_18
REMARK    9  A    between atoms: C_20  and  O_21
REMARK   10  A    between atoms: O_21  and  C_22
REMARK                            x       y       z     vdW  Elec       q    Type
REMARK                         _______ _______ _______ _____ _____    ______ ____
ROOT
ATOM      1  O   UNL     1       7.545   7.435  17.047  0.00  0.00    +0.000 OA
ENDROOT
BRANCH   1   2
ATOM      2  C   UNL     1       6.784   6.353  17.389  0.00  0.00    +0.000 A 
ATOM      3  C   UNL     1       6.991   5.508  18.536  0.00  0.00    +0.000 A 
ATOM      4  C   UNL     1       8.037   5.640  19.613  0.00  0.00    +0.000 C 
ATOM      5  N   UNL     1       6.168   4.445  18.717  0.00  0.00    +0.000 NA
ATOM      6  C   UNL     1       5.161   4.147  17.875  0.00  0.00    +0.000 A 
ATOM      7  N   UNL     1       4.331   3.034  18.135  0.00  0.00    +0.000 N 
ATOM      8  N   UNL     1       4.944   4.917  16.784  0.00  0.00    +0.000 NA
ATOM      9  C   UNL     1       5.721   6.003  16.516  0.00  0.00    +0.000 A 
ATOM     10  H   UNL     1       4.495   2.456  18.973  0.00  0.00    +0.000 HD
ATOM     11  H   UNL     1       3.551   2.802  17.506  0.00  0.00    +0.000 HD
BRANCH   9  12
ATOM     12  N   UNL     1       5.448   6.746  15.338  0.00  0.00    +0.000 N 
ATOM     13  H   UNL     1       5.363   6.255  14.430  0.00  0.00    +0.000 HD
ATOM     14  H   UNL     1       5.362   7.770  15.342  0.00  0.00    +0.000 HD
ENDBRANCH   9  12
ENDBRANCH   1   2
BRANCH   1  15
ATOM     15  C   UNL     1       7.612   8.674  17.651  0.00  0.00    +0.000 C 
BRANCH  15  16
ATOM     16  C   UNL     1       8.791   8.799  18.619  0.00  0.00    +0.000 C 
BRANCH  16  20
ATOM     17  C   UNL     1       9.921  12.883  19.604  0.00  0.00    +0.000 A 
ATOM     18  C   UNL     1       9.613  11.937  20.609  0.00  0.00    +0.000 A 
ATOM     19  C   UNL     1       9.273  10.625  20.280  0.00  0.00    +0.000 A 
ATOM     20  C   UNL     1       9.223  10.216  18.942  0.00  0.00    +0.000 A 
ATOM     21  C   UNL     1       9.554  11.147  17.948  0.00  0.00    +0.000 A 
ATOM     22  C   UNL     1       9.913  12.456  18.250  0.00  0.00    +0.000 A 
BRANCH  17  24
ATOM     23  C   UNL     1       9.346  15.252  19.906  0.00  0.00    +0.000 C 
ATOM     24  O   UNL     1      10.218  14.175  19.907  0.00  0.00    +0.000 OA
ENDBRANCH  17  24
BRANCH  22  25
ATOM     25  O   UNL     1      10.224  13.232  17.177  0.00  0.00    +0.000 OA
ATOM     26  C   UNL     1      11.458  13.631  16.726  0.00  0.00    +0.000 C 
ENDBRANCH  22  25
ENDBRANCH  16  20
ENDBRANCH  15  16
ENDBRANCH   1  15
TORSDOF 7
ENDMDL
MODEL 2
REMARK VINA RESULT:      -7.1      4.150      8.135
REMARK  Name = 
REMARK  10 active torsions:
REMARK  status: ('A' for Active; 'I' for Inactive)
REMARK    1  A    between atoms: C_1  and  O_2
REMARK    2  A    between atoms: O_2  and  C_3
REMARK    3  A    between atoms: C_6  and  C_7
REMARK    4  A    between atoms: C_7  and  C_8
REMARK    5  A    between atoms: C_8  and  O_9
REMARK    6  A    between atoms: O_9  and  C_10
REMARK    7  A    between atoms: C_11  and  C_12
REMARK    8  A    between atoms: C_17  and  N_18
REMARK    9  A    between atoms: C_20  and  O_21
REMARK   10  A    between atoms: O_21  and  C_22
REMARK                            x       y       z     vdW  Elec       q    Type
REMARK                         _______ _______ _______ _____ _____    ______ ____
ROOT
ATOM      1  O   UNL     1       5.926   6.554  16.043  0.00  0.00    +0.000 OA
ENDROOT
BRANCH   1   2
ATOM      2  C   UNL     1       6.690   6.256  17.136  0.00  0.00    +0.000 A 
ATOM      3  C   UNL     1       7.503   7.188  17.872  0.00  0.00    +0.000 A 
ATOM      4  C   UNL     1       7.666   8.669  17.640  0.00  0.00    +0.000 C 
ATOM      5  N   UNL     1       8.237   6.727  18.916  0.00  0.00    +0.000 NA
ATOM      6  C   UNL     1       8.234   5.436  19.300  0.00  0.00    +0.000 A 
ATOM      7  N   UNL     1       9.009   5.030  20.408  0.00  0.00    +0.000 N 
ATOM      8  N   UNL     1       7.485   4.535  18.625  0.00  0.00    +0.000 NA
ATOM      9  C   UNL     1       6.720   4.902  17.560  0.00  0.00    +0.000 A 
ATOM     10  H   UNL     1       9.571   5.723  20.924  0.00  0.00    +0.000 HD
ATOM     11  H   UNL     1       9.007   4.049  20.719  0.00  0.00    +0.000 HD
BRANCH   9  12
ATOM     12  N   UNL     1       5.983   3.893  16.886  0.00  0.00    +0.000 N 
ATOM     13  H   UNL     1       5.008   4.080  16.593  0.00  0.00    +0.000 HD
ATOM     14  H   UNL     1       6.371   2.960  16.702  0.00  0.00    +0.000 HD
ENDBRANCH   9  12
ENDBRANCH   1   2
BRANCH   1  15
ATOM     15  C   UNL     1       4.559   6.725  15.960  0.00  0.00    +0.000 C 
BRANCH  15  16
ATOM     16  C   UNL     1       3.967   7.386  17.206  0.00  0.00    +0.000 C 
BRANCH  16  20
ATOM     17  C   UNL     1       1.733   4.793  19.891  0.00  0.00    +0.000 A 
ATOM     18  C   UNL     1       1.900   6.171  20.162  0.00  0.00    +0.000 A 
ATOM     19  C   UNL     1       2.601   6.995  19.282  0.00  0.00    +0.000 A 
ATOM     20  C   UNL     1       3.161   6.474  18.109  0.00  0.00    +0.000 A 
ATOM     21  C   UNL     1       2.972   5.113  17.829  0.00  0.00    +0.000 A 
ATOM     22  C   UNL     1       2.263   4.273  18.682  0.00  0.00    +0.000 A 
BRANCH  17  24
ATOM     23  C   UNL     1       1.662   3.080  21.649  0.00  0.00    +0.000 C 
ATOM     24  O   UNL     1       1.085   3.969  20.757  0.00  0.00    +0.000 OA
ENDBRANCH  17  24
BRANCH  22  25
ATOM     25  O   UNL     1       2.151   2.985  18.261  0.00  0.00    +0.000 OA
ATOM     26  C   UNL     1       2.787   2.354  17.221  0.00  0.00    +0.000 C 
ENDBRANCH  22  25
ENDBRANCH  16  20
ENDBRANCH  15  16
ENDBRANCH   1  15
TORSDOF 7
ENDMDL
MODEL 3
REMARK VINA RESULT:      -7.0      4.957      6.966
REMARK  Name = 
REMARK  10 active torsions:
REMARK  status: ('A' for Active; 'I' for Inactive)
REMARK    1  A    between atoms: C_1  and  O_2
REMARK    2  A    between atoms: O_2  and  C_3
REMARK    3  A    between atoms: C_6  and  C_7
REMARK    4  A    between atoms: C_7  and  C_8
REMARK    5  A    between atoms: C_8  and  O_9
REMARK    6  A    between atoms: O_9  and  C_10
REMARK    7  A    between atoms: C_11  and  C_12
REMARK    8  A    between atoms: C_17  and  N_18
REMARK    9  A    between atoms: C_20  and  O_21
REMARK   10  A    between atoms: O_21  and  C_22
REMARK                            x       y       z     vdW  Elec       q    Type
REMARK                         _______ _______ _______ _____ _____    ______ ____
ROOT
ATOM      1  O   UNL     1       5.561   4.869  18.812  0.00  0.00    +0.000 OA
ENDROOT
BRANCH   1   2
ATOM      2  C   UNL     1       6.083   4.974  17.554  0.00  0.00    +0.000 A 
ATOM      3  C   UNL     1       6.974   6.007  17.096  0.00  0.00    +0.000 A 
ATOM      4  C   UNL     1       7.551   7.156  17.884  0.00  0.00    +0.000 C 
ATOM      5  N   UNL     1       7.376   5.993  15.800  0.00  0.00    +0.000 NA
ATOM      6  C   UNL     1       6.985   5.049  14.924  0.00  0.00    +0.000 A 
ATOM      7  N   UNL     1       7.457   5.086  13.593  0.00  0.00    +0.000 N 
ATOM      8  N   UNL     1       6.143   4.068  15.320  0.00  0.00    +0.000 NA
ATOM      9  C   UNL     1       5.681   4.003  16.600  0.00  0.00    +0.000 A 
ATOM     10  H   UNL     1       8.106   5.831  13.298  0.00  0.00    +0.000 HD
ATOM     11  H   UNL     1       7.175   4.364  12.915  0.00  0.00    +0.000 HD
BRANCH   9  12
ATOM     12  N   UNL     1       4.779   2.958  16.933  0.00  0.00    +0.000 N 
ATOM     13  H   UNL     1       4.631   2.706  17.926  0.00  0.00    +0.000 HD
ATOM     14  H   UNL     1       4.282   2.413  16.218  0.00  0.00    +0.000 HD
ENDBRANCH   9  12
ENDBRANCH   1   2
BRANCH   1  15
ATOM     15  C   UNL     1       4.564   5.618  19.403  0.00  0.00    +0.000 C 
BRANCH  15  16
ATOM     16  C   UNL     1       3.363   5.841  18.482  0.00  0.00    +0.000 C 
BRANCH  16  20
ATOM     17  C   UNL     1       1.317   9.637  19.054  0.00  0.00    +0.000 A 
ATOM     18  C   UNL     1       1.948   9.313  17.831  0.00  0.00    +0.000 A 
ATOM     19  C   UNL     1       2.582   8.084  17.654  0.00  0.00    +0.000 A 
ATOM     20  C   UNL     1       2.613   7.142  18.689  0.00  0.00    +0.000 A 
ATOM     21  C   UNL     1       1.965   7.453  19.892  0.00  0.00    +0.000 A 
ATOM     22  C   UNL     1       1.311   8.665  20.089  0.00  0.00    +0.000 A 
BRANCH  17  24
ATOM     23  C   UNL     1       1.274  11.941  19.903  0.00  0.00    +0.000 C 
ATOM     24  O   UNL     1       0.727  10.845  19.256  0.00  0.00    +0.000 OA
ENDBRANCH  17  24
BRANCH  22  25
ATOM     25  O   UNL     1       0.714   8.808  21.302  0.00  0.00    +0.000 OA
ATOM     26  C   UNL     1       1.275   9.144  22.509  0.00  0.00    +0.000 C 
ENDBRANCH  22  25
ENDBRANCH  16  20
ENDBRANCH  15  16
ENDBRANCH   1  15
TORSDOF 7
ENDMDL
MODEL 4
REMARK VINA RESULT:      -7.0      0.922      1.955
REMARK  Name = 
REMARK  10 active torsions:
REMARK  status: ('A' for Active; 'I' for Inactive)
REMARK    1  A    between atoms: C_1  and  O_2
REMARK    2  A    between atoms: O_2  and  C_3
REMARK    3  A    between atoms: C_6  and  C_7
REMARK    4  A    between atoms: C_7  and  C_8
REMARK    5  A    between atoms: C_8  and  O_9
REMARK    6  A    between atoms: O_9  and  C_10
REMARK    7  A    between atoms: C_11  and  C_12
REMARK    8  A    between atoms: C_17  and  N_18
REMARK    9  A    between atoms: C_20  and  O_21
REMARK   10  A    between atoms: O_21  and  C_22
REMARK                            x       y       z     vdW  Elec       q    Type
REMARK                         _______ _______ _______ _____ _____    ______ ____
ROOT
ATOM      1  O   UNL     1       7.772   7.235  17.473  0.00  0.00    +0.000 OA
ENDROOT
BRANCH   1   2
ATOM      2  C   UNL     1       6.814   6.322  17.813  0.00  0.00    +0.000 A 
ATOM      3  C   UNL     1       5.559   6.129  17.137  0.00  0.00    +0.000 A 
ATOM      4  C   UNL     1       5.042   6.839  15.911  0.00  0.00    +0.000 C 
ATOM      5  N   UNL     1       4.694   5.203  17.622  0.00  0.00    +0.000 NA
ATOM      6  C   UNL     1       4.961   4.451  18.706  0.00  0.00    +0.000 A 
ATOM      7  N   UNL     1       4.021   3.492  19.146  0.00  0.00    +0.000 N 
ATOM      8  N   UNL     1       6.129   4.612  19.368  0.00  0.00    +0.000 NA
ATOM      9  C   UNL     1       7.057   5.521  18.959  0.00  0.00    +0.000 A 
ATOM     10  H   UNL     1       3.136   3.367  18.632  0.00  0.00    +0.000 HD
ATOM     11  H   UNL     1       4.217   2.902  19.966  0.00  0.00    +0.000 HD
BRANCH   9  12
ATOM     12  N   UNL     1       8.247   5.651  19.722  0.00  0.00    +0.000 N 
ATOM     13  H   UNL     1       8.898   6.432  19.527  0.00  0.00    +0.000 HD
ATOM     14  H   UNL     1       8.510   4.975  20.450  0.00  0.00    +0.000 HD
ENDBRANCH   9  12
ENDBRANCH   1   2
BRANCH   1  15
ATOM     15  C   UNL     1       7.854   8.573  17.804  0.00  0.00    +0.000 C 
BRANCH  15  16
ATOM     16  C   UNL     1       8.860   8.846  18.924  0.00  0.00    +0.000 C 
BRANCH  16  20
ATOM     17  C   UNL     1       9.871  13.036  19.511  0.00  0.00    +0.000 A 
ATOM     18  C   UNL     1       9.547  12.194  20.599  0.00  0.00    +0.000 A 
ATOM     19  C   UNL     1       9.245  10.846  20.399  0.00  0.00    +0.000 A 
ATOM     20  C   UNL     1       9.251  10.298  19.111  0.00  0.00    +0.000 A 
ATOM     21  C   UNL     1       9.599  11.128  18.036  0.00  0.00    +0.000 A 
ATOM     22  C   UNL     1       9.919  12.470  18.210  0.00  0.00    +0.000 A 
BRANCH  17  24
ATOM     23  C   UNL     1      11.307  14.923  20.150  0.00  0.00    +0.000 C 
ATOM     24  O   UNL     1      10.130  14.359  19.685  0.00  0.00    +0.000 OA
ENDBRANCH  17  24
BRANCH  22  25
ATOM     25  O   UNL     1      10.253  13.137  17.072  0.00  0.00    +0.000 OA
ATOM     26  C   UNL     1      11.498  13.432  16.575  0.00  0.00    +0.000 C 
ENDBRANCH  22  25
ENDBRANCH  16  20
ENDBRANCH  15  16
ENDBRANCH   1  15
TORSDOF 7
ENDMDL
MODEL 5
REMARK VINA RESULT:      -7.0      1.438      2.595
REMARK  Name = 
REMARK  10 active torsions:
REMARK  status: ('A' for Active; 'I' for Inactive)
REMARK    1  A    between atoms: C_1  and  O_2
REMARK    2  A    between atoms: O_2  and  C_3
REMARK    3  A    between atoms: C_6  and  C_7
REMARK    4  A    between atoms: C_7  and  C_8
REMARK    5  A    between atoms: C_8  and  O_9
REMARK    6  A    between atoms: O_9  and  C_10
REMARK    7  A    between atoms: C_11  and  C_12
REMARK    8  A    between atoms: C_17  and  N_18
REMARK    9  A    between atoms: C_20  and  O_21
REMARK   10  A    between atoms: O_21  and  C_22
REMARK                            x       y       z     vdW  Elec       q    Type
REMARK                         _______ _______ _______ _____ _____    ______ ____
ROOT
ATOM      1  O   UNL     1       7.768   7.215  17.474  0.00  0.00    +0.000 OA
ENDROOT
BRANCH   1   2
ATOM      2  C   UNL     1       6.898   6.190  17.722  0.00  0.00    +0.000 A 
ATOM      3  C   UNL     1       5.755   5.846  16.919  0.00  0.00    +0.000 A 
ATOM      4  C   UNL     1       5.287   6.490  15.639  0.00  0.00    +0.000 C 
ATOM      5  N   UNL     1       4.963   4.820  17.321  0.00  0.00    +0.000 NA
ATOM      6  C   UNL     1       5.203   4.104  18.435  0.00  0.00    +0.000 A 
ATOM      7  N   UNL     1       4.346   3.037  18.784  0.00  0.00    +0.000 N 
ATOM      8  N   UNL     1       6.266   4.406  19.215  0.00  0.00    +0.000 NA
ATOM      9  C   UNL     1       7.114   5.422  18.895  0.00  0.00    +0.000 A 
ATOM     10  H   UNL     1       3.543   2.805  18.182  0.00  0.00    +0.000 HD
ATOM     11  H   UNL     1       4.525   2.474  19.627  0.00  0.00    +0.000 HD
BRANCH   9  12
ATOM     12  N   UNL     1       8.193   5.696  19.778  0.00  0.00    +0.000 N 
ATOM     13  H   UNL     1       8.637   4.921  20.301  0.00  0.00    +0.000 HD
ATOM     14  H   UNL     1       8.535   6.650  19.947  0.00  0.00    +0.000 HD
ENDBRANCH   9  12
ENDBRANCH   1   2
BRANCH   1  15
ATOM     15  C   UNL     1       7.609   8.565  17.708  0.00  0.00    +0.000 C 
BRANCH  15  16
ATOM     16  C   UNL     1       8.733   9.157  18.560  0.00  0.00    +0.000 C 
BRANCH  16  20
ATOM     17  C   UNL     1       9.814  13.302  17.804  0.00  0.00    +0.000 A 
ATOM     18  C   UNL     1      10.782  12.342  18.179  0.00  0.00    +0.000 A 
ATOM     19  C   UNL     1      10.425  11.011  18.398  0.00  0.00    +0.000 A 
ATOM     20  C   UNL     1       9.095  10.597  18.256  0.00  0.00    +0.000 A 
ATOM     21  C   UNL     1       8.142  11.544  17.858  0.00  0.00    +0.000 A 
ATOM     22  C   UNL     1       8.474  12.873  17.618  0.00  0.00    +0.000 A 
BRANCH  17  24
ATOM     23  C   UNL     1      11.355  15.114  17.191  0.00  0.00    +0.000 C 
ATOM     24  O   UNL     1      10.139  14.610  17.624  0.00  0.00    +0.000 OA
ENDBRANCH  17  24
BRANCH  22  25
ATOM     25  O   UNL     1       7.441  13.664  17.220  0.00  0.00    +0.000 OA
ATOM     26  C   UNL     1       6.737  14.596  17.941  0.00  0.00    +0.000 C 
ENDBRANCH  22  25
ENDBRANCH  16  20
ENDBRANCH  15  16
ENDBRANCH   1  15
TORSDOF 7
ENDMDL
MODEL 6
REMARK VINA RESULT:      -7.0      0.788      1.997
REMARK  Name = 
REMARK  10 active torsions:
REMARK  status: ('A' for Active; 'I' for Inactive)
REMARK    1  A    between atoms: C_1  and  O_2
REMARK    2  A    between atoms: O_2  and  C_3
REMARK    3  A    between atoms: C_6  and  C_7
REMARK    4  A    between atoms: C_7  and  C_8
REMARK    5  A    between atoms: C_8  and  O_9
REMARK    6  A    between atoms: O_9  and  C_10
REMARK    7  A    between atoms: C_11  and  C_12
REMARK    8  A    between atoms: C_17  and  N_18
REMARK    9  A    between atoms: C_20  and  O_21
REMARK   10  A    between atoms: O_21  and  C_22
REMARK                            x       y       z     vdW  Elec       q    Type
REMARK                         _______ _______ _______ _____ _____    ______ ____
ROOT
ATOM      1  O   UNL     1       7.557   7.448  17.060  0.00  0.00    +0.000 OA
ENDROOT
BRANCH   1   2
ATOM      2  C   UNL     1       6.803   6.360  17.397  0.00  0.00    +0.000 A 
ATOM      3  C   UNL     1       7.024   5.503  18.532  0.00  0.00    +0.000 A 
ATOM      4  C   UNL     1       8.081   5.625  19.600  0.00  0.00    +0.000 C 
ATOM      5  N   UNL     1       6.206   4.435  18.710  0.00  0.00    +0.000 NA
ATOM      6  C   UNL     1       5.190   4.144  17.875  0.00  0.00    +0.000 A 
ATOM      7  N   UNL     1       4.367   3.026  18.131  0.00  0.00    +0.000 N 
ATOM      8  N   UNL     1       4.960   4.926  16.796  0.00  0.00    +0.000 NA
ATOM      9  C   UNL     1       5.732   6.017  16.532  0.00  0.00    +0.000 A 
ATOM     10  H   UNL     1       4.541   2.438  18.960  0.00  0.00    +0.000 HD
ATOM     11  H   UNL     1       3.581   2.798  17.507  0.00  0.00    +0.000 HD
BRANCH   9  12
ATOM     12  N   UNL     1       5.445   6.773  15.365  0.00  0.00    +0.000 N 
ATOM     13  H   UNL     1       4.463   7.005  15.133  0.00  0.00    +0.000 HD
ATOM     14  H   UNL     1       6.178   7.076  14.713  0.00  0.00    +0.000 HD
ENDBRANCH   9  12
ENDBRANCH   1   2
BRANCH   1  15
ATOM     15  C   UNL     1       7.580   8.701  17.639  0.00  0.00    +0.000 C 
BRANCH  15  16
ATOM     16  C   UNL     1       8.731   8.875  18.632  0.00  0.00    +0.000 C 
BRANCH  16  20
ATOM     17  C   UNL     1       9.999  12.967  19.387  0.00  0.00    +0.000 A 
ATOM     18  C   UNL     1       9.790  12.488  18.073  0.00  0.00    +0.000 A 
ATOM     19  C   UNL     1       9.363  11.179  17.846  0.00  0.00    +0.000 A 
ATOM     20  C   UNL     1       9.137  10.307  18.918  0.00  0.00    +0.000 A 
ATOM     21  C   UNL     1       9.319  10.792  20.221  0.00  0.00    +0.000 A 
ATOM     22  C   UNL     1       9.728  12.096  20.475  0.00  0.00    +0.000 A 
BRANCH  17  24
ATOM     23  C   UNL     1       9.725  15.404  19.528  0.00  0.00    +0.000 C 
ATOM     24  O   UNL     1      10.451  14.227  19.624  0.00  0.00    +0.000 OA
ENDBRANCH  17  24
BRANCH  22  25
ATOM     25  O   UNL     1       9.841  12.420  21.791  0.00  0.00    +0.000 OA
ATOM     26  C   UNL     1       8.915  12.998  22.623  0.00  0.00    +0.000 C 
ENDBRANCH  22  25
ENDBRANCH  16  20
ENDBRANCH  15  16
ENDBRANCH   1  15
TORSDOF 7
ENDMDL
MODEL 7
REMARK VINA RESULT:      -6.7      5.349      7.589
REMARK  Name = 
REMARK  10 active torsions:
REMARK  status: ('A' for Active; 'I' for Inactive)
REMARK    1  A    between atoms: C_1  and  O_2
REMARK    2  A    between atoms: O_2  and  C_3
REMARK    3  A    between atoms: C_6  and  C_7
REMARK    4  A    between atoms: C_7  and  C_8
REMARK    5  A    between atoms: C_8  and  O_9
REMARK    6  A    between atoms: O_9  and  C_10
REMARK    7  A    between atoms: C_11  and  C_12
REMARK    8  A    between atoms: C_17  and  N_18
REMARK    9  A    between atoms: C_20  and  O_21
REMARK   10  A    between atoms: O_21  and  C_22
REMARK                            x       y       z     vdW  Elec       q    Type
REMARK                         _______ _______ _______ _____ _____    ______ ____
ROOT
ATOM      1  O   UNL     1       4.433   3.408  17.419  0.00  0.00    +0.000 OA
ENDROOT
BRANCH   1   2
ATOM      2  C   UNL     1       5.292   4.458  17.251  0.00  0.00    +0.000 A 
ATOM      3  C   UNL     1       5.724   4.998  15.989  0.00  0.00    +0.000 A 
ATOM      4  C   UNL     1       5.313   4.569  14.603  0.00  0.00    +0.000 C 
ATOM      5  N   UNL     1       6.613   6.023  15.989  0.00  0.00    +0.000 NA
ATOM      6  C   UNL     1       7.105   6.563  17.120  0.00  0.00    +0.000 A 
ATOM      7  N   UNL     1       8.015   7.641  17.046  0.00  0.00    +0.000 N 
ATOM      8  N   UNL     1       6.724   6.075  18.322  0.00  0.00    +0.000 NA
ATOM      9  C   UNL     1       5.840   5.044  18.421  0.00  0.00    +0.000 A 
ATOM     10  H   UNL     1       8.295   8.015  16.127  0.00  0.00    +0.000 HD
ATOM     11  H   UNL     1       8.390   8.071  17.903  0.00  0.00    +0.000 HD
BRANCH   9  12
ATOM     12  N   UNL     1       5.510   4.569  19.718  0.00  0.00    +0.000 N 
ATOM     13  H   UNL     1       5.701   3.583  19.967  0.00  0.00    +0.000 HD
ATOM     14  H   UNL     1       5.053   5.163  20.421  0.00  0.00    +0.000 HD
ENDBRANCH   9  12
ENDBRANCH   1   2
BRANCH   1  15
ATOM     15  C   UNL     1       3.202   3.192  16.835  0.00  0.00    +0.000 C 
BRANCH  15  16
ATOM     16  C   UNL     1       2.044   3.322  17.828  0.00  0.00    +0.000 C 
BRANCH  16  20
ATOM     17  C   UNL     1       1.933   6.912  20.283  0.00  0.00    +0.000 A 
ATOM     18  C   UNL     1       1.657   5.635  20.825  0.00  0.00    +0.000 A 
ATOM     19  C   UNL     1       1.717   4.490  20.031  0.00  0.00    +0.000 A 
ATOM     20  C   UNL     1       2.047   4.580  18.674  0.00  0.00    +0.000 A 
ATOM     21  C   UNL     1       2.346   5.843  18.143  0.00  0.00    +0.000 A 
ATOM     22  C   UNL     1       2.310   6.998  18.917  0.00  0.00    +0.000 A 
BRANCH  17  24
ATOM     23  C   UNL     1       0.706   8.802  21.260  0.00  0.00    +0.000 C 
ATOM     24  O   UNL     1       1.842   8.041  21.034  0.00  0.00    +0.000 OA
ENDBRANCH  17  24
BRANCH  22  25
ATOM     25  O   UNL     1       2.644   8.142  18.262  0.00  0.00    +0.000 OA
ATOM     26  C   UNL     1       1.824   9.094  17.707  0.00  0.00    +0.000 C 
ENDBRANCH  22  25
ENDBRANCH  16  20
ENDBRANCH  15  16
ENDBRANCH   1  15
TORSDOF 7
ENDMDL
MODEL 8
REMARK VINA RESULT:      -6.6      5.001      6.907
REMARK  Name = 
REMARK  10 active torsions:
REMARK  status: ('A' for Active; 'I' for Inactive)
REMARK    1  A    between atoms: C_1  and  O_2
REMARK    2  A    between atoms: O_2  and  C_3
REMARK    3  A    between atoms: C_6  and  C_7
REMARK    4  A    between atoms: C_7  and  C_8
REMARK    5  A    between atoms: C_8  and  O_9
REMARK    6  A    between atoms: O_9  and  C_10
REMARK    7  A    between atoms: C_11  and  C_12
REMARK    8  A    between atoms: C_17  and  N_18
REMARK    9  A    between atoms: C_20  and  O_21
REMARK   10  A    between atoms: O_21  and  C_22
REMARK                            x       y       z     vdW  Elec       q    Type
REMARK                         _______ _______ _______ _____ _____    ______ ____
ROOT
ATOM      1  O   UNL     1       5.344   4.678  18.772  0.00  0.00    +0.000 OA
ENDROOT
BRANCH   1   2
ATOM      2  C   UNL     1       5.931   4.841  17.549  0.00  0.00    +0.000 A 
ATOM      3  C   UNL     1       6.907   5.843  17.211  0.00  0.00    +0.000 A 
ATOM      4  C   UNL     1       7.517   6.888  18.110  0.00  0.00    +0.000 C 
ATOM      5  N   UNL     1       7.369   5.898  15.937  0.00  0.00    +0.000 NA
ATOM      6  C   UNL     1       6.959   5.051  14.973  0.00  0.00    +0.000 A 
ATOM      7  N   UNL     1       7.496   5.155  13.671  0.00  0.00    +0.000 N 
ATOM      8  N   UNL     1       6.039   4.102  15.256  0.00  0.00    +0.000 NA
ATOM      9  C   UNL     1       5.514   3.973  16.506  0.00  0.00    +0.000 A 
ATOM     10  H   UNL     1       8.204   5.874  13.463  0.00  0.00    +0.000 HD
ATOM     11  H   UNL     1       7.201   4.507  12.928  0.00  0.00    +0.000 HD
BRANCH   9  12
ATOM     12  N   UNL     1       4.531   2.970  16.719  0.00  0.00    +0.000 N 
ATOM     13  H   UNL     1       4.806   2.063  17.136  0.00  0.00    +0.000 HD
ATOM     14  H   UNL     1       3.550   3.095  16.443  0.00  0.00    +0.000 HD
ENDBRANCH   9  12
ENDBRANCH   1   2
BRANCH   1  15
ATOM     15  C   UNL     1       4.486   5.526  19.443  0.00  0.00    +0.000 C 
BRANCH  15  16
ATOM     16  C   UNL     1       3.364   6.063  18.552  0.00  0.00    +0.000 C 
BRANCH  16  20
ATOM     17  C   UNL     1       0.806   9.103  20.323  0.00  0.00    +0.000 A 
ATOM     18  C   UNL     1       1.116   7.905  21.008  0.00  0.00    +0.000 A 
ATOM     19  C   UNL     1       1.954   6.948  20.437  0.00  0.00    +0.000 A 
ATOM     20  C   UNL     1       2.506   7.150  19.167  0.00  0.00    +0.000 A 
ATOM     21  C   UNL     1       2.220   8.350  18.500  0.00  0.00    +0.000 A 
ATOM     22  C   UNL     1       1.400   9.327  19.054  0.00  0.00    +0.000 A 
BRANCH  17  24
ATOM     23  C   UNL     1      -0.073  10.475  22.161  0.00  0.00    +0.000 C 
ATOM     24  O   UNL     1      -0.039  10.028  20.850  0.00  0.00    +0.000 OA
ENDBRANCH  17  24
BRANCH  22  25
ATOM     25  O   UNL     1       1.234  10.442  18.292  0.00  0.00    +0.000 OA
ATOM     26  C   UNL     1       1.848  11.665  18.400  0.00  0.00    +0.000 C 
ENDBRANCH  22  25
ENDBRANCH  16  20
ENDBRANCH  15  16
ENDBRANCH   1  15
TORSDOF 7
ENDMDL
MODEL 9
REMARK VINA RESULT:      -6.6      5.684      7.341
REMARK  Name = 
REMARK  10 active torsions:
REMARK  status: ('A' for Active; 'I' for Inactive)
REMARK    1  A    between atoms: C_1  and  O_2
REMARK    2  A    between atoms: O_2  and  C_3
REMARK    3  A    between atoms: C_6  and  C_7
REMARK    4  A    between atoms: C_7  and  C_8
REMARK    5  A    between atoms: C_8  and  O_9
REMARK    6  A    between atoms: O_9  and  C_10
REMARK    7  A    between atoms: C_11  and  C_12
REMARK    8  A    between atoms: C_17  and  N_18
REMARK    9  A    between atoms: C_20  and  O_21
REMARK   10  A    between atoms: O_21  and  C_22
REMARK                            x       y       z     vdW  Elec       q    Type
REMARK                         _______ _______ _______ _____ _____    ______ ____
ROOT
ATOM      1  O   UNL     1       5.372   5.152  19.033  0.00  0.00    +0.000 OA
ENDROOT
BRANCH   1   2
ATOM      2  C   UNL     1       5.841   5.102  17.750  0.00  0.00    +0.000 A 
ATOM      3  C   UNL     1       5.360   4.229  16.713  0.00  0.00    +0.000 A 
ATOM      4  C   UNL     1       4.236   3.225  16.786  0.00  0.00    +0.000 C 
ATOM      5  N   UNL     1       5.957   4.273  15.495  0.00  0.00    +0.000 NA
ATOM      6  C   UNL     1       6.978   5.104  15.212  0.00  0.00    +0.000 A 
ATOM      7  N   UNL     1       7.542   5.110  13.917  0.00  0.00    +0.000 N 
ATOM      8  N   UNL     1       7.458   5.933  16.167  0.00  0.00    +0.000 NA
ATOM      9  C   UNL     1       6.926   5.955  17.420  0.00  0.00    +0.000 A 
ATOM     10  H   UNL     1       7.166   4.483  13.190  0.00  0.00    +0.000 HD
ATOM     11  H   UNL     1       8.315   5.748  13.683  0.00  0.00    +0.000 HD
BRANCH   9  12
ATOM     12  N   UNL     1       7.502   6.833  18.376  0.00  0.00    +0.000 N 
ATOM     13  H   UNL     1       8.477   7.158  18.252  0.00  0.00    +0.000 HD
ATOM     14  H   UNL     1       6.995   7.140  19.215  0.00  0.00    +0.000 HD
ENDBRANCH   9  12
ENDBRANCH   1   2
BRANCH   1  15
ATOM     15  C   UNL     1       4.183   5.670  19.503  0.00  0.00    +0.000 C 
BRANCH  15  16
ATOM     16  C   UNL     1       3.301   6.236  18.388  0.00  0.00    +0.000 C 
BRANCH  16  20
ATOM     17  C   UNL     1       1.020   9.791  19.430  0.00  0.00    +0.000 A 
ATOM     18  C   UNL     1       1.486   9.570  18.113  0.00  0.00    +0.000 A 
ATOM     19  C   UNL     1       2.198   8.416  17.788  0.00  0.00    +0.000 A 
ATOM     20  C   UNL     1       2.473   7.450  18.763  0.00  0.00    +0.000 A 
ATOM     21  C   UNL     1       1.987   7.657  20.062  0.00  0.00    +0.000 A 
ATOM     22  C   UNL     1       1.261   8.791  20.408  0.00  0.00    +0.000 A 
BRANCH  17  24
ATOM     23  C   UNL     1      -0.767  11.453  19.155  0.00  0.00    +0.000 C 
ATOM     24  O   UNL     1       0.357  10.928  19.771  0.00  0.00    +0.000 OA
ENDBRANCH  17  24
BRANCH  22  25
ATOM     25  O   UNL     1       0.843   8.837  21.702  0.00  0.00    +0.000 OA
ATOM     26  C   UNL     1      -0.435   8.888  22.198  0.00  0.00    +0.000 C 
ENDBRANCH  22  25
ENDBRANCH  16  20
ENDBRANCH  15  16
ENDBRANCH   1  15
TORSDOF 7
ENDMDL
