MODEL 1
REMARK VINA RESULT:      -7.2      0.000      0.000
REMARK  Name = 
REMARK  5 active torsions:
REMARK  status: ('A' for Active; 'I' for Inactive)
REMARK    1  A    between atoms: C_1  and  C_2
REMARK    2  A    between atoms: C_2  and  C_3
REMARK    3  A    between atoms: C_2  and  C_4
REMARK    4  A    between atoms: N_9  and  C_10
REMARK    5  A    between atoms: C_21  and  C_22
REMARK                            x       y       z     vdW  Elec       q    Type
REMARK                         _______ _______ _______ _____ _____    ______ ____
ROOT
ATOM      1  C   UNL     1       1.866   4.951  20.556  0.00  0.00    +0.000 C 
ATOM      2  O   UNL     1       1.629   6.017  21.129  0.00  0.00    +0.000 OA
ATOM      3  N   UNL     1       2.603   4.916  19.379  0.00  0.00    +0.000 N 
ATOM      4  C   UNL     1       3.239   6.141  18.897  0.00  0.00    +0.000 C 
ATOM      5  C   UNL     1       4.653   5.839  18.385  0.00  0.00    +0.000 C 
ATOM      6  N   UNL     1       4.676   4.716  17.443  0.00  0.00    +0.000 N 
ATOM      7  C   UNL     1       3.989   3.547  17.806  0.00  0.00    +0.000 C 
ATOM      8  O   UNL     1       4.304   2.410  17.454  0.00  0.00    +0.000 OA
ATOM      9  C   UNL     1       2.607   3.795  18.426  0.00  0.00    +0.000 C 
ATOM     10  C   UNL     1       1.628   4.048  17.270  0.00  0.00    +0.000 C 
ENDROOT
BRANCH   6  11
ATOM     11  C   UNL     1       5.441   4.762  16.239  0.00  0.00    +0.000 A 
ATOM     12  C   UNL     1       6.687   5.441  16.238  0.00  0.00    +0.000 A 
ATOM     13  C   UNL     1       7.524   5.446  15.122  0.00  0.00    +0.000 A 
ATOM     14  C   UNL     1       7.095   4.778  14.007  0.00  0.00    +0.000 A 
ATOM     15  C   UNL     1       5.886   4.122  13.982  0.00  0.00    +0.000 A 
ATOM     16  C   UNL     1       5.042   4.087  15.076  0.00  0.00    +0.000 A 
ATOM     17  O   UNL     1       5.648   3.536  12.778  0.00  0.00    +0.000 OA
ATOM     18  C   UNL     1       6.824   3.939  12.041  0.00  0.00    +0.000 C 
ATOM     19  O   UNL     1       7.772   4.676  12.836  0.00  0.00    +0.000 OA
ENDBRANCH   6  11
BRANCH   1  21
ATOM     20  C   UNL     1       0.538   2.876  20.255  0.00  0.00    +0.000 C 
ATOM     21  C   UNL     1       1.488   3.611  21.202  0.00  0.00    +0.000 C 
ATOM     22  C   UNL     1       2.712   2.748  21.500  0.00  0.00    +0.000 C 
ENDBRANCH   1  21
TORSDOF 2
ENDMDL
MODEL 2
REMARK VINA RESULT:      -7.2      4.088      6.847
REMARK  Name = 
REMARK  5 active torsions:
REMARK  status: ('A' for Active; 'I' for Inactive)
REMARK    1  A    between atoms: C_1  and  C_2
REMARK    2  A    between atoms: C_2  and  C_3
REMARK    3  A    between atoms: C_2  and  C_4
REMARK    4  A    between atoms: N_9  and  C_10
REMARK    5  A    between atoms: C_21  and  C_22
REMARK                            x       y       z     vdW  Elec       q    Type
REMARK                         _______ _______ _______ _____ _____    ______ ____
ROOT
ATOM      1  C   UNL     1       2.770   2.813  20.192  0.00  0.00    +0.000 C 
ATOM      2  O   UNL     1       2.168   2.171  21.055  0.00  0.00    +0.000 OA
ATOM      3  N   UNL     1       2.400   4.114  19.876  0.00  0.00    +0.000 N 
ATOM      4  C   UNL     1       1.383   4.785  20.686  0.00  0.00    +0.000 C 
ATOM      5  C   UNL     1       1.793   6.239  20.953  0.00  0.00    +0.000 C 
ATOM      6  N   UNL     1       2.174   6.944  19.725  0.00  0.00    +0.000 N 
ATOM      7  C   UNL     1       3.067   6.300  18.854  0.00  0.00    +0.000 C 
ATOM      8  O   UNL     1       3.868   6.877  18.119  0.00  0.00    +0.000 OA
ATOM      9  C   UNL     1       2.768   4.811  18.635  0.00  0.00    +0.000 C 
ATOM     10  C   UNL     1       1.640   4.721  17.595  0.00  0.00    +0.000 C 
ENDROOT
BRANCH   6  11
ATOM     11  C   UNL     1       1.735   8.276  19.458  0.00  0.00    +0.000 A 
ATOM     12  C   UNL     1       1.870   8.797  18.145  0.00  0.00    +0.000 A 
ATOM     13  C   UNL     1       1.379  10.055  17.796  0.00  0.00    +0.000 A 
ATOM     14  C   UNL     1       0.767  10.789  18.777  0.00  0.00    +0.000 A 
ATOM     15  C   UNL     1       0.635  10.308  20.059  0.00  0.00    +0.000 A 
ATOM     16  C   UNL     1       1.098   9.060  20.431  0.00  0.00    +0.000 A 
ATOM     17  O   UNL     1       0.009  11.197  20.876  0.00  0.00    +0.000 OA
ATOM     18  C   UNL     1      -0.193  12.305  19.969  0.00  0.00    +0.000 C 
ATOM     19  O   UNL     1       0.232  12.026  18.622  0.00  0.00    +0.000 OA
ENDBRANCH   6  11
BRANCH   1  21
ATOM     20  C   UNL     1       4.880   1.585  20.639  0.00  0.00    +0.000 C 
ATOM     21  C   UNL     1       4.046   2.256  19.546  0.00  0.00    +0.000 C 
ATOM     22  C   UNL     1       3.739   1.261  18.427  0.00  0.00    +0.000 C 
ENDBRANCH   1  21
TORSDOF 2
ENDMDL
MODEL 3
REMARK VINA RESULT:      -6.9      5.184      7.181
REMARK  Name = 
REMARK  5 active torsions:
REMARK  status: ('A' for Active; 'I' for Inactive)
REMARK    1  A    between atoms: C_1  and  C_2
REMARK    2  A    between atoms: C_2  and  C_3
REMARK    3  A    between atoms: C_2  and  C_4
REMARK    4  A    between atoms: N_9  and  C_10
REMARK    5  A    between atoms: C_21  and  C_22
REMARK                            x       y       z     vdW  Elec       q    Type
REMARK                         _______ _______ _______ _____ _____    ______ ____
ROOT
ATOM      1  C   UNL     1      -0.433  12.205  21.222  0.00  0.00    +0.000 C 
ATOM      2  O   UNL     1      -0.337  12.473  22.421  0.00  0.00    +0.000 OA
ATOM      3  N   UNL     1       0.356  11.221  20.640  0.00  0.00    +0.000 N 
ATOM      4  C   UNL     1       1.203  10.387  21.493  0.00  0.00    +0.000 C 
ATOM      5  C   UNL     1       1.140   8.924  21.033  0.00  0.00    +0.000 C 
ATOM      6  N   UNL     1       1.378   8.783  19.593  0.00  0.00    +0.000 N 
ATOM      7  C   UNL     1       0.672   9.635  18.730  0.00  0.00    +0.000 C 
ATOM      8  O   UNL     1       0.336   9.347  17.580  0.00  0.00    +0.000 OA
ATOM      9  C   UNL     1       0.609  11.095  19.197  0.00  0.00    +0.000 C 
ATOM     10  C   UNL     1       1.941  11.755  18.808  0.00  0.00    +0.000 C 
ENDROOT
BRANCH   6  11
ATOM     11  C   UNL     1       2.223   7.759  19.069  0.00  0.00    +0.000 A 
ATOM     12  C   UNL     1       2.955   8.009  17.879  0.00  0.00    +0.000 A 
ATOM     13  C   UNL     1       3.866   7.087  17.365  0.00  0.00    +0.000 A 
ATOM     14  C   UNL     1       4.025   5.909  18.046  0.00  0.00    +0.000 A 
ATOM     15  C   UNL     1       3.319   5.642  19.195  0.00  0.00    +0.000 A 
ATOM     16  C   UNL     1       2.421   6.542  19.737  0.00  0.00    +0.000 A 
ATOM     17  O   UNL     1       3.618   4.416  19.705  0.00  0.00    +0.000 OA
ATOM     18  C   UNL     1       4.556   3.933  18.717  0.00  0.00    +0.000 C 
ATOM     19  O   UNL     1       4.863   4.900  17.697  0.00  0.00    +0.000 OA
ENDBRANCH   6  11
BRANCH   1  21
ATOM     20  C   UNL     1      -2.846  12.783  21.150  0.00  0.00    +0.000 C 
ATOM     21  C   UNL     1      -1.536  12.838  20.362  0.00  0.00    +0.000 C 
ATOM     22  C   UNL     1      -1.210  14.279  19.974  0.00  0.00    +0.000 C 
ENDBRANCH   1  21
TORSDOF 2
ENDMDL
MODEL 4
REMARK VINA RESULT:      -6.9      1.478      1.933
REMARK  Name = 
REMARK  5 active torsions:
REMARK  status: ('A' for Active; 'I' for Inactive)
REMARK    1  A    between atoms: C_1  and  C_2
REMARK    2  A    between atoms: C_2  and  C_3
REMARK    3  A    between atoms: C_2  and  C_4
REMARK    4  A    between atoms: N_9  and  C_10
REMARK    5  A    between atoms: C_21  and  C_22
REMARK                            x       y       z     vdW  Elec       q    Type
REMARK                         _______ _______ _______ _____ _____    ______ ____
ROOT
ATOM      1  C   UNL     1       1.481   2.798  20.074  0.00  0.00    +0.000 C 
ATOM      2  O   UNL     1       0.276   2.818  19.813  0.00  0.00    +0.000 OA
ATOM      3  N   UNL     1       2.431   3.089  19.104  0.00  0.00    +0.000 N 
ATOM      4  C   UNL     1       1.993   3.576  17.797  0.00  0.00    +0.000 C 
ATOM      5  C   UNL     1       2.903   4.717  17.323  0.00  0.00    +0.000 C 
ATOM      6  N   UNL     1       4.324   4.368  17.411  0.00  0.00    +0.000 N 
ATOM      7  C   UNL     1       4.782   3.795  18.607  0.00  0.00    +0.000 C 
ATOM      8  O   UNL     1       5.922   3.922  19.055  0.00  0.00    +0.000 OA
ATOM      9  C   UNL     1       3.853   2.720  19.186  0.00  0.00    +0.000 C 
ATOM     10  C   UNL     1       4.131   1.417  18.420  0.00  0.00    +0.000 C 
ENDROOT
BRANCH   6  11
ATOM     11  C   UNL     1       5.239   4.679  16.360  0.00  0.00    +0.000 A 
ATOM     12  C   UNL     1       6.241   5.659  16.584  0.00  0.00    +0.000 A 
ATOM     13  C   UNL     1       7.220   5.944  15.633  0.00  0.00    +0.000 A 
ATOM     14  C   UNL     1       7.177   5.251  14.454  0.00  0.00    +0.000 A 
ATOM     15  C   UNL     1       6.208   4.304  14.211  0.00  0.00    +0.000 A 
ATOM     16  C   UNL     1       5.234   3.989  15.139  0.00  0.00    +0.000 A 
ATOM     17  O   UNL     1       6.340   3.744  12.978  0.00  0.00    +0.000 OA
ATOM     18  C   UNL     1       7.472   4.481  12.464  0.00  0.00    +0.000 C 
ATOM     19  O   UNL     1       8.043   5.394  13.419  0.00  0.00    +0.000 OA
ENDBRANCH   6  11
BRANCH   1  21
ATOM     20  C   UNL     1       2.505   3.945  22.022  0.00  0.00    +0.000 C 
ATOM     21  C   UNL     1       1.969   2.604  21.517  0.00  0.00    +0.000 C 
ATOM     22  C   UNL     1       0.861   2.095  22.437  0.00  0.00    +0.000 C 
ENDBRANCH   1  21
TORSDOF 2
ENDMDL
MODEL 5
REMARK VINA RESULT:      -6.9      5.530      7.815
REMARK  Name = 
REMARK  5 active torsions:
REMARK  status: ('A' for Active; 'I' for Inactive)
REMARK    1  A    between atoms: C_1  and  C_2
REMARK    2  A    between atoms: C_2  and  C_3
REMARK    3  A    between atoms: C_2  and  C_4
REMARK    4  A    between atoms: N_9  and  C_10
REMARK    5  A    between atoms: C_21  and  C_22
REMARK                            x       y       z     vdW  Elec       q    Type
REMARK                         _______ _______ _______ _____ _____    ______ ____
ROOT
ATOM      1  C   UNL     1      -1.332  12.374  21.511  0.00  0.00    +0.000 C 
ATOM      2  O   UNL     1      -2.182  12.834  20.746  0.00  0.00    +0.000 OA
ATOM      3  N   UNL     1      -0.704  11.164  21.243  0.00  0.00    +0.000 N 
ATOM      4  C   UNL     1      -0.942  10.505  19.959  0.00  0.00    +0.000 C 
ATOM      5  C   UNL     1       0.372   9.941  19.401  0.00  0.00    +0.000 C 
ATOM      6  N   UNL     1       1.096   9.134  20.389  0.00  0.00    +0.000 N 
ATOM      7  C   UNL     1       1.260   9.672  21.675  0.00  0.00    +0.000 C 
ATOM      8  O   UNL     1       2.212   9.434  22.419  0.00  0.00    +0.000 OA
ATOM      9  C   UNL     1       0.003  10.348  22.241  0.00  0.00    +0.000 C 
ATOM     10  C   UNL     1      -0.904   9.235  22.789  0.00  0.00    +0.000 C 
ENDROOT
BRANCH   6  11
ATOM     11  C   UNL     1       1.696   7.887  20.044  0.00  0.00    +0.000 A 
ATOM     12  C   UNL     1       1.440   6.749  20.852  0.00  0.00    +0.000 A 
ATOM     13  C   UNL     1       1.921   5.483  20.519  0.00  0.00    +0.000 A 
ATOM     14  C   UNL     1       2.673   5.372  19.380  0.00  0.00    +0.000 A 
ATOM     15  C   UNL     1       2.943   6.463  18.588  0.00  0.00    +0.000 A 
ATOM     16  C   UNL     1       2.468   7.727  18.883  0.00  0.00    +0.000 A 
ATOM     17  O   UNL     1       3.713   6.137  17.514  0.00  0.00    +0.000 OA
ATOM     18  C   UNL     1       3.929   4.728  17.753  0.00  0.00    +0.000 C 
ATOM     19  O   UNL     1       3.221   4.226  18.902  0.00  0.00    +0.000 OA
ENDBRANCH   6  11
BRANCH   1  21
ATOM     20  C   UNL     1      -0.019  14.375  22.165  0.00  0.00    +0.000 C 
ATOM     21  C   UNL     1      -0.824  13.192  22.706  0.00  0.00    +0.000 C 
ATOM     22  C   UNL     1      -1.965  13.688  23.593  0.00  0.00    +0.000 C 
ENDBRANCH   1  21
TORSDOF 2
ENDMDL
MODEL 6
REMARK VINA RESULT:      -6.8      6.710      8.768
REMARK  Name = 
REMARK  5 active torsions:
REMARK  status: ('A' for Active; 'I' for Inactive)
REMARK    1  A    between atoms: C_1  and  C_2
REMARK    2  A    between atoms: C_2  and  C_3
REMARK    3  A    between atoms: C_2  and  C_4
REMARK    4  A    between atoms: N_9  and  C_10
REMARK    5  A    between atoms: C_21  and  C_22
REMARK                            x       y       z     vdW  Elec       q    Type
REMARK                         _______ _______ _______ _____ _____    ______ ____
ROOT
ATOM      1  C   UNL     1      -1.989  13.636  21.535  0.00  0.00    +0.000 C 
ATOM      2  O   UNL     1      -1.581  14.256  22.519  0.00  0.00    +0.000 OA
ATOM      3  N   UNL     1      -1.194  12.690  20.901  0.00  0.00    +0.000 N 
ATOM      4  C   UNL     1       0.085  12.314  21.502  0.00  0.00    +0.000 C 
ATOM      5  C   UNL     1       0.289  10.795  21.408  0.00  0.00    +0.000 C 
ATOM      6  N   UNL     1       0.066  10.286  20.052  0.00  0.00    +0.000 N 
ATOM      7  C   UNL     1      -1.095  10.702  19.383  0.00  0.00    +0.000 C 
ATOM      8  O   UNL     1      -1.697  10.034  18.541  0.00  0.00    +0.000 OA
ATOM      9  C   UNL     1      -1.408  12.197  19.532  0.00  0.00    +0.000 C 
ATOM     10  C   UNL     1      -0.523  12.950  18.527  0.00  0.00    +0.000 C 
ENDROOT
BRANCH   6  11
ATOM     11  C   UNL     1       0.942   9.330  19.456  0.00  0.00    +0.000 A 
ATOM     12  C   UNL     1       1.472   9.588  18.165  0.00  0.00    +0.000 A 
ATOM     13  C   UNL     1       2.403   8.740  17.566  0.00  0.00    +0.000 A 
ATOM     14  C   UNL     1       2.786   7.627  18.265  0.00  0.00    +0.000 A 
ATOM     15  C   UNL     1       2.277   7.352  19.513  0.00  0.00    +0.000 A 
ATOM     16  C   UNL     1       1.365   8.180  20.139  0.00  0.00    +0.000 A 
ATOM     17  O   UNL     1       2.779   6.195  20.026  0.00  0.00    +0.000 OA
ATOM     18  C   UNL     1       3.623   5.759  18.936  0.00  0.00    +0.000 C 
ATOM     19  O   UNL     1       3.676   6.694  17.843  0.00  0.00    +0.000 OA
ENDBRANCH   6  11
BRANCH   1  21
ATOM     20  C   UNL     1      -4.325  12.942  22.003  0.00  0.00    +0.000 C 
ATOM     21  C   UNL     1      -3.445  13.773  21.068  0.00  0.00    +0.000 C 
ATOM     22  C   UNL     1      -3.912  15.228  21.053  0.00  0.00    +0.000 C 
ENDBRANCH   1  21
TORSDOF 2
ENDMDL
MODEL 7
REMARK VINA RESULT:      -6.8      5.024      7.144
REMARK  Name = 
REMARK  5 active torsions:
REMARK  status: ('A' for Active; 'I' for Inactive)
REMARK    1  A    between atoms: C_1  and  C_2
REMARK    2  A    between atoms: C_2  and  C_3
REMARK    3  A    between atoms: C_2  and  C_4
REMARK    4  A    between atoms: N_9  and  C_10
REMARK    5  A    between atoms: C_21  and  C_22
REMARK                            x       y       z     vdW  Elec       q    Type
REMARK                         _______ _______ _______ _____ _____    ______ ____
ROOT
ATOM      1  C   UNL     1      -1.329  11.776  20.929  0.00  0.00    +0.000 C 
ATOM      2  O   UNL     1      -2.065  12.352  20.126  0.00  0.00    +0.000 OA
ATOM      3  N   UNL     1      -0.584  10.665  20.551  0.00  0.00    +0.000 N 
ATOM      4  C   UNL     1      -0.556  10.269  19.144  0.00  0.00    +0.000 C 
ATOM      5  C   UNL     1       0.868   9.870  18.734  0.00  0.00    +0.000 C 
ATOM      6  N   UNL     1       1.466   8.906  19.663  0.00  0.00    +0.000 N 
ATOM      7  C   UNL     1       1.373   9.182  21.036  0.00  0.00    +0.000 C 
ATOM      8  O   UNL     1       2.199   8.831  21.880  0.00  0.00    +0.000 OA
ATOM      9  C   UNL     1      -0.004   9.689  21.486  0.00  0.00    +0.000 C 
ATOM     10  C   UNL     1      -0.914   8.461  21.640  0.00  0.00    +0.000 C 
ENDROOT
BRANCH   6  11
ATOM     11  C   UNL     1       2.199   7.773  19.200  0.00  0.00    +0.000 A 
ATOM     12  C   UNL     1       2.954   7.881  18.003  0.00  0.00    +0.000 A 
ATOM     13  C   UNL     1       3.764   6.842  17.545  0.00  0.00    +0.000 A 
ATOM     14  C   UNL     1       3.796   5.692  18.287  0.00  0.00    +0.000 A 
ATOM     15  C   UNL     1       3.064   5.561  19.443  0.00  0.00    +0.000 A 
ATOM     16  C   UNL     1       2.265   6.578  19.931  0.00  0.00    +0.000 A 
ATOM     17  O   UNL     1       3.231   4.339  20.018  0.00  0.00    +0.000 OA
ATOM     18  C   UNL     1       4.113   3.708  19.064  0.00  0.00    +0.000 C 
ATOM     19  O   UNL     1       4.523   4.583  17.996  0.00  0.00    +0.000 OA
ENDBRANCH   6  11
BRANCH   1  21
ATOM     20  C   UNL     1      -0.684  13.823  22.175  0.00  0.00    +0.000 C 
ATOM     21  C   UNL     1      -1.087  12.355  22.329  0.00  0.00    +0.000 C 
ATOM     22  C   UNL     1      -2.319  12.235  23.225  0.00  0.00    +0.000 C 
ENDBRANCH   1  21
TORSDOF 2
ENDMDL
MODEL 8
REMARK VINA RESULT:      -6.8      0.682      1.444
REMARK  Name = 
REMARK  5 active torsions:
REMARK  status: ('A' for Active; 'I' for Inactive)
REMARK    1  A    between atoms: C_1  and  C_2
REMARK    2  A    between atoms: C_2  and  C_3
REMARK    3  A    between atoms: C_2  and  C_4
REMARK    4  A    between atoms: N_9  and  C_10
REMARK    5  A    between atoms: C_21  and  C_22
REMARK                            x       y       z     vdW  Elec       q    Type
REMARK                         _______ _______ _______ _____ _____    ______ ____
ROOT
ATOM      1  C   UNL     1       1.870   5.137  20.378  0.00  0.00    +0.000 C 
ATOM      2  O   UNL     1       1.710   6.242  20.901  0.00  0.00    +0.000 OA
ATOM      3  N   UNL     1       2.570   5.001  19.187  0.00  0.00    +0.000 N 
ATOM      4  C   UNL     1       3.259   6.163  18.625  0.00  0.00    +0.000 C 
ATOM      5  C   UNL     1       4.639   5.755  18.092  0.00  0.00    +0.000 C 
ATOM      6  N   UNL     1       4.571   4.586  17.209  0.00  0.00    +0.000 N 
ATOM      7  C   UNL     1       3.831   3.479  17.650  0.00  0.00    +0.000 C 
ATOM      8  O   UNL     1       4.072   2.309  17.350  0.00  0.00    +0.000 OA
ATOM      9  C   UNL     1       2.484   3.836  18.293  0.00  0.00    +0.000 C 
ATOM     10  C   UNL     1       1.487   4.086  17.151  0.00  0.00    +0.000 C 
ENDROOT
BRANCH   6  11
ATOM     11  C   UNL     1       5.303   4.528  15.985  0.00  0.00    +0.000 A 
ATOM     12  C   UNL     1       4.746   3.833  14.880  0.00  0.00    +0.000 A 
ATOM     13  C   UNL     1       5.366   3.815  13.631  0.00  0.00    +0.000 A 
ATOM     14  C   UNL     1       6.553   4.486  13.505  0.00  0.00    +0.000 A 
ATOM     15  C   UNL     1       7.116   5.157  14.565  0.00  0.00    +0.000 A 
ATOM     16  C   UNL     1       6.518   5.206  15.810  0.00  0.00    +0.000 A 
ATOM     17  O   UNL     1       8.296   5.745  14.229  0.00  0.00    +0.000 OA
ATOM     18  C   UNL     1       8.427   5.325  12.852  0.00  0.00    +0.000 C 
ATOM     19  O   UNL     1       7.294   4.577  12.371  0.00  0.00    +0.000 OA
ENDBRANCH   6  11
BRANCH   1  21
ATOM     20  C   UNL     1       0.501   3.077  20.176  0.00  0.00    +0.000 C 
ATOM     21  C   UNL     1       1.437   3.856  21.103  0.00  0.00    +0.000 C 
ATOM     22  C   UNL     1       2.628   2.988  21.504  0.00  0.00    +0.000 C 
ENDBRANCH   1  21
TORSDOF 2
ENDMDL
MODEL 9
REMARK VINA RESULT:      -6.8      5.192      6.965
REMARK  Name = 
REMARK  5 active torsions:
REMARK  status: ('A' for Active; 'I' for Inactive)
REMARK    1  A    between atoms: C_1  and  C_2
REMARK    2  A    between atoms: C_2  and  C_3
REMARK    3  A    between atoms: C_2  and  C_4
REMARK    4  A    between atoms: N_9  and  C_10
REMARK    5  A    between atoms: C_21  and  C_22
REMARK                            x       y       z     vdW  Elec       q    Type
REMARK                         _______ _______ _______ _____ _____    ______ ____
ROOT
ATOM      1  C   UNL     1      -0.516  11.954  21.559  0.00  0.00    +0.000 C 
ATOM      2  O   UNL     1      -0.438  12.133  22.776  0.00  0.00    +0.000 OA
ATOM      3  N   UNL     1       0.299  11.033  20.915  0.00  0.00    +0.000 N 
ATOM      4  C   UNL     1       1.153  10.153  21.712  0.00  0.00    +0.000 C 
ATOM      5  C   UNL     1       1.126   8.728  21.143  0.00  0.00    +0.000 C 
ATOM      6  N   UNL     1       1.382   8.700  19.700  0.00  0.00    +0.000 N 
ATOM      7  C   UNL     1       0.668   9.601  18.894  0.00  0.00    +0.000 C 
ATOM      8  O   UNL     1       0.350   9.394  17.722  0.00  0.00    +0.000 OA
ATOM      9  C   UNL     1       0.570  11.020  19.469  0.00  0.00    +0.000 C 
ATOM     10  C   UNL     1       1.892  11.734  19.147  0.00  0.00    +0.000 C 
ENDROOT
BRANCH   6  11
ATOM     11  C   UNL     1       2.253   7.736  19.111  0.00  0.00    +0.000 A 
ATOM     12  C   UNL     1       2.287   6.420  19.642  0.00  0.00    +0.000 A 
ATOM     13  C   UNL     1       3.047   5.407  19.058  0.00  0.00    +0.000 A 
ATOM     14  C   UNL     1       3.783   5.729  17.949  0.00  0.00    +0.000 A 
ATOM     15  C   UNL     1       3.773   7.000  17.423  0.00  0.00    +0.000 A 
ATOM     16  C   UNL     1       3.019   8.021  17.971  0.00  0.00    +0.000 A 
ATOM     17  O   UNL     1       4.578   7.108  16.332  0.00  0.00    +0.000 OA
ATOM     18  C   UNL     1       5.125   5.772  16.264  0.00  0.00    +0.000 C 
ATOM     19  O   UNL     1       4.577   4.878  17.251  0.00  0.00    +0.000 OA
ENDBRANCH   6  11
BRANCH   1  21
ATOM     20  C   UNL     1      -2.899  12.646  21.577  0.00  0.00    +0.000 C 
ATOM     21  C   UNL     1      -1.622  12.628  20.735  0.00  0.00    +0.000 C 
ATOM     22  C   UNL     1      -1.244  14.047  20.313  0.00  0.00    +0.000 C 
ENDBRANCH   1  21
TORSDOF 2
ENDMDL
