MODEL 1
REMARK VINA RESULT:      -8.2      0.000      0.000
REMARK  Name = 
REMARK  7 active torsions:
REMARK  status: ('A' for Active; 'I' for Inactive)
REMARK    1  A    between atoms: C_2  and  C_3
REMARK    2  A    between atoms: C_3  and  C_4
REMARK    3  A    between atoms: C_10  and  C_11
REMARK    4  A    between atoms: C_11  and  C_12
REMARK    5  A    between atoms: C_12  and  C_13
REMARK    6  A    between atoms: C_13  and  C_14
REMARK    7  A    between atoms: C_14  and  N_15
REMARK                            x       y       z     vdW  Elec       q    Type
REMARK                         _______ _______ _______ _____ _____    ______ ____
ROOT
ATOM      1  C   UNL     1       8.590   9.452  17.879  0.00  0.00    +0.000 C 
ENDROOT
BRANCH   1   2
ATOM      2  C   UNL     1       8.160   8.037  18.272  0.00  0.00    +0.000 C 
BRANCH   2   3
ATOM      3  C   UNL     1       6.953   7.554  17.454  0.00  0.00    +0.000 C 
BRANCH   3   9
ATOM      4  O   UNL     1       4.878   2.701  19.962  0.00  0.00    +0.000 OA
ATOM      5  C   UNL     1       4.463   3.373  19.018  0.00  0.00    +0.000 C 
ATOM      6  N   UNL     1       5.186   4.443  18.487  0.00  0.00    +0.000 N 
ATOM      7  C   UNL     1       4.704   5.326  17.425  0.00  0.00    +0.000 C 
ATOM      8  C   UNL     1       5.786   5.522  16.369  0.00  0.00    +0.000 C 
ATOM      9  C   UNL     1       7.079   6.088  16.976  0.00  0.00    +0.000 C 
ATOM     10  C   UNL     1       7.532   5.155  18.120  0.00  0.00    +0.000 C 
ATOM     11  C   UNL     1       6.425   4.865  19.139  0.00  0.00    +0.000 C 
BRANCH   5  12
ATOM     12  C   UNL     1       3.109   3.098  18.371  0.00  0.00    +0.000 C 
BRANCH  12  13
ATOM     13  C   UNL     1       2.037   2.595  19.294  0.00  0.00    +0.000 C 
ATOM     14  C   UNL     1       1.066   3.587  19.887  0.00  0.00    +0.000 C 
ATOM     15  C   UNL     1       0.592   2.601  18.859  0.00  0.00    +0.000 C 
ENDBRANCH  12  13
ENDBRANCH   5  12
ENDBRANCH   3   9
ENDBRANCH   2   3
ENDBRANCH   1   2
BRANCH   1  16
ATOM     16  C   UNL     1       9.140  10.227  19.078  0.00  0.00    +0.000 C 
BRANCH  16  17
ATOM     17  N   UNL     1       9.538  11.569  18.698  0.00  0.00    +0.000 N 
ATOM     18  C   UNL     1      10.443  12.268  19.464  0.00  0.00    +0.000 C 
ATOM     19  O   UNL     1      10.960  11.807  20.479  0.00  0.00    +0.000 OA
ATOM     20  N   UNL     1      10.718  13.526  18.989  0.00  0.00    +0.000 N 
ATOM     21  C   UNL     1      11.707  14.383  19.649  0.00  0.00    +0.000 C 
ATOM     22  C   UNL     1      11.592  15.676  18.904  0.00  0.00    +0.000 A 
ATOM     23  C   UNL     1      12.333  16.836  19.019  0.00  0.00    +0.000 A 
ATOM     24  C   UNL     1      11.972  17.885  18.183  0.00  0.00    +0.000 A 
ATOM     25  N   UNL     1      10.953  17.841  17.284  0.00  0.00    +0.000 NA
ATOM     26  C   UNL     1      10.250  16.691  17.199  0.00  0.00    +0.000 A 
ATOM     27  C   UNL     1      10.547  15.603  17.985  0.00  0.00    +0.000 A 
ATOM     28  C   UNL     1       9.901  14.266  18.028  0.00  0.00    +0.000 C 
ATOM     29  H   UNL     1       9.676  11.716  17.710  0.00  0.00    +0.000 HD
ENDBRANCH  16  17
ENDBRANCH   1  16
TORSDOF 7
ENDMDL
MODEL 2
REMARK VINA RESULT:      -8.1      1.803      2.144
REMARK  Name = 
REMARK  7 active torsions:
REMARK  status: ('A' for Active; 'I' for Inactive)
REMARK    1  A    between atoms: C_2  and  C_3
REMARK    2  A    between atoms: C_3  and  C_4
REMARK    3  A    between atoms: C_10  and  C_11
REMARK    4  A    between atoms: C_11  and  C_12
REMARK    5  A    between atoms: C_12  and  C_13
REMARK    6  A    between atoms: C_13  and  C_14
REMARK    7  A    between atoms: C_14  and  N_15
REMARK                            x       y       z     vdW  Elec       q    Type
REMARK                         _______ _______ _______ _____ _____    ______ ____
ROOT
ATOM      1  C   UNL     1       8.057   8.584  17.581  0.00  0.00    +0.000 C 
ENDROOT
BRANCH   1   2
ATOM      2  C   UNL     1       7.462   7.283  18.126  0.00  0.00    +0.000 C 
BRANCH   2   3
ATOM      3  C   UNL     1       7.172   6.270  17.009  0.00  0.00    +0.000 C 
BRANCH   3   9
ATOM      4  O   UNL     1       2.327   3.005  17.083  0.00  0.00    +0.000 OA
ATOM      5  C   UNL     1       2.627   4.034  17.689  0.00  0.00    +0.000 C 
ATOM      6  N   UNL     1       3.806   4.736  17.431  0.00  0.00    +0.000 N 
ATOM      7  C   UNL     1       4.252   5.913  18.177  0.00  0.00    +0.000 C 
ATOM      8  C   UNL     1       4.707   7.006  17.216  0.00  0.00    +0.000 C 
ATOM      9  C   UNL     1       5.827   6.518  16.286  0.00  0.00    +0.000 C 
ATOM     10  C   UNL     1       5.336   5.252  15.550  0.00  0.00    +0.000 C 
ATOM     11  C   UNL     1       4.782   4.180  16.494  0.00  0.00    +0.000 C 
BRANCH   5  12
ATOM     12  C   UNL     1       1.739   4.606  18.789  0.00  0.00    +0.000 C 
BRANCH  12  13
ATOM     13  C   UNL     1       2.055   4.148  20.184  0.00  0.00    +0.000 C 
ATOM     14  C   UNL     1       1.247   3.018  20.777  0.00  0.00    +0.000 C 
ATOM     15  C   UNL     1       2.688   2.798  20.418  0.00  0.00    +0.000 C 
ENDBRANCH  12  13
ENDBRANCH   5  12
ENDBRANCH   3   9
ENDBRANCH   2   3
ENDBRANCH   1   2
BRANCH   1  16
ATOM     16  C   UNL     1       8.865   9.324  18.649  0.00  0.00    +0.000 C 
BRANCH  16  17
ATOM     17  N   UNL     1       8.780  10.761  18.468  0.00  0.00    +0.000 N 
ATOM     18  C   UNL     1       9.893  11.479  18.089  0.00  0.00    +0.000 C 
ATOM     19  O   UNL     1      10.986  10.961  17.879  0.00  0.00    +0.000 OA
ATOM     20  N   UNL     1       9.666  12.827  17.965  0.00  0.00    +0.000 N 
ATOM     21  C   UNL     1      10.726  13.732  17.511  0.00  0.00    +0.000 C 
ATOM     22  C   UNL     1      10.105  15.086  17.650  0.00  0.00    +0.000 A 
ATOM     23  C   UNL     1      10.593  16.328  17.294  0.00  0.00    +0.000 A 
ATOM     24  C   UNL     1       9.773  17.416  17.567  0.00  0.00    +0.000 A 
ATOM     25  N   UNL     1       8.549  17.333  18.154  0.00  0.00    +0.000 NA
ATOM     26  C   UNL     1       8.104  16.102  18.488  0.00  0.00    +0.000 A 
ATOM     27  C   UNL     1       8.850  14.973  18.247  0.00  0.00    +0.000 A 
ATOM     28  C   UNL     1       8.529  13.551  18.532  0.00  0.00    +0.000 C 
ATOM     29  H   UNL     1       7.939  11.093  18.023  0.00  0.00    +0.000 HD
ENDBRANCH  16  17
ENDBRANCH   1  16
TORSDOF 7
ENDMDL
MODEL 3
REMARK VINA RESULT:      -7.8      2.153     12.025
REMARK  Name = 
REMARK  7 active torsions:
REMARK  status: ('A' for Active; 'I' for Inactive)
REMARK    1  A    between atoms: C_2  and  C_3
REMARK    2  A    between atoms: C_3  and  C_4
REMARK    3  A    between atoms: C_10  and  C_11
REMARK    4  A    between atoms: C_11  and  C_12
REMARK    5  A    between atoms: C_12  and  C_13
REMARK    6  A    between atoms: C_13  and  C_14
REMARK    7  A    between atoms: C_14  and  N_15
REMARK                            x       y       z     vdW  Elec       q    Type
REMARK                         _______ _______ _______ _____ _____    ______ ____
ROOT
ATOM      1  C   UNL     1       7.874   8.022  17.787  0.00  0.00    +0.000 C 
ENDROOT
BRANCH   1   2
ATOM      2  C   UNL     1       8.491   9.049  18.740  0.00  0.00    +0.000 C 
BRANCH   2   3
ATOM      3  C   UNL     1       9.107  10.237  17.985  0.00  0.00    +0.000 C 
BRANCH   3   9
ATOM      4  O   UNL     1      10.697  15.848  17.639  0.00  0.00    +0.000 OA
ATOM      5  C   UNL     1       9.972  15.254  18.437  0.00  0.00    +0.000 C 
ATOM      6  N   UNL     1       9.818  13.866  18.416  0.00  0.00    +0.000 N 
ATOM      7  C   UNL     1       8.907  13.118  19.281  0.00  0.00    +0.000 C 
ATOM      8  C   UNL     1       9.620  11.911  19.882  0.00  0.00    +0.000 C 
ATOM      9  C   UNL     1      10.191  10.987  18.795  0.00  0.00    +0.000 C 
ATOM     10  C   UNL     1      11.111  11.820  17.876  0.00  0.00    +0.000 C 
ATOM     11  C   UNL     1      10.443  13.092  17.343  0.00  0.00    +0.000 C 
BRANCH   5  12
ATOM     12  C   UNL     1       9.165  15.997  19.497  0.00  0.00    +0.000 C 
BRANCH  12  13
ATOM     13  C   UNL     1       9.936  16.443  20.706  0.00  0.00    +0.000 C 
ATOM     14  C   UNL     1       9.369  16.150  22.075  0.00  0.00    +0.000 C 
ATOM     15  C   UNL     1      10.597  15.427  21.605  0.00  0.00    +0.000 C 
ENDBRANCH  12  13
ENDBRANCH   5  12
ENDBRANCH   3   9
ENDBRANCH   2   3
ENDBRANCH   1   2
BRANCH   1  16
ATOM     16  C   UNL     1       8.058   6.594  18.304  0.00  0.00    +0.000 C 
BRANCH  16  17
ATOM     17  N   UNL     1       6.783   5.988  18.639  0.00  0.00    +0.000 N 
ATOM     18  C   UNL     1       6.259   4.991  17.846  0.00  0.00    +0.000 C 
ATOM     19  O   UNL     1       6.828   4.561  16.846  0.00  0.00    +0.000 OA
ATOM     20  N   UNL     1       5.045   4.520  18.278  0.00  0.00    +0.000 N 
ATOM     21  C   UNL     1       4.374   3.416  17.587  0.00  0.00    +0.000 C 
ATOM     22  C   UNL     1       3.055   3.322  18.288  0.00  0.00    +0.000 A 
ATOM     23  C   UNL     1       2.030   2.410  18.132  0.00  0.00    +0.000 A 
ATOM     24  C   UNL     1       0.910   2.597  18.934  0.00  0.00    +0.000 A 
ATOM     25  N   UNL     1       0.766   3.603  19.837  0.00  0.00    +0.000 NA
ATOM     26  C   UNL     1       1.788   4.476  19.962  0.00  0.00    +0.000 A 
ATOM     27  C   UNL     1       2.935   4.358  19.212  0.00  0.00    +0.000 A 
ATOM     28  C   UNL     1       4.156   5.204  19.216  0.00  0.00    +0.000 C 
ATOM     29  H   UNL     1       6.627   5.821  19.620  0.00  0.00    +0.000 HD
ENDBRANCH  16  17
ENDBRANCH   1  16
TORSDOF 7
ENDMDL
MODEL 4
REMARK VINA RESULT:      -7.7      2.161     12.259
REMARK  Name = 
REMARK  7 active torsions:
REMARK  status: ('A' for Active; 'I' for Inactive)
REMARK    1  A    between atoms: C_2  and  C_3
REMARK    2  A    between atoms: C_3  and  C_4
REMARK    3  A    between atoms: C_10  and  C_11
REMARK    4  A    between atoms: C_11  and  C_12
REMARK    5  A    between atoms: C_12  and  C_13
REMARK    6  A    between atoms: C_13  and  C_14
REMARK    7  A    between atoms: C_14  and  N_15
REMARK                            x       y       z     vdW  Elec       q    Type
REMARK                         _______ _______ _______ _____ _____    ______ ____
ROOT
ATOM      1  C   UNL     1       8.250   8.828  18.622  0.00  0.00    +0.000 C 
ENDROOT
BRANCH   1   2
ATOM      2  C   UNL     1       9.016  10.089  18.214  0.00  0.00    +0.000 C 
BRANCH   2   3
ATOM      3  C   UNL     1       9.493  10.893  19.433  0.00  0.00    +0.000 C 
BRANCH   3   9
ATOM      4  O   UNL     1      11.184  15.673  16.529  0.00  0.00    +0.000 OA
ATOM      5  C   UNL     1      10.991  15.473  17.728  0.00  0.00    +0.000 C 
ATOM      6  N   UNL     1      10.706  14.204  18.238  0.00  0.00    +0.000 N 
ATOM      7  C   UNL     1      10.386  13.923  19.637  0.00  0.00    +0.000 C 
ATOM      8  C   UNL     1      11.180  12.719  20.130  0.00  0.00    +0.000 C 
ATOM      9  C   UNL     1      10.918  11.472  19.270  0.00  0.00    +0.000 C 
ATOM     10  C   UNL     1      11.225  11.820  17.797  0.00  0.00    +0.000 C 
ATOM     11  C   UNL     1      10.512  13.087  17.313  0.00  0.00    +0.000 C 
BRANCH   5  12
ATOM     12  C   UNL     1      11.026  16.606  18.748  0.00  0.00    +0.000 C 
BRANCH  12  13
ATOM     13  C   UNL     1      10.142  17.782  18.444  0.00  0.00    +0.000 C 
ATOM     14  C   UNL     1       8.680  17.704  18.813  0.00  0.00    +0.000 C 
ATOM     15  C   UNL     1       9.592  18.631  19.564  0.00  0.00    +0.000 C 
ENDBRANCH  12  13
ENDBRANCH   5  12
ENDBRANCH   3   9
ENDBRANCH   2   3
ENDBRANCH   1   2
BRANCH   1  16
ATOM     16  C   UNL     1       8.017   7.900  17.428  0.00  0.00    +0.000 C 
BRANCH  16  17
ATOM     17  N   UNL     1       7.171   6.779  17.793  0.00  0.00    +0.000 N 
ATOM     18  C   UNL     1       6.127   6.404  16.977  0.00  0.00    +0.000 C 
ATOM     19  O   UNL     1       5.865   6.972  15.919  0.00  0.00    +0.000 OA
ATOM     20  N   UNL     1       5.408   5.336  17.452  0.00  0.00    +0.000 N 
ATOM     21  C   UNL     1       4.301   4.768  16.679  0.00  0.00    +0.000 C 
ATOM     22  C   UNL     1       3.727   3.741  17.603  0.00  0.00    +0.000 A 
ATOM     23  C   UNL     1       2.716   2.824  17.395  0.00  0.00    +0.000 A 
ATOM     24  C   UNL     1       2.398   2.000  18.468  0.00  0.00    +0.000 A 
ATOM     25  N   UNL     1       3.005   2.046  19.684  0.00  0.00    +0.000 NA
ATOM     26  C   UNL     1       3.989   2.956  19.852  0.00  0.00    +0.000 A 
ATOM     27  C   UNL     1       4.370   3.804  18.839  0.00  0.00    +0.000 A 
ATOM     28  C   UNL     1       5.423   4.850  18.831  0.00  0.00    +0.000 C 
ATOM     29  H   UNL     1       7.649   5.988  18.194  0.00  0.00    +0.000 HD
ENDBRANCH  16  17
ENDBRANCH   1  16
TORSDOF 7
ENDMDL
MODEL 5
REMARK VINA RESULT:      -7.6      2.295     12.103
REMARK  Name = 
REMARK  7 active torsions:
REMARK  status: ('A' for Active; 'I' for Inactive)
REMARK    1  A    between atoms: C_2  and  C_3
REMARK    2  A    between atoms: C_3  and  C_4
REMARK    3  A    between atoms: C_10  and  C_11
REMARK    4  A    between atoms: C_11  and  C_12
REMARK    5  A    between atoms: C_12  and  C_13
REMARK    6  A    between atoms: C_13  and  C_14
REMARK    7  A    between atoms: C_14  and  N_15
REMARK                            x       y       z     vdW  Elec       q    Type
REMARK                         _______ _______ _______ _____ _____    ______ ____
ROOT
ATOM      1  C   UNL     1       8.334   7.953  18.265  0.00  0.00    +0.000 C 
ENDROOT
BRANCH   1   2
ATOM      2  C   UNL     1       8.335   9.475  18.098  0.00  0.00    +0.000 C 
BRANCH   2   3
ATOM      3  C   UNL     1       9.181  10.171  19.174  0.00  0.00    +0.000 C 
BRANCH   3   9
ATOM      4  O   UNL     1       9.626  15.997  19.189  0.00  0.00    +0.000 OA
ATOM      5  C   UNL     1      10.146  15.138  19.900  0.00  0.00    +0.000 C 
ATOM      6  N   UNL     1      10.003  13.772  19.647  0.00  0.00    +0.000 N 
ATOM      7  C   UNL     1      10.527  12.709  20.505  0.00  0.00    +0.000 C 
ATOM      8  C   UNL     1      11.237  11.653  19.664  0.00  0.00    +0.000 C 
ATOM      9  C   UNL     1      10.309  11.057  18.595  0.00  0.00    +0.000 C 
ATOM     10  C   UNL     1       9.742  12.211  17.739  0.00  0.00    +0.000 C 
ATOM     11  C   UNL     1       9.113  13.331  18.574  0.00  0.00    +0.000 C 
BRANCH   5  12
ATOM     12  C   UNL     1      10.970  15.504  21.130  0.00  0.00    +0.000 C 
BRANCH  12  13
ATOM     13  C   UNL     1      10.357  16.528  22.042  0.00  0.00    +0.000 C 
ATOM     14  C   UNL     1      10.495  16.344  23.535  0.00  0.00    +0.000 C 
ATOM     15  C   UNL     1      11.236  17.454  22.847  0.00  0.00    +0.000 C 
ENDBRANCH  12  13
ENDBRANCH   5  12
ENDBRANCH   3   9
ENDBRANCH   2   3
ENDBRANCH   1   2
BRANCH   1  16
ATOM     16  C   UNL     1       7.368   7.280  17.287  0.00  0.00    +0.000 C 
BRANCH  16  17
ATOM     17  N   UNL     1       6.246   6.682  17.986  0.00  0.00    +0.000 N 
ATOM     18  C   UNL     1       6.233   5.331  18.248  0.00  0.00    +0.000 C 
ATOM     19  O   UNL     1       7.147   4.576  17.925  0.00  0.00    +0.000 OA
ATOM     20  N   UNL     1       5.106   4.905  18.906  0.00  0.00    +0.000 N 
ATOM     21  C   UNL     1       4.956   3.507  19.317  0.00  0.00    +0.000 C 
ATOM     22  C   UNL     1       3.563   3.456  19.861  0.00  0.00    +0.000 A 
ATOM     23  C   UNL     1       2.886   2.421  20.475  0.00  0.00    +0.000 A 
ATOM     24  C   UNL     1       1.578   2.683  20.865  0.00  0.00    +0.000 A 
ATOM     25  N   UNL     1       0.939   3.868  20.678  0.00  0.00    +0.000 NA
ATOM     26  C   UNL     1       1.631   4.858  20.074  0.00  0.00    +0.000 A 
ATOM     27  C   UNL     1       2.932   4.684  19.664  0.00  0.00    +0.000 A 
ATOM     28  C   UNL     1       3.849   5.645  18.999  0.00  0.00    +0.000 C 
ATOM     29  H   UNL     1       5.871   7.226  18.747  0.00  0.00    +0.000 HD
ENDBRANCH  16  17
ENDBRANCH   1  16
TORSDOF 7
ENDMDL
MODEL 6
REMARK VINA RESULT:      -7.6      1.689      1.988
REMARK  Name = 
REMARK  7 active torsions:
REMARK  status: ('A' for Active; 'I' for Inactive)
REMARK    1  A    between atoms: C_2  and  C_3
REMARK    2  A    between atoms: C_3  and  C_4
REMARK    3  A    between atoms: C_10  and  C_11
REMARK    4  A    between atoms: C_11  and  C_12
REMARK    5  A    between atoms: C_12  and  C_13
REMARK    6  A    between atoms: C_13  and  C_14
REMARK    7  A    between atoms: C_14  and  N_15
REMARK                            x       y       z     vdW  Elec       q    Type
REMARK                         _______ _______ _______ _____ _____    ______ ____
ROOT
ATOM      1  C   UNL     1       8.091   9.331  18.322  0.00  0.00    +0.000 C 
ENDROOT
BRANCH   1   2
ATOM      2  C   UNL     1       7.934   8.240  17.260  0.00  0.00    +0.000 C 
BRANCH   2   3
ATOM      3  C   UNL     1       7.040   7.089  17.746  0.00  0.00    +0.000 C 
BRANCH   3   9
ATOM      4  O   UNL     1       3.731   2.284  17.435  0.00  0.00    +0.000 OA
ATOM      5  C   UNL     1       3.534   3.377  17.966  0.00  0.00    +0.000 C 
ATOM      6  N   UNL     1       4.414   4.450  17.815  0.00  0.00    +0.000 N 
ATOM      7  C   UNL     1       4.274   5.741  18.489  0.00  0.00    +0.000 C 
ATOM      8  C   UNL     1       4.479   6.880  17.497  0.00  0.00    +0.000 C 
ATOM      9  C   UNL     1       5.848   6.794  16.805  0.00  0.00    +0.000 C 
ATOM     10  C   UNL     1       5.977   5.405  16.144  0.00  0.00    +0.000 C 
ATOM     11  C   UNL     1       5.676   4.248  17.103  0.00  0.00    +0.000 C 
BRANCH   5  12
ATOM     12  C   UNL     1       2.318   3.633  18.851  0.00  0.00    +0.000 C 
BRANCH  12  13
ATOM     13  C   UNL     1       2.408   3.095  20.251  0.00  0.00    +0.000 C 
ATOM     14  C   UNL     1       2.147   4.033  21.405  0.00  0.00    +0.000 C 
ATOM     15  C   UNL     1       1.163   2.944  21.090  0.00  0.00    +0.000 C 
ENDBRANCH  12  13
ENDBRANCH   5  12
ENDBRANCH   3   9
ENDBRANCH   2   3
ENDBRANCH   1   2
BRANCH   1  16
ATOM     16  C   UNL     1       9.364  10.151  18.102  0.00  0.00    +0.000 C 
BRANCH  16  17
ATOM     17  N   UNL     1       9.074  11.573  18.076  0.00  0.00    +0.000 N 
ATOM     18  C   UNL     1      10.091  12.485  17.903  0.00  0.00    +0.000 C 
ATOM     19  O   UNL     1      11.266  12.159  17.754  0.00  0.00    +0.000 OA
ATOM     20  N   UNL     1       9.670  13.791  17.909  0.00  0.00    +0.000 N 
ATOM     21  C   UNL     1      10.613  14.889  17.676  0.00  0.00    +0.000 C 
ATOM     22  C   UNL     1       9.780  16.111  17.899  0.00  0.00    +0.000 A 
ATOM     23  C   UNL     1      10.100  17.445  17.741  0.00  0.00    +0.000 A 
ATOM     24  C   UNL     1       9.099  18.361  18.044  0.00  0.00    +0.000 A 
ATOM     25  N   UNL     1       7.856  18.029  18.483  0.00  0.00    +0.000 NA
ATOM     26  C   UNL     1       7.579  16.715  18.627  0.00  0.00    +0.000 A 
ATOM     27  C   UNL     1       8.510  15.745  18.341  0.00  0.00    +0.000 A 
ATOM     28  C   UNL     1       8.389  14.267  18.427  0.00  0.00    +0.000 C 
ATOM     29  H   UNL     1       8.235  11.835  17.583  0.00  0.00    +0.000 HD
ENDBRANCH  16  17
ENDBRANCH   1  16
TORSDOF 7
ENDMDL
MODEL 7
REMARK VINA RESULT:      -7.6      6.888      8.291
REMARK  Name = 
REMARK  7 active torsions:
REMARK  status: ('A' for Active; 'I' for Inactive)
REMARK    1  A    between atoms: C_2  and  C_3
REMARK    2  A    between atoms: C_3  and  C_4
REMARK    3  A    between atoms: C_10  and  C_11
REMARK    4  A    between atoms: C_11  and  C_12
REMARK    5  A    between atoms: C_12  and  C_13
REMARK    6  A    between atoms: C_13  and  C_14
REMARK    7  A    between atoms: C_14  and  N_15
REMARK                            x       y       z     vdW  Elec       q    Type
REMARK                         _______ _______ _______ _____ _____    ______ ____
ROOT
ATOM      1  C   UNL     1       4.822   7.770  17.670  0.00  0.00    +0.000 C 
ENDROOT
BRANCH   1   2
ATOM      2  C   UNL     1       5.856   6.905  16.947  0.00  0.00    +0.000 C 
BRANCH   2   3
ATOM      3  C   UNL     1       5.219   6.048  15.842  0.00  0.00    +0.000 C 
BRANCH   3   9
ATOM      4  O   UNL     1       4.801   2.518  20.480  0.00  0.00    +0.000 OA
ATOM      5  C   UNL     1       4.070   2.669  19.501  0.00  0.00    +0.000 C 
ATOM      6  N   UNL     1       4.420   3.488  18.426  0.00  0.00    +0.000 N 
ATOM      7  C   UNL     1       3.556   3.770  17.280  0.00  0.00    +0.000 C 
ATOM      8  C   UNL     1       4.339   3.625  15.980  0.00  0.00    +0.000 C 
ATOM      9  C   UNL     1       5.569   4.545  15.949  0.00  0.00    +0.000 C 
ATOM     10  C   UNL     1       6.432   4.250  17.195  0.00  0.00    +0.000 C 
ATOM     11  C   UNL     1       5.640   4.293  18.505  0.00  0.00    +0.000 C 
BRANCH   5  12
ATOM     12  C   UNL     1       2.710   1.985  19.401  0.00  0.00    +0.000 C 
BRANCH  12  13
ATOM     13  C   UNL     1       1.565   2.717  20.041  0.00  0.00    +0.000 C 
ATOM     14  C   UNL     1       1.397   2.633  21.539  0.00  0.00    +0.000 C 
ATOM     15  C   UNL     1       1.823   3.926  20.906  0.00  0.00    +0.000 C 
ENDBRANCH  12  13
ENDBRANCH   5  12
ENDBRANCH   3   9
ENDBRANCH   2   3
ENDBRANCH   1   2
BRANCH   1  16
ATOM     16  C   UNL     1       3.425   7.148  17.606  0.00  0.00    +0.000 C 
BRANCH  16  17
ATOM     17  N   UNL     1       2.558   7.700  18.631  0.00  0.00    +0.000 N 
ATOM     18  C   UNL     1       1.925   8.906  18.428  0.00  0.00    +0.000 C 
ATOM     19  O   UNL     1       2.045   9.561  17.396  0.00  0.00    +0.000 OA
ATOM     20  N   UNL     1       1.146   9.307  19.485  0.00  0.00    +0.000 N 
ATOM     21  C   UNL     1       0.354  10.537  19.413  0.00  0.00    +0.000 C 
ATOM     22  C   UNL     1      -0.217  10.659  20.791  0.00  0.00    +0.000 A 
ATOM     23  C   UNL     1      -1.114  11.576  21.303  0.00  0.00    +0.000 A 
ATOM     24  C   UNL     1      -1.447  11.431  22.644  0.00  0.00    +0.000 A 
ATOM     25  N   UNL     1      -0.950  10.468  23.464  0.00  0.00    +0.000 NA
ATOM     26  C   UNL     1      -0.075   9.589  22.930  0.00  0.00    +0.000 A 
ATOM     27  C   UNL     1       0.302   9.658  21.610  0.00  0.00    +0.000 A 
ATOM     28  C   UNL     1       1.233   8.786  20.848  0.00  0.00    +0.000 C 
ATOM     29  H   UNL     1       1.971   7.033  19.107  0.00  0.00    +0.000 HD
ENDBRANCH  16  17
ENDBRANCH   1  16
TORSDOF 7
ENDMDL
MODEL 8
REMARK VINA RESULT:      -7.6      3.198     11.350
REMARK  Name = 
REMARK  7 active torsions:
REMARK  status: ('A' for Active; 'I' for Inactive)
REMARK    1  A    between atoms: C_2  and  C_3
REMARK    2  A    between atoms: C_3  and  C_4
REMARK    3  A    between atoms: C_10  and  C_11
REMARK    4  A    between atoms: C_11  and  C_12
REMARK    5  A    between atoms: C_12  and  C_13
REMARK    6  A    between atoms: C_13  and  C_14
REMARK    7  A    between atoms: C_14  and  N_15
REMARK                            x       y       z     vdW  Elec       q    Type
REMARK                         _______ _______ _______ _____ _____    ______ ____
ROOT
ATOM      1  C   UNL     1       7.706   8.860  17.796  0.00  0.00    +0.000 C 
ENDROOT
BRANCH   1   2
ATOM      2  C   UNL     1       8.868   9.568  18.496  0.00  0.00    +0.000 C 
BRANCH   2   3
ATOM      3  C   UNL     1       8.882  11.076  18.204  0.00  0.00    +0.000 C 
BRANCH   3   9
ATOM      4  O   UNL     1       8.145  14.967  22.500  0.00  0.00    +0.000 OA
ATOM      5  C   UNL     1       8.441  13.773  22.524  0.00  0.00    +0.000 C 
ATOM      6  N   UNL     1       8.693  13.042  21.361  0.00  0.00    +0.000 N 
ATOM      7  C   UNL     1       8.965  11.606  21.324  0.00  0.00    +0.000 C 
ATOM      8  C   UNL     1      10.166  11.317  20.431  0.00  0.00    +0.000 C 
ATOM      9  C   UNL     1       9.957  11.849  19.005  0.00  0.00    +0.000 C 
ATOM     10  C   UNL     1       9.630  13.356  19.087  0.00  0.00    +0.000 C 
ATOM     11  C   UNL     1       8.489  13.676  20.058  0.00  0.00    +0.000 C 
BRANCH   5  12
ATOM     12  C   UNL     1       8.531  12.993  23.832  0.00  0.00    +0.000 C 
BRANCH  12  13
ATOM     13  C   UNL     1       7.647  13.483  24.943  0.00  0.00    +0.000 C 
ATOM     14  C   UNL     1       6.838  12.475  25.724  0.00  0.00    +0.000 C 
ATOM     15  C   UNL     1       7.991  13.178  26.380  0.00  0.00    +0.000 C 
ENDBRANCH  12  13
ENDBRANCH   5  12
ENDBRANCH   3   9
ENDBRANCH   2   3
ENDBRANCH   1   2
BRANCH   1  16
ATOM     16  C   UNL     1       7.875   7.339  17.824  0.00  0.00    +0.000 C 
BRANCH  16  17
ATOM     17  N   UNL     1       6.593   6.671  17.947  0.00  0.00    +0.000 N 
ATOM     18  C   UNL     1       6.513   5.423  18.524  0.00  0.00    +0.000 C 
ATOM     19  O   UNL     1       7.491   4.824  18.965  0.00  0.00    +0.000 OA
ATOM     20  N   UNL     1       5.240   4.912  18.564  0.00  0.00    +0.000 N 
ATOM     21  C   UNL     1       4.965   3.620  19.200  0.00  0.00    +0.000 C 
ATOM     22  C   UNL     1       3.517   3.392  18.903  0.00  0.00    +0.000 A 
ATOM     23  C   UNL     1       2.674   2.380  19.317  0.00  0.00    +0.000 A 
ATOM     24  C   UNL     1       1.364   2.439  18.856  0.00  0.00    +0.000 A 
ATOM     25  N   UNL     1       0.877   3.407  18.036  0.00  0.00    +0.000 NA
ATOM     26  C   UNL     1       1.729   4.381  17.650  0.00  0.00    +0.000 A 
ATOM     27  C   UNL     1       3.039   4.401  18.067  0.00  0.00    +0.000 A 
ATOM     28  C   UNL     1       4.112   5.381  17.761  0.00  0.00    +0.000 C 
ATOM     29  H   UNL     1       5.819   7.264  18.204  0.00  0.00    +0.000 HD
ENDBRANCH  16  17
ENDBRANCH   1  16
TORSDOF 7
ENDMDL
MODEL 9
REMARK VINA RESULT:      -7.6      2.716      3.647
REMARK  Name = 
REMARK  7 active torsions:
REMARK  status: ('A' for Active; 'I' for Inactive)
REMARK    1  A    between atoms: C_2  and  C_3
REMARK    2  A    between atoms: C_3  and  C_4
REMARK    3  A    between atoms: C_10  and  C_11
REMARK    4  A    between atoms: C_11  and  C_12
REMARK    5  A    between atoms: C_12  and  C_13
REMARK    6  A    between atoms: C_13  and  C_14
REMARK    7  A    between atoms: C_14  and  N_15
REMARK                            x       y       z     vdW  Elec       q    Type
REMARK                         _______ _______ _______ _____ _____    ______ ____
ROOT
ATOM      1  C   UNL     1       7.706   8.746  17.786  0.00  0.00    +0.000 C 
ENDROOT
BRANCH   1   2
ATOM      2  C   UNL     1       7.781   7.283  18.229  0.00  0.00    +0.000 C 
BRANCH   2   3
ATOM      3  C   UNL     1       7.242   6.328  17.153  0.00  0.00    +0.000 C 
BRANCH   3   9
ATOM      4  O   UNL     1       2.410   3.062  16.809  0.00  0.00    +0.000 OA
ATOM      5  C   UNL     1       2.761   3.915  17.623  0.00  0.00    +0.000 C 
ATOM      6  N   UNL     1       3.916   4.680  17.453  0.00  0.00    +0.000 N 
ATOM      7  C   UNL     1       4.425   5.645  18.427  0.00  0.00    +0.000 C 
ATOM      8  C   UNL     1       4.804   6.948  17.732  0.00  0.00    +0.000 C 
ATOM      9  C   UNL     1       5.843   6.722  16.623  0.00  0.00    +0.000 C 
ATOM     10  C   UNL     1       5.290   5.667  15.640  0.00  0.00    +0.000 C 
ATOM     11  C   UNL     1       4.811   4.387  16.333  0.00  0.00    +0.000 C 
BRANCH   5  12
ATOM     12  C   UNL     1       1.967   4.184  18.898  0.00  0.00    +0.000 C 
BRANCH  12  13
ATOM     13  C   UNL     1       2.320   3.324  20.078  0.00  0.00    +0.000 C 
ATOM     14  C   UNL     1       2.115   3.880  21.467  0.00  0.00    +0.000 C 
ATOM     15  C   UNL     1       1.235   2.770  20.968  0.00  0.00    +0.000 C 
ENDBRANCH  12  13
ENDBRANCH   5  12
ENDBRANCH   3   9
ENDBRANCH   2   3
ENDBRANCH   1   2
BRANCH   1  16
ATOM     16  C   UNL     1       9.003   9.496  18.099  0.00  0.00    +0.000 C 
BRANCH  16  17
ATOM     17  N   UNL     1       8.840  10.369  19.246  0.00  0.00    +0.000 N 
ATOM     18  C   UNL     1       9.460  11.598  19.276  0.00  0.00    +0.000 C 
ATOM     19  O   UNL     1      10.159  12.020  18.357  0.00  0.00    +0.000 OA
ATOM     20  N   UNL     1       9.224  12.310  20.425  0.00  0.00    +0.000 N 
ATOM     21  C   UNL     1       9.757  13.664  20.597  0.00  0.00    +0.000 C 
ATOM     22  C   UNL     1       9.386  14.004  22.006  0.00  0.00    +0.000 A 
ATOM     23  C   UNL     1       9.548  15.182  22.708  0.00  0.00    +0.000 A 
ATOM     24  C   UNL     1       9.106  15.182  24.026  0.00  0.00    +0.000 A 
ATOM     25  N   UNL     1       8.542  14.115  24.651  0.00  0.00    +0.000 NA
ATOM     26  C   UNL     1       8.399  12.979  23.934  0.00  0.00    +0.000 A 
ATOM     27  C   UNL     1       8.804  12.897  22.623  0.00  0.00    +0.000 A 
ATOM     28  C   UNL     1       8.722  11.752  21.680  0.00  0.00    +0.000 C 
ATOM     29  H   UNL     1       7.912  10.397  19.641  0.00  0.00    +0.000 HD
ENDBRANCH  16  17
ENDBRANCH   1  16
TORSDOF 7
ENDMDL
